MODEL 1
REMARK VINA RESULT: -8.932286576      0.000      0.000
REMARK  8 active torsions:
REMARK  status: ('A' for Active; 'I' for Inactive)
REMARK    1  A    between atoms: C2_2  and  C4_4 
REMARK    2  A    between atoms: C4_4  and  N1_5 
REMARK    3  A    between atoms: C4_4  and  C9_13 
REMARK       I    between atoms: N1_5  and  C5_7 
REMARK    4  A    between atoms: C5_7  and  C6_9 
REMARK       I    between atoms: C9_13  and  N2_15 
REMARK    5  A    between atoms: C13_19  and  C14_20 
REMARK       I    between atoms: C14_20  and  N3_22 
REMARK    6  A    between atoms: N3_22  and  C15_24 
REMARK    7  A    between atoms: C15_24  and  C16_25 
REMARK    8  A    between atoms: C16_25  and  C17_26 
ROOT
HETATM    1  C9  UNL     1      13.810  10.366  -0.436  1.00  0.00     0.243 C 
HETATM    2  O2  UNL     1      14.639   9.523   0.072  1.00  0.00    -0.271 OA
HETATM    3  N2  UNL     1      12.532  10.382   0.185  1.00  0.00    -0.350 N 
HETATM    4  C10 UNL     1      11.412  11.183  -0.262  1.00  0.00     0.126 C 
HETATM    5  C11 UNL     1      10.309  10.202  -0.649  1.00  0.00     0.021 C 
HETATM    6  C12 UNL     1       9.898   9.498   0.623  1.00  0.00     0.017 C 
HETATM    7  C13 UNL     1      11.055   8.747   1.238  1.00  0.00     0.096 C 
HETATM    8  C20 UNL     1      12.281   9.570   1.388  1.00  0.00     0.139 C 
ENDROOT
BRANCH   1   9
HETATM    9  C4  UNL     1      14.245  11.196  -1.567  1.00  0.00     0.180 C 
BRANCH   9  10
HETATM   10  C2  UNL     1      15.177  12.343  -1.138  1.00  0.00     0.009 C 
HETATM   11  C1  UNL     1      14.558  13.688  -1.414  1.00  0.00     0.012 C 
HETATM   12  C3  UNL     1      16.565  12.219  -1.661  1.00  0.00     0.012 C 
ENDBRANCH   9  10
BRANCH   9  13
HETATM   13  N1  UNL     1      15.154  10.342  -2.364  1.00  0.00    -0.346 N 
HETATM   14  C5  UNL     1      15.025  10.175  -3.755  1.00  0.00     0.237 C 
HETATM   15  O1  UNL     1      14.130  10.733  -4.446  1.00  0.00    -0.272 OA
ATOM     16  H1  UNL     1      15.908   9.852  -1.883  1.00  0.00     0.163 HD
BRANCH  14  17
HETATM   17  C6  UNL     1      15.984   9.297  -4.468  1.00  0.00     0.091 C 
HETATM   18  C7  UNL     1      15.385   7.888  -4.425  1.00  0.00     0.037 C 
HETATM   19  C8  UNL     1      17.320   9.227  -3.759  1.00  0.00     0.037 C 
HETATM   20 BR1  UNL     1      16.236   9.882  -6.293  1.00  0.00    -0.076 Br
ENDBRANCH  14  17
ENDBRANCH   9  13
ENDBRANCH   1   9
BRANCH   7  21
HETATM   21  C14 UNL     1      10.615   8.133   2.488  1.00  0.00     0.223 C 
HETATM   22  O3  UNL     1      11.465   7.746   3.326  1.00  0.00    -0.273 OA
HETATM   23  N3  UNL     1       9.251   7.928   2.844  1.00  0.00    -0.361 N 
ATOM     24  H3  UNL     1       8.539   8.232   2.179  1.00  0.00     0.162 HD
BRANCH  23  25
HETATM   25  C15 UNL     1       8.807   7.331   4.058  1.00  0.00     0.123 C 
BRANCH  25  26
HETATM   26  C16 UNL     1       8.035   8.176   4.990  1.00  0.00     0.024 C 
BRANCH  26  27
HETATM   27  C17 UNL     1       7.213   9.273   4.425  1.00  0.00    -0.013 A 
HETATM   28  C18 UNL     1       7.319  10.672   4.903  1.00  0.00     0.005 A 
HETATM   29  C19 UNL     1       6.032   9.881   5.032  1.00  0.00     0.005 A 
ENDBRANCH  26  27
ENDBRANCH  25  26
ENDBRANCH  23  25
ENDBRANCH   7  21
TORSDOF 8
ENDMDL
MODEL 2
REMARK VINA RESULT: -8.668195195      2.154      2.540
REMARK  8 active torsions:
REMARK  status: ('A' for Active; 'I' for Inactive)
REMARK    1  A    between atoms: C2_2  and  C4_4 
REMARK    2  A    between atoms: C4_4  and  N1_5 
REMARK    3  A    between atoms: C4_4  and  C9_13 
REMARK       I    between atoms: N1_5  and  C5_7 
REMARK    4  A    between atoms: C5_7  and  C6_9 
REMARK       I    between atoms: C9_13  and  N2_15 
REMARK    5  A    between atoms: C13_19  and  C14_20 
REMARK       I    between atoms: C14_20  and  N3_22 
REMARK    6  A    between atoms: N3_22  and  C15_24 
REMARK    7  A    between atoms: C15_24  and  C16_25 
REMARK    8  A    between atoms: C16_25  and  C17_26 
ROOT
HETATM    1  C9  UNL     1      14.941   8.911   0.829  1.00  0.00     0.243 C 
HETATM    2  O2  UNL     1      14.950   7.641   1.027  1.00  0.00    -0.271 OA
HETATM    3  N2  UNL     1      13.697   9.541   1.102  1.00  0.00    -0.350 N 
HETATM    4  C10 UNL     1      13.419  10.943   0.876  1.00  0.00     0.126 C 
HETATM    5  C11 UNL     1      12.295  10.999  -0.155  1.00  0.00     0.021 C 
HETATM    6  C12 UNL     1      11.081  10.386   0.505  1.00  0.00     0.017 C 
HETATM    7  C13 UNL     1      11.335   8.952   0.906  1.00  0.00     0.096 C 
HETATM    8  C20 UNL     1      12.586   8.768   1.684  1.00  0.00     0.139 C 
ENDROOT
BRANCH   1   9
HETATM    9  C4  UNL     1      16.168   9.565   0.356  1.00  0.00     0.180 C 
BRANCH   9  10
HETATM   10  C2  UNL     1      17.434   9.019   1.041  1.00  0.00     0.009 C 
HETATM   11  C1  UNL     1      17.460   9.366   2.507  1.00  0.00     0.012 C 
HETATM   12  C3  UNL     1      18.698   9.366   0.335  1.00  0.00     0.012 C 
ENDBRANCH   9  10
BRANCH   9  13
HETATM   13  N1  UNL     1      16.352   9.108  -1.040  1.00  0.00    -0.346 N 
HETATM   14  C5  UNL     1      15.954   9.870  -2.154  1.00  0.00     0.237 C 
HETATM   15  O1  UNL     1      15.408  11.003  -2.067  1.00  0.00    -0.272 OA
ATOM     16  H1  UNL     1      16.787   8.200  -1.202  1.00  0.00     0.163 HD
BRANCH  14  17
HETATM   17  C6  UNL     1      16.180   9.328  -3.516  1.00  0.00     0.091 C 
HETATM   18  C7  UNL     1      15.183  10.047  -4.431  1.00  0.00     0.037 C 
HETATM   19  C8  UNL     1      15.860   7.851  -3.596  1.00  0.00     0.037 C 
HETATM   20 BR1  UNL     1      17.997   9.641  -4.096  1.00  0.00    -0.076 Br
ENDBRANCH  14  17
ENDBRANCH   9  13
ENDBRANCH   1   9
BRANCH   7  21
HETATM   21  C14 UNL     1      10.151   8.430   1.583  1.00  0.00     0.223 C 
HETATM   22  O3  UNL     1      10.009   7.191   1.724  1.00  0.00    -0.273 OA
HETATM   23  N3  UNL     1       9.108   9.241   2.114  1.00  0.00    -0.361 N 
ATOM     24  H3  UNL     1       9.198  10.252   2.011  1.00  0.00     0.162 HD
BRANCH  23  25
HETATM   25  C15 UNL     1       7.949   8.747   2.777  1.00  0.00     0.123 C 
BRANCH  25  26
HETATM   26  C16 UNL     1       6.721   9.564   2.706  1.00  0.00     0.024 C 
BRANCH  26  27
HETATM   27  C17 UNL     1       6.380  10.417   3.869  1.00  0.00    -0.013 A 
HETATM   28  C18 UNL     1       6.911  10.155   5.228  1.00  0.00     0.005 A 
HETATM   29  C19 UNL     1       5.426  10.105   4.929  1.00  0.00     0.005 A 
ENDBRANCH  26  27
ENDBRANCH  25  26
ENDBRANCH  23  25
ENDBRANCH   7  21
TORSDOF 8
ENDMDL
MODEL 3
REMARK VINA RESULT: -8.584434495      1.425      1.641
REMARK  8 active torsions:
REMARK  status: ('A' for Active; 'I' for Inactive)
REMARK    1  A    between atoms: C2_2  and  C4_4 
REMARK    2  A    between atoms: C4_4  and  N1_5 
REMARK    3  A    between atoms: C4_4  and  C9_13 
REMARK       I    between atoms: N1_5  and  C5_7 
REMARK    4  A    between atoms: C5_7  and  C6_9 
REMARK       I    between atoms: C9_13  and  N2_15 
REMARK    5  A    between atoms: C13_19  and  C14_20 
REMARK       I    between atoms: C14_20  and  N3_22 
REMARK    6  A    between atoms: N3_22  and  C15_24 
REMARK    7  A    between atoms: C15_24  and  C16_25 
REMARK    8  A    between atoms: C16_25  and  C17_26 
ROOT
HETATM    1  C9  UNL     1      12.912  10.637   0.406  1.00  0.00     0.243 C 
HETATM    2  O2  UNL     1      13.664  10.008   1.239  1.00  0.00    -0.271 OA
HETATM    3  N2  UNL     1      11.520  10.518   0.662  1.00  0.00    -0.350 N 
HETATM    4  C10 UNL     1      10.480  11.065  -0.182  1.00  0.00     0.126 C 
HETATM    5  C11 UNL     1       9.661   9.878  -0.683  1.00  0.00     0.021 C 
HETATM    6  C12 UNL     1       9.001   9.274   0.534  1.00  0.00     0.017 C 
HETATM    7  C13 UNL     1      10.022   8.800   1.541  1.00  0.00     0.096 C 
HETATM    8  C20 UNL     1      11.045   9.825   1.872  1.00  0.00     0.139 C 
ENDROOT
BRANCH   1   9
HETATM    9  C4  UNL     1      13.540  11.386  -0.691  1.00  0.00     0.180 C 
BRANCH   9  10
HETATM   10  C2  UNL     1      14.273  12.649  -0.203  1.00  0.00     0.009 C 
HETATM   11  C1  UNL     1      13.419  13.450   0.745  1.00  0.00     0.012 C 
HETATM   12  C3  UNL     1      14.855  13.470  -1.301  1.00  0.00     0.012 C 
ENDBRANCH   9  10
BRANCH   9  13
HETATM   13  N1  UNL     1      14.662  10.542  -1.162  1.00  0.00    -0.346 N 
HETATM   14  C5  UNL     1      14.901  10.276  -2.522  1.00  0.00     0.237 C 
HETATM   15  O1  UNL     1      14.188  10.728  -3.459  1.00  0.00    -0.272 OA
ATOM     16  H1  UNL     1      15.290  10.135  -0.469  1.00  0.00     0.163 HD
BRANCH  14  17
HETATM   17  C6  UNL     1      16.050   9.417  -2.898  1.00  0.00     0.091 C 
HETATM   18  C7  UNL     1      16.292   8.485  -1.706  1.00  0.00     0.037 C 
HETATM   19  C8  UNL     1      17.318  10.222  -3.088  1.00  0.00     0.037 C 
HETATM   20 BR1  UNL     1      15.666   8.404  -4.498  1.00  0.00    -0.076 Br
ENDBRANCH  14  17
ENDBRANCH   9  13
ENDBRANCH   1   9
BRANCH   7  21
HETATM   21  C14 UNL     1       9.329   8.275   2.714  1.00  0.00     0.223 C 
HETATM   22  O3  UNL     1       9.106   7.043   2.807  1.00  0.00    -0.273 OA
HETATM   23  N3  UNL     1       8.869   9.076   3.798  1.00  0.00    -0.361 N 
ATOM     24  H3  UNL     1       9.037  10.081   3.746  1.00  0.00     0.162 HD
BRANCH  23  25
HETATM   25  C15 UNL     1       8.193   8.579   4.948  1.00  0.00     0.123 C 
BRANCH  25  26
HETATM   26  C16 UNL     1       7.424   9.546   5.758  1.00  0.00     0.024 C 
BRANCH  26  27
HETATM   27  C17 UNL     1       6.414  10.386   5.072  1.00  0.00    -0.013 A 
HETATM   28  C18 UNL     1       4.965  10.081   5.116  1.00  0.00     0.005 A 
HETATM   29  C19 UNL     1       5.739  10.087   3.813  1.00  0.00     0.005 A 
ENDBRANCH  26  27
ENDBRANCH  25  26
ENDBRANCH  23  25
ENDBRANCH   7  21
TORSDOF 8
ENDMDL
MODEL 4
REMARK VINA RESULT: -8.235134249      2.088      2.939
REMARK  8 active torsions:
REMARK  status: ('A' for Active; 'I' for Inactive)
REMARK    1  A    between atoms: C2_2  and  C4_4 
REMARK    2  A    between atoms: C4_4  and  N1_5 
REMARK    3  A    between atoms: C4_4  and  C9_13 
REMARK       I    between atoms: N1_5  and  C5_7 
REMARK    4  A    between atoms: C5_7  and  C6_9 
REMARK       I    between atoms: C9_13  and  N2_15 
REMARK    5  A    between atoms: C13_19  and  C14_20 
REMARK       I    between atoms: C14_20  and  N3_22 
REMARK    6  A    between atoms: N3_22  and  C15_24 
REMARK    7  A    between atoms: C15_24  and  C16_25 
REMARK    8  A    between atoms: C16_25  and  C17_26 
ROOT
HETATM    1  C9  UNL     1      13.328   9.971   0.156  1.00  0.00     0.243 C 
HETATM    2  O2  UNL     1      12.589  10.370  -0.818  1.00  0.00    -0.271 OA
HETATM    3  N2  UNL     1      12.608   9.476   1.277  1.00  0.00    -0.350 N 
HETATM    4  C10 UNL     1      13.215   9.050   2.519  1.00  0.00     0.126 C 
HETATM    5  C11 UNL     1      12.668   9.973   3.605  1.00  0.00     0.021 C 
HETATM    6  C12 UNL     1      11.185   9.695   3.693  1.00  0.00     0.017 C 
HETATM    7  C13 UNL     1      10.490   9.980   2.383  1.00  0.00     0.096 C 
HETATM    8  C20 UNL     1      11.143   9.337   1.215  1.00  0.00     0.139 C 
ENDROOT
BRANCH   1   9
HETATM    9  C4  UNL     1      14.788  10.064   0.024  1.00  0.00     0.180 C 
BRANCH   9  10
HETATM   10  C2  UNL     1      15.531   9.070   0.935  1.00  0.00     0.009 C 
HETATM   11  C1  UNL     1      16.819   9.655   1.453  1.00  0.00     0.012 C 
HETATM   12  C3  UNL     1      15.702   7.718   0.337  1.00  0.00     0.012 C 
ENDBRANCH   9  10
BRANCH   9  13
HETATM   13  N1  UNL     1      15.103   9.541  -1.325  1.00  0.00    -0.346 N 
HETATM   14  C5  UNL     1      15.972  10.196  -2.216  1.00  0.00     0.237 C 
HETATM   15  O1  UNL     1      16.559  11.279  -1.951  1.00  0.00    -0.272 OA
ATOM     16  H1  UNL     1      14.669   8.667  -1.621  1.00  0.00     0.163 HD
BRANCH  14  17
HETATM   17  C6  UNL     1      16.226   9.594  -3.548  1.00  0.00     0.091 C 
HETATM   18  C7  UNL     1      15.999   8.088  -3.384  1.00  0.00     0.037 C 
HETATM   19  C8  UNL     1      17.663   9.776  -3.985  1.00  0.00     0.037 C 
HETATM   20 BR1  UNL     1      15.033  10.329  -4.880  1.00  0.00    -0.076 Br
ENDBRANCH  14  17
ENDBRANCH   9  13
ENDBRANCH   1   9
BRANCH   7  21
HETATM   21  C14 UNL     1       9.075   9.645   2.511  1.00  0.00     0.223 C 
HETATM   22  O3  UNL     1       8.632   8.594   1.984  1.00  0.00    -0.273 OA
HETATM   23  N3  UNL     1       8.121  10.441   3.207  1.00  0.00    -0.361 N 
ATOM     24  H3  UNL     1       8.454  11.301   3.643  1.00  0.00     0.162 HD
BRANCH  23  25
HETATM   25  C15 UNL     1       6.739  10.126   3.341  1.00  0.00     0.123 C 
BRANCH  25  26
HETATM   26  C16 UNL     1       6.161  10.153   4.699  1.00  0.00     0.024 C 
BRANCH  26  27
HETATM   27  C17 UNL     1       4.717  10.458   4.840  1.00  0.00    -0.013 A 
HETATM   28  C18 UNL     1       3.755   9.491   5.419  1.00  0.00     0.005 A 
HETATM   29  C19 UNL     1       3.636   9.973   3.987  1.00  0.00     0.005 A 
ENDBRANCH  26  27
ENDBRANCH  25  26
ENDBRANCH  23  25
ENDBRANCH   7  21
TORSDOF 8
ENDMDL
MODEL 5
REMARK VINA RESULT: -8.066315795      2.657      3.890
REMARK  8 active torsions:
REMARK  status: ('A' for Active; 'I' for Inactive)
REMARK    1  A    between atoms: C2_2  and  C4_4 
REMARK    2  A    between atoms: C4_4  and  N1_5 
REMARK    3  A    between atoms: C4_4  and  C9_13 
REMARK       I    between atoms: N1_5  and  C5_7 
REMARK    4  A    between atoms: C5_7  and  C6_9 
REMARK       I    between atoms: C9_13  and  N2_15 
REMARK    5  A    between atoms: C13_19  and  C14_20 
REMARK       I    between atoms: C14_20  and  N3_22 
REMARK    6  A    between atoms: N3_22  and  C15_24 
REMARK    7  A    between atoms: C15_24  and  C16_25 
REMARK    8  A    between atoms: C16_25  and  C17_26 
ROOT
HETATM    1  C9  UNL     1      13.769   8.400   1.924  1.00  0.00     0.243 C 
HETATM    2  O2  UNL     1      13.358   7.401   1.225  1.00  0.00    -0.271 OA
HETATM    3  N2  UNL     1      12.751   9.058   2.666  1.00  0.00    -0.350 N 
HETATM    4  C10 UNL     1      12.955  10.252   3.457  1.00  0.00     0.126 C 
HETATM    5  C11 UNL     1      12.071  11.334   2.840  1.00  0.00     0.021 C 
HETATM    6  C12 UNL     1      10.643  10.882   3.040  1.00  0.00     0.017 C 
HETATM    7  C13 UNL     1      10.381   9.560   2.359  1.00  0.00     0.096 C 
HETATM    8  C20 UNL     1      11.382   8.515   2.691  1.00  0.00     0.139 C 
ENDROOT
BRANCH   1   9
HETATM    9  C4  UNL     1      15.194   8.752   1.889  1.00  0.00     0.180 C 
BRANCH   9  10
HETATM   10  C2  UNL     1      16.111   7.549   2.171  1.00  0.00     0.009 C 
HETATM   11  C1  UNL     1      15.948   7.052   3.584  1.00  0.00     0.012 C 
HETATM   12  C3  UNL     1      17.533   7.772   1.791  1.00  0.00     0.012 C 
ENDBRANCH   9  10
BRANCH   9  13
HETATM   13  N1  UNL     1      15.499   9.045   0.470  1.00  0.00    -0.346 N 
HETATM   14  C5  UNL     1      15.275  10.304  -0.118  1.00  0.00     0.237 C 
HETATM   15  O1  UNL     1      14.798  11.291   0.505  1.00  0.00    -0.272 OA
ATOM     16  H1  UNL     1      15.889   8.301  -0.108  1.00  0.00     0.163 HD
BRANCH  14  17
HETATM   17  C6  UNL     1      15.611  10.502  -1.548  1.00  0.00     0.091 C 
HETATM   18  C7  UNL     1      16.638  11.638  -1.591  1.00  0.00     0.037 C 
HETATM   19  C8  UNL     1      14.415  10.963  -2.352  1.00  0.00     0.037 C 
HETATM   20 BR1  UNL     1      16.341   8.886  -2.319  1.00  0.00    -0.076 Br
ENDBRANCH  14  17
ENDBRANCH   9  13
ENDBRANCH   1   9
BRANCH   7  21
HETATM   21  C14 UNL     1       9.006   9.148   2.628  1.00  0.00     0.223 C 
HETATM   22  O3  UNL     1       8.722   7.927   2.695  1.00  0.00    -0.273 OA
HETATM   23  N3  UNL     1       7.923  10.052   2.828  1.00  0.00    -0.361 N 
ATOM     24  H3  UNL     1       8.127  11.050   2.777  1.00  0.00     0.162 HD
BRANCH  23  25
HETATM   25  C15 UNL     1       6.578   9.666   3.092  1.00  0.00     0.123 C 
BRANCH  25  26
HETATM   26  C16 UNL     1       6.064   9.878   4.459  1.00  0.00     0.024 C 
BRANCH  26  27
HETATM   27  C17 UNL     1       4.692  10.419   4.615  1.00  0.00    -0.013 A 
HETATM   28  C18 UNL     1       3.668   9.754   5.454  1.00  0.00     0.005 A 
HETATM   29  C19 UNL     1       3.482   9.930   3.960  1.00  0.00     0.005 A 
ENDBRANCH  26  27
ENDBRANCH  25  26
ENDBRANCH  23  25
ENDBRANCH   7  21
TORSDOF 8
ENDMDL
