MODEL 1
REMARK VINA RESULT: -9.676179670      0.000      0.000
REMARK  8 active torsions:
REMARK  status: ('A' for Active; 'I' for Inactive)
REMARK    1  A    between atoms: C1_2  and  C2_3 
REMARK       I    between atoms: C1_2  and  N4_26 
REMARK    2  A    between atoms: C2_3  and  C3_4 
REMARK    3  A    between atoms: C3_4  and  C4_5 
REMARK       I    between atoms: C4_5  and  N1_7 
REMARK       I    between atoms: N2_10  and  C7_11 
REMARK    4  A    between atoms: C7_11  and  C8_13 
REMARK    5  A    between atoms: C8_13  and  C9_14 
REMARK    6  A    between atoms: C9_14  and  N3_15 
REMARK       I    between atoms: N3_15  and  C10_17 
REMARK    7  A    between atoms: C10_17  and  C11_19 
REMARK    8  A    between atoms: N4_26  and  C18_28 
ROOT
HETATM    1  C4  UNL     1      14.899   8.105   2.671  1.00  0.00     0.220 C 
HETATM    2  O2  UNL     1      14.774   6.975   3.209  1.00  0.00    -0.273 OA
HETATM    3  N1  UNL     1      13.728   8.814   2.315  1.00  0.00    -0.349 N 
HETATM    4  C5  UNL     1      13.772  10.120   1.691  1.00  0.00     0.145 C 
HETATM    5  C6  UNL     1      12.696  10.344   0.680  1.00  0.00     0.145 C 
HETATM    6  N2  UNL     1      11.445   9.707   1.028  1.00  0.00    -0.349 N 
HETATM    7  C7  UNL     1      10.408   9.661   0.063  1.00  0.00     0.221 C 
HETATM    8  O3  UNL     1      10.521  10.150  -1.084  1.00  0.00    -0.273 OA
HETATM    9  C16 UNL     1      11.287   9.137   2.343  1.00  0.00     0.145 C 
HETATM   10  C17 UNL     1      12.442   8.214   2.586  1.00  0.00     0.145 C 
ENDROOT
BRANCH   1  11
HETATM   11  C3  UNL     1      16.260   8.661   2.423  1.00  0.00     0.112 C 
BRANCH  11  12
HETATM   12  C2  UNL     1      17.067   7.741   1.531  1.00  0.00     0.112 C 
BRANCH  12  13
HETATM   13  C1  UNL     1      16.607   7.791   0.128  1.00  0.00     0.218 C 
HETATM   14  O1  UNL     1      16.068   6.788  -0.402  1.00  0.00    -0.274 OA
HETATM   15  N4  UNL     1      16.768   8.959  -0.627  1.00  0.00    -0.356 N 
ATOM     16  H4  UNL     1      17.208   9.763  -0.178  1.00  0.00     0.162 HD
BRANCH  15  17
HETATM   17  C18 UNL     1      16.346   9.098  -2.007  1.00  0.00     0.084 C 
HETATM   18  C19 UNL     1      15.161  10.047  -2.125  1.00  0.00     0.025 C 
HETATM   19  C20 UNL     1      15.066  10.530  -3.534  1.00  0.00     0.002 C 
HETATM   20  C21 UNL     1      15.664   9.578  -4.542  1.00  0.00     0.000 C 
HETATM   21  C22 UNL     1      17.137   9.357  -4.301  1.00  0.00     0.002 C 
HETATM   22  C23 UNL     1      17.458   9.686  -2.862  1.00  0.00     0.025 C 
ENDBRANCH  15  17
ENDBRANCH  12  13
ENDBRANCH  11  12
ENDBRANCH   1  11
BRANCH   7  23
HETATM   23  C8  UNL     1       9.094   9.004   0.392  1.00  0.00     0.122 C 
BRANCH  23  24
HETATM   24  C9  UNL     1       8.032  10.030   0.668  1.00  0.00     0.132 C 
BRANCH  24  25
HETATM   25  N3  UNL     1       7.965  10.472   2.029  1.00  0.00    -0.360 N 
HETATM   26  C10 UNL     1       6.853  10.269   2.869  1.00  0.00     0.221 C 
HETATM   27  O4  UNL     1       5.834   9.676   2.457  1.00  0.00    -0.273 OA
ATOM     28  H3  UNL     1       8.773  10.963   2.414  1.00  0.00     0.162 HD
BRANCH  26  29
HETATM   29  C11 UNL     1       6.823  10.743   4.285  1.00  0.00     0.078 C 
HETATM   30  C12 UNL     1       8.201  11.068   4.777  1.00  0.00     0.014 C 
HETATM   31  C13 UNL     1       8.809   9.773   5.266  1.00  0.00     0.001 C 
HETATM   32  C14 UNL     1       7.652   8.796   5.349  1.00  0.00     0.001 C 
HETATM   33  C15 UNL     1       6.394   9.640   5.220  1.00  0.00     0.014 C 
ENDBRANCH  26  29
ENDBRANCH  24  25
ENDBRANCH  23  24
ENDBRANCH   7  23
TORSDOF 8
ENDMDL
MODEL 2
REMARK VINA RESULT: -9.597291731      2.363      9.534
REMARK  8 active torsions:
REMARK  status: ('A' for Active; 'I' for Inactive)
REMARK    1  A    between atoms: C1_2  and  C2_3 
REMARK       I    between atoms: C1_2  and  N4_26 
REMARK    2  A    between atoms: C2_3  and  C3_4 
REMARK    3  A    between atoms: C3_4  and  C4_5 
REMARK       I    between atoms: C4_5  and  N1_7 
REMARK       I    between atoms: N2_10  and  C7_11 
REMARK    4  A    between atoms: C7_11  and  C8_13 
REMARK    5  A    between atoms: C8_13  and  C9_14 
REMARK    6  A    between atoms: C9_14  and  N3_15 
REMARK       I    between atoms: N3_15  and  C10_17 
REMARK    7  A    between atoms: C10_17  and  C11_19 
REMARK    8  A    between atoms: N4_26  and  C18_28 
ROOT
HETATM    1  C4  UNL     1      10.838   8.843   1.162  1.00  0.00     0.220 C 
HETATM    2  O2  UNL     1       9.866   9.049   0.391  1.00  0.00    -0.273 OA
HETATM    3  N1  UNL     1      11.915   9.759   1.147  1.00  0.00    -0.349 N 
HETATM    4  C5  UNL     1      13.077   9.605   1.998  1.00  0.00     0.145 C 
HETATM    5  C6  UNL     1      14.357  10.030   1.358  1.00  0.00     0.145 C 
HETATM    6  N2  UNL     1      14.204  11.165   0.474  1.00  0.00    -0.349 N 
HETATM    7  C7  UNL     1      15.290  11.538  -0.356  1.00  0.00     0.221 C 
HETATM    8  O3  UNL     1      16.385  10.930  -0.362  1.00  0.00    -0.273 OA
HETATM    9  C16 UNL     1      12.954  11.884   0.463  1.00  0.00     0.145 C 
HETATM   10  C17 UNL     1      11.853  10.890   0.250  1.00  0.00     0.145 C 
ENDROOT
BRANCH   1  11
HETATM   11  C3  UNL     1      10.831   7.653   2.062  1.00  0.00     0.112 C 
BRANCH  11  12
HETATM   12  C2  UNL     1      10.294   8.013   3.432  1.00  0.00     0.112 C 
BRANCH  12  13
HETATM   13  C1  UNL     1       8.816   8.034   3.457  1.00  0.00     0.218 C 
HETATM   14  O1  UNL     1       8.163   6.966   3.361  1.00  0.00    -0.274 OA
HETATM   15  N4  UNL     1       8.129   9.247   3.588  1.00  0.00    -0.356 N 
ATOM     16  H4  UNL     1       8.679  10.103   3.664  1.00  0.00     0.162 HD
BRANCH  15  17
HETATM   17  C18 UNL     1       6.684   9.361   3.621  1.00  0.00     0.084 C 
HETATM   18  C19 UNL     1       6.212   9.937   4.950  1.00  0.00     0.025 C 
HETATM   19  C20 UNL     1       4.830  10.475   4.780  1.00  0.00     0.002 C 
HETATM   20  C21 UNL     1       4.055   9.813   3.666  1.00  0.00     0.000 C 
HETATM   21  C22 UNL     1       4.720  10.006   2.325  1.00  0.00     0.002 C 
HETATM   22  C23 UNL     1       6.185  10.305   2.538  1.00  0.00     0.025 C 
ENDBRANCH  15  17
ENDBRANCH  12  13
ENDBRANCH  11  12
ENDBRANCH   1  11
BRANCH   7  23
HETATM   23  C8  UNL     1      15.163  12.714  -1.288  1.00  0.00     0.122 C 
BRANCH  23  24
HETATM   24  C9  UNL     1      14.604  12.290  -2.616  1.00  0.00     0.132 C 
BRANCH  24  25
HETATM   25  N3  UNL     1      15.114  11.047  -3.112  1.00  0.00    -0.360 N 
HETATM   26  C10 UNL     1      14.781  10.504  -4.368  1.00  0.00     0.221 C 
HETATM   27  O4  UNL     1      13.998  11.097  -5.140  1.00  0.00    -0.273 OA
ATOM     28  H3  UNL     1      15.757  10.522  -2.519  1.00  0.00     0.162 HD
BRANCH  26  29
HETATM   29  C11 UNL     1      15.337   9.204  -4.850  1.00  0.00     0.078 C 
HETATM   30  C12 UNL     1      16.324   8.641  -3.873  1.00  0.00     0.014 C 
HETATM   31  C13 UNL     1      17.659   9.279  -4.181  1.00  0.00     0.001 C 
HETATM   32  C14 UNL     1      17.481   9.944  -5.534  1.00  0.00     0.001 C 
HETATM   33  C15 UNL     1      16.176   9.396  -6.088  1.00  0.00     0.014 C 
ENDBRANCH  26  29
ENDBRANCH  24  25
ENDBRANCH  23  24
ENDBRANCH   7  23
TORSDOF 8
ENDMDL
MODEL 3
REMARK VINA RESULT: -9.433794010      0.762      1.063
REMARK  8 active torsions:
REMARK  status: ('A' for Active; 'I' for Inactive)
REMARK    1  A    between atoms: C1_2  and  C2_3 
REMARK       I    between atoms: C1_2  and  N4_26 
REMARK    2  A    between atoms: C2_3  and  C3_4 
REMARK    3  A    between atoms: C3_4  and  C4_5 
REMARK       I    between atoms: C4_5  and  N1_7 
REMARK       I    between atoms: N2_10  and  C7_11 
REMARK    4  A    between atoms: C7_11  and  C8_13 
REMARK    5  A    between atoms: C8_13  and  C9_14 
REMARK    6  A    between atoms: C9_14  and  N3_15 
REMARK       I    between atoms: N3_15  and  C10_17 
REMARK    7  A    between atoms: C10_17  and  C11_19 
REMARK    8  A    between atoms: N4_26  and  C18_28 
ROOT
HETATM    1  C4  UNL     1      14.879   8.033   2.557  1.00  0.00     0.220 C 
HETATM    2  O2  UNL     1      14.752   6.899   3.085  1.00  0.00    -0.273 OA
HETATM    3  N1  UNL     1      13.709   8.754   2.221  1.00  0.00    -0.349 N 
HETATM    4  C5  UNL     1      13.756  10.066   1.609  1.00  0.00     0.145 C 
HETATM    5  C6  UNL     1      12.671  10.308   0.612  1.00  0.00     0.145 C 
HETATM    6  N2  UNL     1      11.419   9.675   0.966  1.00  0.00    -0.349 N 
HETATM    7  C7  UNL     1      10.372   9.647   0.012  1.00  0.00     0.221 C 
HETATM    8  O3  UNL     1      10.477  10.147  -1.132  1.00  0.00    -0.273 OA
HETATM    9  C16 UNL     1      11.271   9.092   2.277  1.00  0.00     0.145 C 
HETATM   10  C17 UNL     1      12.423   8.160   2.499  1.00  0.00     0.145 C 
ENDROOT
BRANCH   1  11
HETATM   11  C3  UNL     1      16.242   8.583   2.301  1.00  0.00     0.112 C 
BRANCH  11  12
HETATM   12  C2  UNL     1      17.016   7.692   1.351  1.00  0.00     0.112 C 
BRANCH  12  13
HETATM   13  C1  UNL     1      17.161   8.307   0.015  1.00  0.00     0.218 C 
HETATM   14  O1  UNL     1      18.172   8.997  -0.262  1.00  0.00    -0.274 OA
HETATM   15  N4  UNL     1      16.170   8.124  -0.957  1.00  0.00    -0.356 N 
ATOM     16  H4  UNL     1      15.356   7.560  -0.712  1.00  0.00     0.162 HD
BRANCH  15  17
HETATM   17  C18 UNL     1      16.230   8.688  -2.292  1.00  0.00     0.084 C 
HETATM   18  C19 UNL     1      15.874   7.645  -3.343  1.00  0.00     0.025 C 
HETATM   19  C20 UNL     1      15.483   8.343  -4.603  1.00  0.00     0.002 C 
HETATM   20  C21 UNL     1      16.096   9.715  -4.751  1.00  0.00     0.000 C 
HETATM   21  C22 UNL     1      15.669  10.643  -3.641  1.00  0.00     0.002 C 
HETATM   22  C23 UNL     1      15.229   9.823  -2.451  1.00  0.00     0.025 C 
ENDBRANCH  15  17
ENDBRANCH  12  13
ENDBRANCH  11  12
ENDBRANCH   1  11
BRANCH   7  23
HETATM   23  C8  UNL     1       9.057   8.995   0.348  1.00  0.00     0.122 C 
BRANCH  23  24
HETATM   24  C9  UNL     1       8.005  10.025   0.644  1.00  0.00     0.132 C 
BRANCH  24  25
HETATM   25  N3  UNL     1       7.966  10.465   2.007  1.00  0.00    -0.360 N 
HETATM   26  C10 UNL     1       6.877  10.249   2.873  1.00  0.00     0.221 C 
HETATM   27  O4  UNL     1       5.855   9.644   2.486  1.00  0.00    -0.273 OA
ATOM     28  H3  UNL     1       8.776  10.966   2.372  1.00  0.00     0.162 HD
BRANCH  26  29
HETATM   29  C11 UNL     1       6.876  10.723   4.290  1.00  0.00     0.078 C 
HETATM   30  C12 UNL     1       8.266  11.021   4.763  1.00  0.00     0.014 C 
HETATM   31  C13 UNL     1       8.856   9.714   5.242  1.00  0.00     0.001 C 
HETATM   32  C14 UNL     1       7.682   8.759   5.341  1.00  0.00     0.001 C 
HETATM   33  C15 UNL     1       6.439   9.627   5.229  1.00  0.00     0.014 C 
ENDBRANCH  26  29
ENDBRANCH  24  25
ENDBRANCH  23  24
ENDBRANCH   7  23
TORSDOF 8
ENDMDL
MODEL 4
REMARK VINA RESULT: -9.350734385      2.232      9.502
REMARK  8 active torsions:
REMARK  status: ('A' for Active; 'I' for Inactive)
REMARK    1  A    between atoms: C1_2  and  C2_3 
REMARK       I    between atoms: C1_2  and  N4_26 
REMARK    2  A    between atoms: C2_3  and  C3_4 
REMARK    3  A    between atoms: C3_4  and  C4_5 
REMARK       I    between atoms: C4_5  and  N1_7 
REMARK       I    between atoms: N2_10  and  C7_11 
REMARK    4  A    between atoms: C7_11  and  C8_13 
REMARK    5  A    between atoms: C8_13  and  C9_14 
REMARK    6  A    between atoms: C9_14  and  N3_15 
REMARK       I    between atoms: N3_15  and  C10_17 
REMARK    7  A    between atoms: C10_17  and  C11_19 
REMARK    8  A    between atoms: N4_26  and  C18_28 
ROOT
HETATM    1  C4  UNL     1      12.157   8.131   2.913  1.00  0.00     0.220 C 
HETATM    2  O2  UNL     1      13.059   7.841   3.740  1.00  0.00    -0.273 OA
HETATM    3  N1  UNL     1      12.509   8.885   1.769  1.00  0.00    -0.349 N 
HETATM    4  C5  UNL     1      11.540   9.268   0.763  1.00  0.00     0.145 C 
HETATM    5  C6  UNL     1      11.780  10.617   0.172  1.00  0.00     0.145 C 
HETATM    6  N2  UNL     1      13.184  10.941   0.041  1.00  0.00    -0.349 N 
HETATM    7  C7  UNL     1      13.553  12.264  -0.307  1.00  0.00     0.221 C 
HETATM    8  O3  UNL     1      12.717  13.175  -0.508  1.00  0.00    -0.273 OA
HETATM    9  C16 UNL     1      14.167   9.910   0.265  1.00  0.00     0.145 C 
HETATM   10  C17 UNL     1      13.886   9.288   1.599  1.00  0.00     0.145 C 
ENDROOT
BRANCH   1  11
HETATM   11  C3  UNL     1      10.756   7.680   3.155  1.00  0.00     0.112 C 
BRANCH  11  12
HETATM   12  C2  UNL     1       9.960   8.747   3.877  1.00  0.00     0.112 C 
BRANCH  12  13
HETATM   13  C1  UNL     1       8.510   8.619   3.624  1.00  0.00     0.218 C 
HETATM   14  O1  UNL     1       8.065   7.669   2.934  1.00  0.00    -0.274 OA
HETATM   15  N4  UNL     1       7.615   9.557   4.152  1.00  0.00    -0.356 N 
ATOM     16  H4  UNL     1       7.996  10.322   4.710  1.00  0.00     0.162 HD
BRANCH  15  17
HETATM   17  C18 UNL     1       6.179   9.509   3.955  1.00  0.00     0.084 C 
HETATM   18  C19 UNL     1       5.441  10.031   5.181  1.00  0.00     0.025 C 
HETATM   19  C20 UNL     1       4.054  10.412   4.784  1.00  0.00     0.002 C 
HETATM   20  C21 UNL     1       3.543   9.665   3.575  1.00  0.00     0.000 C 
HETATM   21  C22 UNL     1       4.387   9.929   2.353  1.00  0.00     0.002 C 
HETATM   22  C23 UNL     1       5.758  10.390   2.788  1.00  0.00     0.025 C 
ENDBRANCH  15  17
ENDBRANCH  12  13
ENDBRANCH  11  12
ENDBRANCH   1  11
BRANCH   7  23
HETATM   23  C8  UNL     1      15.005  12.634  -0.450  1.00  0.00     0.122 C 
BRANCH  23  24
HETATM   24  C9  UNL     1      15.431  12.595  -1.890  1.00  0.00     0.132 C 
BRANCH  24  25
HETATM   25  N3  UNL     1      16.048  11.368  -2.299  1.00  0.00    -0.360 N 
HETATM   26  C10 UNL     1      15.418  10.402  -3.107  1.00  0.00     0.221 C 
HETATM   27  O4  UNL     1      14.252  10.568  -3.521  1.00  0.00    -0.273 OA
ATOM     28  H3  UNL     1      17.001  11.183  -1.986  1.00  0.00     0.162 HD
BRANCH  26  29
HETATM   29  C11 UNL     1      16.096   9.134  -3.514  1.00  0.00     0.078 C 
HETATM   30  C12 UNL     1      17.551   9.364  -3.792  1.00  0.00     0.014 C 
HETATM   31  C13 UNL     1      17.655   9.832  -5.226  1.00  0.00     0.001 C 
HETATM   32  C14 UNL     1      16.296   9.548  -5.838  1.00  0.00     0.001 C 
HETATM   33  C15 UNL     1      15.582   8.645  -4.845  1.00  0.00     0.014 C 
ENDBRANCH  26  29
ENDBRANCH  24  25
ENDBRANCH  23  24
ENDBRANCH   7  23
TORSDOF 8
ENDMDL
MODEL 5
REMARK VINA RESULT: -9.321353000      1.739      9.748
REMARK  8 active torsions:
REMARK  status: ('A' for Active; 'I' for Inactive)
REMARK    1  A    between atoms: C1_2  and  C2_3 
REMARK       I    between atoms: C1_2  and  N4_26 
REMARK    2  A    between atoms: C2_3  and  C3_4 
REMARK    3  A    between atoms: C3_4  and  C4_5 
REMARK       I    between atoms: C4_5  and  N1_7 
REMARK       I    between atoms: N2_10  and  C7_11 
REMARK    4  A    between atoms: C7_11  and  C8_13 
REMARK    5  A    between atoms: C8_13  and  C9_14 
REMARK    6  A    between atoms: C9_14  and  N3_15 
REMARK       I    between atoms: N3_15  and  C10_17 
REMARK    7  A    between atoms: C10_17  and  C11_19 
REMARK    8  A    between atoms: N4_26  and  C18_28 
ROOT
HETATM    1  C4  UNL     1      11.613   9.775   0.359  1.00  0.00     0.220 C 
HETATM    2  O2  UNL     1      11.399  10.797  -0.343  1.00  0.00    -0.273 OA
HETATM    3  N1  UNL     1      12.923   9.555   0.844  1.00  0.00    -0.349 N 
HETATM    4  C5  UNL     1      13.266   8.406   1.658  1.00  0.00     0.145 C 
HETATM    5  C6  UNL     1      14.630   7.861   1.393  1.00  0.00     0.145 C 
HETATM    6  N2  UNL     1      15.601   8.885   1.070  1.00  0.00    -0.349 N 
HETATM    7  C7  UNL     1      16.876   8.493   0.593  1.00  0.00     0.221 C 
HETATM    8  O3  UNL     1      17.208   7.296   0.435  1.00  0.00    -0.273 OA
HETATM    9  C16 UNL     1      15.245  10.271   1.244  1.00  0.00     0.145 C 
HETATM   10  C17 UNL     1      13.956  10.510   0.518  1.00  0.00     0.145 C 
ENDROOT
BRANCH   1  11
HETATM   11  C3  UNL     1      10.496   8.833   0.656  1.00  0.00     0.112 C 
BRANCH  11  12
HETATM   12  C2  UNL     1       9.155   9.529   0.541  1.00  0.00     0.112 C 
BRANCH  12  13
HETATM   13  C1  UNL     1       8.272   9.216   1.683  1.00  0.00     0.218 C 
HETATM   14  O1  UNL     1       8.488   8.206   2.397  1.00  0.00    -0.274 OA
HETATM   15  N4  UNL     1       7.184  10.045   1.982  1.00  0.00    -0.356 N 
ATOM     16  H4  UNL     1       7.025  10.861   1.389  1.00  0.00     0.162 HD
BRANCH  15  17
HETATM   17  C18 UNL     1       6.267   9.815   3.082  1.00  0.00     0.084 C 
HETATM   18  C19 UNL     1       6.769  10.476   4.359  1.00  0.00     0.025 C 
HETATM   19  C20 UNL     1       5.624  10.633   5.304  1.00  0.00     0.002 C 
HETATM   20  C21 UNL     1       4.518   9.628   5.088  1.00  0.00     0.000 C 
HETATM   21  C22 UNL     1       3.910   9.747   3.712  1.00  0.00     0.002 C 
HETATM   22  C23 UNL     1       4.901  10.418   2.790  1.00  0.00     0.025 C 
ENDBRANCH  15  17
ENDBRANCH  12  13
ENDBRANCH  11  12
ENDBRANCH   1  11
BRANCH   7  23
HETATM   23  C8  UNL     1      17.908   9.533   0.247  1.00  0.00     0.122 C 
BRANCH  23  24
HETATM   24  C9  UNL     1      18.176   9.557  -1.231  1.00  0.00     0.132 C 
BRANCH  24  25
HETATM   25  N3  UNL     1      17.069   9.154  -2.046  1.00  0.00    -0.360 N 
HETATM   26  C10 UNL     1      16.138  10.050  -2.608  1.00  0.00     0.221 C 
HETATM   27  O4  UNL     1      16.232  11.280  -2.417  1.00  0.00    -0.273 OA
ATOM     28  H3  UNL     1      16.947   8.158  -2.232  1.00  0.00     0.162 HD
BRANCH  26  29
HETATM   29  C11 UNL     1      14.997   9.590  -3.456  1.00  0.00     0.078 C 
HETATM   30  C12 UNL     1      15.366   8.370  -4.245  1.00  0.00     0.014 C 
HETATM   31  C13 UNL     1      16.053   8.852  -5.502  1.00  0.00     0.001 C 
HETATM   32  C14 UNL     1      15.772  10.342  -5.565  1.00  0.00     0.001 C 
HETATM   33  C15 UNL     1      14.682  10.595  -4.535  1.00  0.00     0.014 C 
ENDBRANCH  26  29
ENDBRANCH  24  25
ENDBRANCH  23  24
ENDBRANCH   7  23
TORSDOF 8
ENDMDL
