MODEL 1
REMARK VINA RESULT: -10.217574411      0.000      0.000
REMARK  10 active torsions:
REMARK  status: ('A' for Active; 'I' for Inactive)
REMARK    1  A    between atoms: C5_6  and  C6_7 
REMARK    2  A    between atoms: C6_7  and  N1_8 
REMARK    3  A    between atoms: C7_10  and  C8_11 
REMARK    4  A    between atoms: C7_10  and  N4_29 
REMARK    5  A    between atoms: C8_11  and  C9_12 
REMARK    6  A    between atoms: C9_12  and  C10_13 
REMARK    7  A    between atoms: C10_13  and  C11_14 
REMARK    8  A    between atoms: C11_14  and  N2_15 
REMARK       I    between atoms: N2_15  and  C12_17 
REMARK    9  A    between atoms: C12_17  and  C13_19 
REMARK       I    between atoms: C13_19  and  N3_21 
REMARK   10  A    between atoms: N3_21  and  C14_23 
ROOT
HETATM    1  C8  UNL     1      15.220   9.549  -0.307  1.00  0.00     0.076 C 
ENDROOT
BRANCH   1   2
HETATM    2  C7  UNL     1      15.559  10.781  -1.077  1.00  0.00     0.081 C 
HETATM    3  N1  UNL     1      16.532  10.701  -1.914  1.00  0.00    -0.379 N 
ATOM      4  H1  UNL     1      16.788  11.528  -2.454  1.00  0.00     0.160 HD
BRANCH   3   5
HETATM    5  C6  UNL     1      17.272   9.478  -2.114  1.00  0.00     0.125 C 
BRANCH   5   6
HETATM    6  C5  UNL     1      17.128   8.927  -3.496  1.00  0.00     0.006 C 
HETATM    7  C4  UNL     1      15.747   8.311  -3.752  1.00  0.00     0.009 C 
HETATM    8  C3  UNL     1      15.678   8.340  -5.294  1.00  0.00     0.043 C 
HETATM    9  C2  UNL     1      16.205   9.732  -5.529  1.00  0.00     0.100 C 
HETATM   10  C1  UNL     1      16.580   9.936  -6.989  1.00  0.00     0.051 C 
HETATM   11  F1  UNL     1      15.169  10.595  -5.254  1.00  0.00    -0.243 F 
HETATM   12  C24 UNL     1      17.361   9.871  -4.615  1.00  0.00     0.049 C 
ENDBRANCH   5   6
ENDBRANCH   3   5
BRANCH   2  13
HETATM   13  N4  UNL     1      14.805  11.957  -0.875  1.00  0.00    -0.307 N 
HETATM   14  C20 UNL     1      13.452  12.084  -0.361  1.00  0.00     0.133 C 
HETATM   15  C21 UNL     1      13.422  13.521   0.191  1.00  0.00     0.029 C 
HETATM   16  C22 UNL     1      14.221  14.220  -0.878  1.00  0.00     0.105 C 
HETATM   17  C23 UNL     1      15.309  13.264  -1.163  1.00  0.00     0.225 C 
HETATM   18  O3  UNL     1      16.442  13.613  -1.579  1.00  0.00    -0.273 OA
ENDBRANCH   2  13
ENDBRANCH   1   2
BRANCH   1  19
HETATM   19  C9  UNL     1      15.694   9.705   1.094  1.00  0.00     0.009 C 
BRANCH  19  20
HETATM   20  C10 UNL     1      14.575   9.281   2.046  1.00  0.00     0.020 C 
BRANCH  20  21
HETATM   21  C11 UNL     1      13.978   7.964   1.694  1.00  0.00     0.123 C 
BRANCH  21  22
HETATM   22  N2  UNL     1      12.544   8.026   1.751  1.00  0.00    -0.353 N 
HETATM   23  C12 UNL     1      11.843   7.832   2.956  1.00  0.00     0.309 C 
HETATM   24  O1  UNL     1      12.384   7.592   4.063  1.00  0.00    -0.262 OA
ATOM     25  H2  UNL     1      12.021   8.217   0.897  1.00  0.00     0.162 HD
BRANCH  23  26
HETATM   26  C13 UNL     1      10.392   7.911   2.954  1.00  0.00     0.309 C 
HETATM   27  O2  UNL     1       9.743   7.155   2.196  1.00  0.00    -0.262 OA
HETATM   28  N3  UNL     1       9.719   8.822   3.792  1.00  0.00    -0.348 N 
ATOM     29  H3  UNL     1      10.255   9.435   4.406  1.00  0.00     0.163 HD
BRANCH  28  30
HETATM   30  C14 UNL     1       8.280   8.893   3.787  1.00  0.00     0.084 C 
HETATM   31  C15 UNL     1       7.682   9.071   5.151  1.00  0.00     0.025 C 
HETATM   32  C16 UNL     1       6.658  10.175   5.218  1.00  0.00     0.002 C 
HETATM   33  C17 UNL     1       5.715  10.204   4.055  1.00  0.00     0.000 C 
HETATM   34  C18 UNL     1       6.388   9.996   2.724  1.00  0.00     0.002 C 
HETATM   35  C19 UNL     1       7.887  10.071   2.884  1.00  0.00     0.025 C 
ENDBRANCH  28  30
ENDBRANCH  23  26
ENDBRANCH  21  22
ENDBRANCH  20  21
ENDBRANCH  19  20
ENDBRANCH   1  19
TORSDOF 10
ENDMDL
MODEL 2
REMARK VINA RESULT: -9.912826128      2.984      8.918
REMARK  10 active torsions:
REMARK  status: ('A' for Active; 'I' for Inactive)
REMARK    1  A    between atoms: C5_6  and  C6_7 
REMARK    2  A    between atoms: C6_7  and  N1_8 
REMARK    3  A    between atoms: C7_10  and  C8_11 
REMARK    4  A    between atoms: C7_10  and  N4_29 
REMARK    5  A    between atoms: C8_11  and  C9_12 
REMARK    6  A    between atoms: C9_12  and  C10_13 
REMARK    7  A    between atoms: C10_13  and  C11_14 
REMARK    8  A    between atoms: C11_14  and  N2_15 
REMARK       I    between atoms: N2_15  and  C12_17 
REMARK    9  A    between atoms: C12_17  and  C13_19 
REMARK       I    between atoms: C13_19  and  N3_21 
REMARK   10  A    between atoms: N3_21  and  C14_23 
ROOT
HETATM    1  C8  UNL     1      11.868   9.384   3.813  1.00  0.00     0.076 C 
ENDROOT
BRANCH   1   2
HETATM    2  C7  UNL     1      11.337   9.706   2.457  1.00  0.00     0.081 C 
HETATM    3  N1  UNL     1      10.411   8.945   1.992  1.00  0.00    -0.379 N 
ATOM      4  H1  UNL     1      10.030   9.139   1.066  1.00  0.00     0.160 HD
BRANCH   3   5
HETATM    5  C6  UNL     1       9.894   7.824   2.740  1.00  0.00     0.125 C 
BRANCH   5   6
HETATM    6  C5  UNL     1       8.509   8.053   3.253  1.00  0.00     0.006 C 
HETATM    7  C4  UNL     1       8.475   8.400   4.747  1.00  0.00     0.009 C 
HETATM    8  C3  UNL     1       7.102   9.095   4.870  1.00  0.00     0.043 C 
HETATM    9  C2  UNL     1       7.168   9.971   3.646  1.00  0.00     0.100 C 
HETATM   10  C1  UNL     1       5.798  10.536   3.303  1.00  0.00     0.051 C 
HETATM   11  F1  UNL     1       7.975  11.038   3.972  1.00  0.00    -0.243 F 
HETATM   12  C24 UNL     1       7.716   9.107   2.577  1.00  0.00     0.049 C 
ENDBRANCH   5   6
ENDBRANCH   3   5
BRANCH   2  13
HETATM   13  N4  UNL     1      11.849  10.820   1.756  1.00  0.00    -0.307 N 
HETATM   14  C20 UNL     1      12.503  12.001   2.294  1.00  0.00     0.133 C 
HETATM   15  C21 UNL     1      13.341  12.507   1.106  1.00  0.00     0.029 C 
HETATM   16  C22 UNL     1      12.369  12.250  -0.018  1.00  0.00     0.105 C 
HETATM   17  C23 UNL     1      11.791  10.937   0.333  1.00  0.00     0.225 C 
HETATM   18  O3  UNL     1      11.352  10.129  -0.522  1.00  0.00    -0.273 OA
ENDBRANCH   2  13
ENDBRANCH   1   2
BRANCH   1  19
HETATM   19  C9  UNL     1      13.292   8.974   3.694  1.00  0.00     0.009 C 
BRANCH  19  20
HETATM   20  C10 UNL     1      13.400   7.470   3.951  1.00  0.00     0.020 C 
BRANCH  20  21
HETATM   21  C11 UNL     1      14.146   6.749   2.884  1.00  0.00     0.123 C 
BRANCH  21  22
HETATM   22  N2  UNL     1      14.257   7.561   1.705  1.00  0.00    -0.353 N 
HETATM   23  C12 UNL     1      15.477   7.704   1.017  1.00  0.00     0.309 C 
HETATM   24  O1  UNL     1      16.553   7.154   1.356  1.00  0.00    -0.262 OA
ATOM     25  H2  UNL     1      13.430   8.047   1.357  1.00  0.00     0.162 HD
BRANCH  23  26
HETATM   26  C13 UNL     1      15.527   8.536  -0.173  1.00  0.00     0.309 C 
HETATM   27  O2  UNL     1      15.112   9.715  -0.109  1.00  0.00    -0.262 OA
HETATM   28  N3  UNL     1      16.037   8.029  -1.385  1.00  0.00    -0.348 N 
ATOM     29  H3  UNL     1      16.374   7.067  -1.430  1.00  0.00     0.163 HD
BRANCH  28  30
HETATM   30  C14 UNL     1      16.088   8.860  -2.561  1.00  0.00     0.084 C 
HETATM   31  C15 UNL     1      17.358   9.647  -2.687  1.00  0.00     0.025 C 
HETATM   32  C16 UNL     1      17.993   9.547  -4.051  1.00  0.00     0.002 C 
HETATM   33  C17 UNL     1      17.019   9.643  -5.186  1.00  0.00     0.000 C 
HETATM   34  C18 UNL     1      15.761   8.844  -4.974  1.00  0.00     0.002 C 
HETATM   35  C19 UNL     1      15.918   7.937  -3.777  1.00  0.00     0.025 C 
ENDBRANCH  28  30
ENDBRANCH  23  26
ENDBRANCH  21  22
ENDBRANCH  20  21
ENDBRANCH  19  20
ENDBRANCH   1  19
TORSDOF 10
ENDMDL
MODEL 3
REMARK VINA RESULT: -9.912025095      0.971      1.435
REMARK  10 active torsions:
REMARK  status: ('A' for Active; 'I' for Inactive)
REMARK    1  A    between atoms: C5_6  and  C6_7 
REMARK    2  A    between atoms: C6_7  and  N1_8 
REMARK    3  A    between atoms: C7_10  and  C8_11 
REMARK    4  A    between atoms: C7_10  and  N4_29 
REMARK    5  A    between atoms: C8_11  and  C9_12 
REMARK    6  A    between atoms: C9_12  and  C10_13 
REMARK    7  A    between atoms: C10_13  and  C11_14 
REMARK    8  A    between atoms: C11_14  and  N2_15 
REMARK       I    between atoms: N2_15  and  C12_17 
REMARK    9  A    between atoms: C12_17  and  C13_19 
REMARK       I    between atoms: C13_19  and  N3_21 
REMARK   10  A    between atoms: N3_21  and  C14_23 
ROOT
HETATM    1  C8  UNL     1      15.290   9.586  -0.265  1.00  0.00     0.076 C 
ENDROOT
BRANCH   1   2
HETATM    2  C7  UNL     1      15.581  10.805  -1.073  1.00  0.00     0.081 C 
HETATM    3  N1  UNL     1      16.525  10.721  -1.943  1.00  0.00    -0.379 N 
ATOM      4  H1  UNL     1      16.749  11.539  -2.509  1.00  0.00     0.160 HD
BRANCH   3   5
HETATM    5  C6  UNL     1      17.278   9.505  -2.142  1.00  0.00     0.125 C 
BRANCH   5   6
HETATM    6  C5  UNL     1      17.129   8.945  -3.519  1.00  0.00     0.006 C 
HETATM    7  C4  UNL     1      15.745   8.329  -3.767  1.00  0.00     0.009 C 
HETATM    8  C3  UNL     1      15.672   8.348  -5.309  1.00  0.00     0.043 C 
HETATM    9  C2  UNL     1      16.200   9.737  -5.555  1.00  0.00     0.100 C 
HETATM   10  C1  UNL     1      16.571   9.931  -7.017  1.00  0.00     0.051 C 
HETATM   11  F1  UNL     1      15.165  10.604  -5.282  1.00  0.00    -0.243 F 
HETATM   12  C24 UNL     1      17.359   9.881  -4.645  1.00  0.00     0.049 C 
ENDBRANCH   5   6
ENDBRANCH   3   5
BRANCH   2  13
HETATM   13  N4  UNL     1      14.816  11.974  -0.870  1.00  0.00    -0.307 N 
HETATM   14  C20 UNL     1      13.466  12.088  -0.346  1.00  0.00     0.133 C 
HETATM   15  C21 UNL     1      13.425  13.527   0.200  1.00  0.00     0.029 C 
HETATM   16  C22 UNL     1      14.208  14.231  -0.879  1.00  0.00     0.105 C 
HETATM   17  C23 UNL     1      15.304  13.284  -1.168  1.00  0.00     0.225 C 
HETATM   18  O3  UNL     1      16.429  13.644  -1.595  1.00  0.00    -0.273 OA
ENDBRANCH   2  13
ENDBRANCH   1   2
BRANCH   1  19
HETATM   19  C9  UNL     1      15.902   9.737   1.083  1.00  0.00     0.009 C 
BRANCH  19  20
HETATM   20  C10 UNL     1      15.022   9.025   2.111  1.00  0.00     0.020 C 
BRANCH  20  21
HETATM   21  C11 UNL     1      13.714   8.586   1.554  1.00  0.00     0.123 C 
BRANCH  21  22
HETATM   22  N2  UNL     1      12.632   9.281   2.193  1.00  0.00    -0.353 N 
HETATM   23  C12 UNL     1      11.287   8.939   1.951  1.00  0.00     0.309 C 
HETATM   24  O1  UNL     1      10.914   8.023   1.178  1.00  0.00    -0.262 OA
ATOM     25  H2  UNL     1      12.842  10.043   2.837  1.00  0.00     0.162 HD
BRANCH  23  26
HETATM   26  C13 UNL     1      10.234   9.677   2.629  1.00  0.00     0.309 C 
HETATM   27  O2  UNL     1      10.548  10.587   3.429  1.00  0.00    -0.262 OA
HETATM   28  N3  UNL     1       8.878   9.377   2.392  1.00  0.00    -0.348 N 
ATOM     29  H3  UNL     1       8.631   8.633   1.739  1.00  0.00     0.163 HD
BRANCH  28  30
HETATM   30  C14 UNL     1       7.839  10.113   3.064  1.00  0.00     0.084 C 
HETATM   31  C15 UNL     1       6.645  10.395   2.200  1.00  0.00     0.025 C 
HETATM   32  C16 UNL     1       5.334  10.050   2.858  1.00  0.00     0.002 C 
HETATM   33  C17 UNL     1       5.244  10.465   4.295  1.00  0.00     0.000 C 
HETATM   34  C18 UNL     1       6.488  10.169   5.090  1.00  0.00     0.002 C 
HETATM   35  C19 UNL     1       7.417   9.288   4.289  1.00  0.00     0.025 C 
ENDBRANCH  28  30
ENDBRANCH  23  26
ENDBRANCH  21  22
ENDBRANCH  20  21
ENDBRANCH  19  20
ENDBRANCH   1  19
TORSDOF 10
ENDMDL
MODEL 4
REMARK VINA RESULT: -9.838696868      1.064      1.441
REMARK  10 active torsions:
REMARK  status: ('A' for Active; 'I' for Inactive)
REMARK    1  A    between atoms: C5_6  and  C6_7 
REMARK    2  A    between atoms: C6_7  and  N1_8 
REMARK    3  A    between atoms: C7_10  and  C8_11 
REMARK    4  A    between atoms: C7_10  and  N4_29 
REMARK    5  A    between atoms: C8_11  and  C9_12 
REMARK    6  A    between atoms: C9_12  and  C10_13 
REMARK    7  A    between atoms: C10_13  and  C11_14 
REMARK    8  A    between atoms: C11_14  and  N2_15 
REMARK       I    between atoms: N2_15  and  C12_17 
REMARK    9  A    between atoms: C12_17  and  C13_19 
REMARK       I    between atoms: C13_19  and  N3_21 
REMARK   10  A    between atoms: N3_21  and  C14_23 
ROOT
HETATM    1  C8  UNL     1      15.265   9.593  -0.228  1.00  0.00     0.076 C 
ENDROOT
BRANCH   1   2
HETATM    2  C7  UNL     1      15.563  10.813  -1.031  1.00  0.00     0.081 C 
HETATM    3  N1  UNL     1      16.519  10.734  -1.887  1.00  0.00    -0.379 N 
ATOM      4  H1  UNL     1      16.748  11.553  -2.450  1.00  0.00     0.160 HD
BRANCH   3   5
HETATM    5  C6  UNL     1      17.279   9.521  -2.077  1.00  0.00     0.125 C 
BRANCH   5   6
HETATM    6  C5  UNL     1      17.130   8.947  -3.449  1.00  0.00     0.006 C 
HETATM    7  C4  UNL     1      15.746   8.331  -3.693  1.00  0.00     0.009 C 
HETATM    8  C3  UNL     1      15.675   8.336  -5.235  1.00  0.00     0.043 C 
HETATM    9  C2  UNL     1      16.206   9.721  -5.494  1.00  0.00     0.100 C 
HETATM   10  C1  UNL     1      16.580   9.900  -6.957  1.00  0.00     0.051 C 
HETATM   11  F1  UNL     1      15.173  10.593  -5.231  1.00  0.00    -0.243 F 
HETATM   12  C24 UNL     1      17.364   9.871  -4.584  1.00  0.00     0.049 C 
ENDBRANCH   5   6
ENDBRANCH   3   5
BRANCH   2  13
HETATM   13  N4  UNL     1      14.791  11.980  -0.838  1.00  0.00    -0.307 N 
HETATM   14  C20 UNL     1      13.438  12.090  -0.321  1.00  0.00     0.133 C 
HETATM   15  C21 UNL     1      13.387  13.531   0.218  1.00  0.00     0.029 C 
HETATM   16  C22 UNL     1      14.172  14.234  -0.861  1.00  0.00     0.105 C 
HETATM   17  C23 UNL     1      15.274  13.291  -1.140  1.00  0.00     0.225 C 
HETATM   18  O3  UNL     1      16.400  13.654  -1.563  1.00  0.00    -0.273 OA
ENDBRANCH   2  13
ENDBRANCH   1   2
BRANCH   1  19
HETATM   19  C9  UNL     1      15.862   9.743   1.126  1.00  0.00     0.009 C 
BRANCH  19  20
HETATM   20  C10 UNL     1      15.702   8.427   1.888  1.00  0.00     0.020 C 
BRANCH  20  21
HETATM   21  C11 UNL     1      15.208   8.615   3.279  1.00  0.00     0.123 C 
BRANCH  21  22
HETATM   22  N2  UNL     1      13.971   9.345   3.283  1.00  0.00    -0.353 N 
HETATM   23  C12 UNL     1      12.782   8.784   3.787  1.00  0.00     0.309 C 
HETATM   24  O1  UNL     1      12.689   7.628   4.266  1.00  0.00    -0.262 OA
ATOM     25  H2  UNL     1      13.954  10.295   2.911  1.00  0.00     0.162 HD
BRANCH  23  26
HETATM   26  C13 UNL     1      11.562   9.573   3.768  1.00  0.00     0.309 C 
HETATM   27  O2  UNL     1      11.598  10.738   3.315  1.00  0.00    -0.262 OA
HETATM   28  N3  UNL     1      10.351   9.036   4.250  1.00  0.00    -0.348 N 
ATOM     29  H3  UNL     1      10.330   8.084   4.618  1.00  0.00     0.163 HD
BRANCH  28  30
HETATM   30  C14 UNL     1       9.143   9.821   4.225  1.00  0.00     0.084 C 
HETATM   31  C15 UNL     1       8.438   9.800   2.901  1.00  0.00     0.025 C 
HETATM   32  C16 UNL     1       6.963   9.511   3.011  1.00  0.00     0.002 C 
HETATM   33  C17 UNL     1       6.281  10.235   4.132  1.00  0.00     0.000 C 
HETATM   34  C18 UNL     1       7.061  10.231   5.420  1.00  0.00     0.002 C 
HETATM   35  C19 UNL     1       8.220   9.268   5.321  1.00  0.00     0.025 C 
ENDBRANCH  28  30
ENDBRANCH  23  26
ENDBRANCH  21  22
ENDBRANCH  20  21
ENDBRANCH  19  20
ENDBRANCH   1  19
TORSDOF 10
ENDMDL
MODEL 5
REMARK VINA RESULT: -9.802379152      2.203      3.356
REMARK  10 active torsions:
REMARK  status: ('A' for Active; 'I' for Inactive)
REMARK    1  A    between atoms: C5_6  and  C6_7 
REMARK    2  A    between atoms: C6_7  and  N1_8 
REMARK    3  A    between atoms: C7_10  and  C8_11 
REMARK    4  A    between atoms: C7_10  and  N4_29 
REMARK    5  A    between atoms: C8_11  and  C9_12 
REMARK    6  A    between atoms: C9_12  and  C10_13 
REMARK    7  A    between atoms: C10_13  and  C11_14 
REMARK    8  A    between atoms: C11_14  and  N2_15 
REMARK       I    between atoms: N2_15  and  C12_17 
REMARK    9  A    between atoms: C12_17  and  C13_19 
REMARK       I    between atoms: C13_19  and  N3_21 
REMARK   10  A    between atoms: N3_21  and  C14_23 
ROOT
HETATM    1  C8  UNL     1      14.843  11.061   0.332  1.00  0.00     0.076 C 
ENDROOT
BRANCH   1   2
HETATM    2  C7  UNL     1      15.443   9.722   0.065  1.00  0.00     0.081 C 
HETATM    3  N1  UNL     1      15.405   9.293  -1.147  1.00  0.00    -0.379 N 
ATOM      4  H1  UNL     1      15.806   8.380  -1.361  1.00  0.00     0.160 HD
BRANCH   3   5
HETATM    5  C6  UNL     1      14.814  10.065  -2.215  1.00  0.00     0.125 C 
BRANCH   5   6
HETATM    6  C5  UNL     1      15.781  10.385  -3.308  1.00  0.00     0.006 C 
HETATM    7  C4  UNL     1      16.992   9.443  -3.330  1.00  0.00     0.009 C 
HETATM    8  C3  UNL     1      17.490   9.617  -4.781  1.00  0.00     0.043 C 
HETATM    9  C2  UNL     1      16.166   9.552  -5.497  1.00  0.00     0.100 C 
HETATM   10  C1  UNL     1      16.295  10.038  -6.932  1.00  0.00     0.051 C 
HETATM   11  F1  UNL     1      15.815   8.222  -5.551  1.00  0.00    -0.243 F 
HETATM   12  C24 UNL     1      15.245  10.384  -4.690  1.00  0.00     0.049 C 
ENDBRANCH   5   6
ENDBRANCH   3   5
BRANCH   2  13
HETATM   13  N4  UNL     1      16.032   8.999   1.125  1.00  0.00    -0.307 N 
HETATM   14  C20 UNL     1      16.967   9.474   2.130  1.00  0.00     0.133 C 
HETATM   15  C21 UNL     1      16.759   8.487   3.293  1.00  0.00     0.029 C 
HETATM   16  C22 UNL     1      16.596   7.207   2.514  1.00  0.00     0.105 C 
HETATM   17  C23 UNL     1      15.761   7.616   1.367  1.00  0.00     0.225 C 
HETATM   18  O3  UNL     1      14.982   6.834   0.769  1.00  0.00    -0.273 OA
ENDBRANCH   2  13
ENDBRANCH   1   2
BRANCH   1  19
HETATM   19  C9  UNL     1      13.672  10.899   1.235  1.00  0.00     0.009 C 
BRANCH  19  20
HETATM   20  C10 UNL     1      12.432  11.470   0.548  1.00  0.00     0.020 C 
BRANCH  20  21
HETATM   21  C11 UNL     1      11.635  10.438  -0.170  1.00  0.00     0.123 C 
BRANCH  21  22
HETATM   22  N2  UNL     1      10.448  10.109   0.570  1.00  0.00    -0.353 N 
HETATM   23  C12 UNL     1      10.372   8.952   1.369  1.00  0.00     0.309 C 
HETATM   24  O1  UNL     1      11.302   8.121   1.509  1.00  0.00    -0.262 OA
ATOM     25  H2  UNL     1       9.641  10.729   0.514  1.00  0.00     0.162 HD
BRANCH  23  26
HETATM   26  C13 UNL     1       9.145   8.673   2.097  1.00  0.00     0.309 C 
HETATM   27  O2  UNL     1       8.923   7.506   2.490  1.00  0.00    -0.262 OA
HETATM   28  N3  UNL     1       8.217   9.700   2.363  1.00  0.00    -0.348 N 
ATOM     29  H3  UNL     1       8.405  10.649   2.039  1.00  0.00     0.163 HD
BRANCH  28  30
HETATM   30  C14 UNL     1       7.004   9.418   3.088  1.00  0.00     0.084 C 
HETATM   31  C15 UNL     1       7.154   9.528   4.577  1.00  0.00     0.025 C 
HETATM   32  C16 UNL     1       6.074  10.351   5.229  1.00  0.00     0.002 C 
HETATM   33  C17 UNL     1       4.697  10.078   4.704  1.00  0.00     0.000 C 
HETATM   34  C18 UNL     1       4.633   9.960   3.204  1.00  0.00     0.002 C 
HETATM   35  C19 UNL     1       5.939  10.407   2.593  1.00  0.00     0.025 C 
ENDBRANCH  28  30
ENDBRANCH  23  26
ENDBRANCH  21  22
ENDBRANCH  20  21
ENDBRANCH  19  20
ENDBRANCH   1  19
TORSDOF 10
ENDMDL
