MODEL 1
REMARK VINA RESULT: -9.546235336      0.000      0.000
REMARK  8 active torsions:
REMARK  status: ('A' for Active; 'I' for Inactive)
REMARK       I    between atoms: N1_4  and  C4_6 
REMARK    1  A    between atoms: C4_6  and  C5_8 
REMARK       I    between atoms: N2_12  and  C9_13 
REMARK    2  A    between atoms: C9_13  and  C10_15 
REMARK    3  A    between atoms: C10_15  and  C11_16 
REMARK    4  A    between atoms: C10_15  and  N3_23 
REMARK    5  A    between atoms: C11_16  and  C12_17 
REMARK       I    between atoms: N3_23  and  C18_25 
REMARK    6  A    between atoms: C18_25  and  C19_27 
REMARK    7  A    between atoms: C19_27  and  N4_28 
REMARK       I    between atoms: N4_28  and  C20_30 
REMARK    8  A    between atoms: C20_30  and  C21_32 
ROOT
HETATM    1  C10 UNL     1      10.689   8.786   4.110  1.00  0.00     0.177 C 
ENDROOT
BRANCH   1   2
HETATM    2  C9  UNL     1      11.061   9.785   3.092  1.00  0.00     0.243 C 
HETATM    3  N2  UNL     1      11.044   9.655   1.704  1.00  0.00    -0.337 N 
HETATM    4  C5  UNL     1      11.455  10.665   0.755  1.00  0.00     0.179 C 
HETATM    5  C8  UNL     1      10.601   8.535   0.928  1.00  0.00     0.127 C 
HETATM    6  C6  UNL     1      10.408  10.567  -0.307  1.00  0.00     0.037 C 
HETATM    7  C7  UNL     1       9.740   9.216  -0.134  1.00  0.00     0.022 C 
HETATM    8  O2  UNL     1      11.450  10.924   3.560  1.00  0.00    -0.271 OA
BRANCH   4   9
HETATM    9  C4  UNL     1      12.822  10.433   0.247  1.00  0.00     0.244 C 
HETATM   10  N1  UNL     1      13.500  11.192  -0.706  1.00  0.00    -0.333 N 
HETATM   11  C2  UNL     1      13.797  12.424  -0.680  1.00  0.00    -0.018 C 
ATOM     12  H1  UNL     1      13.798  10.685  -1.539  1.00  0.00     0.168 HD
HETATM   13  C1  UNL     1      14.542  12.946  -1.882  1.00  0.00     0.062 C 
HETATM   14  C3  UNL     1      13.469  13.360   0.420  1.00  0.00     0.062 C 
HETATM   15  O1  UNL     1      13.457   9.429   0.730  1.00  0.00    -0.271 OA
ENDBRANCH   4   9
ENDBRANCH   1   2
BRANCH   1  16
HETATM   16  C11 UNL     1       9.468   7.984   3.766  1.00  0.00     0.039 C 
BRANCH  16  17
HETATM   17  C12 UNL     1       8.146   8.561   4.014  1.00  0.00    -0.012 C 
HETATM   18  C13 UNL     1       7.678   9.647   3.108  1.00  0.00     0.005 C 
HETATM   19  C14 UNL     1       6.179   9.821   3.380  1.00  0.00     0.000 C 
HETATM   20  C15 UNL     1       6.018  10.329   4.788  1.00  0.00     0.000 C 
HETATM   21  C16 UNL     1       7.344  10.429   5.496  1.00  0.00     0.000 C 
HETATM   22  C17 UNL     1       8.160   9.161   5.430  1.00  0.00     0.005 C 
ENDBRANCH  16  17
ENDBRANCH   1  16
BRANCH   1  23
HETATM   23  N3  UNL     1      11.779   7.773   4.096  1.00  0.00    -0.346 N 
HETATM   24  C18 UNL     1      12.951   7.976   4.854  1.00  0.00     0.236 C 
HETATM   25  O3  UNL     1      13.073   9.019   5.547  1.00  0.00    -0.272 OA
ATOM     26  H3  UNL     1      11.678   6.928   3.534  1.00  0.00     0.163 HD
BRANCH  24  27
HETATM   27  C19 UNL     1      14.034   6.970   4.838  1.00  0.00     0.225 C 
BRANCH  27  28
HETATM   28  N4  UNL     1      15.260   7.432   4.264  1.00  0.00    -0.352 N 
HETATM   29  C20 UNL     1      15.697   7.119   2.952  1.00  0.00     0.222 C 
HETATM   30  O4  UNL     1      14.951   6.387   2.244  1.00  0.00    -0.273 OA
ATOM     31  H4  UNL     1      15.860   8.027   4.836  1.00  0.00     0.162 HD
BRANCH  29  32
HETATM   32  C21 UNL     1      16.986   7.624   2.413  1.00  0.00     0.078 A 
HETATM   33  C22 UNL     1      16.956   8.457   1.154  1.00  0.00     0.015 A 
HETATM   34  C23 UNL     1      17.298   9.075   2.465  1.00  0.00     0.015 A 
ENDBRANCH  29  32
ENDBRANCH  27  28
ENDBRANCH  24  27
ENDBRANCH   1  23
TORSDOF 8
ENDMDL
MODEL 2
REMARK VINA RESULT: -9.498889021      2.501      6.659
REMARK  8 active torsions:
REMARK  status: ('A' for Active; 'I' for Inactive)
REMARK       I    between atoms: N1_4  and  C4_6 
REMARK    1  A    between atoms: C4_6  and  C5_8 
REMARK       I    between atoms: N2_12  and  C9_13 
REMARK    2  A    between atoms: C9_13  and  C10_15 
REMARK    3  A    between atoms: C10_15  and  C11_16 
REMARK    4  A    between atoms: C10_15  and  N3_23 
REMARK    5  A    between atoms: C11_16  and  C12_17 
REMARK       I    between atoms: N3_23  and  C18_25 
REMARK    6  A    between atoms: C18_25  and  C19_27 
REMARK    7  A    between atoms: C19_27  and  N4_28 
REMARK       I    between atoms: N4_28  and  C20_30 
REMARK    8  A    between atoms: C20_30  and  C21_32 
ROOT
HETATM    1  C10 UNL     1      12.414   9.362   2.366  1.00  0.00     0.177 C 
ENDROOT
BRANCH   1   2
HETATM    2  C9  UNL     1      11.085   9.786   2.841  1.00  0.00     0.243 C 
HETATM    3  N2  UNL     1       9.911   9.038   2.912  1.00  0.00    -0.337 N 
HETATM    4  C5  UNL     1       8.624   9.522   3.357  1.00  0.00     0.179 C 
HETATM    5  C8  UNL     1       9.727   7.652   2.596  1.00  0.00     0.127 C 
HETATM    6  C6  UNL     1       8.115   8.391   4.191  1.00  0.00     0.037 C 
HETATM    7  C7  UNL     1       8.917   7.166   3.796  1.00  0.00     0.022 C 
HETATM    8  O2  UNL     1      11.013  11.012   3.242  1.00  0.00    -0.271 OA
BRANCH   4   9
HETATM    9  C4  UNL     1       7.733   9.862   2.231  1.00  0.00     0.244 C 
HETATM   10  N1  UNL     1       6.355   9.661   2.164  1.00  0.00    -0.333 N 
HETATM   11  C2  UNL     1       5.446  10.111   2.925  1.00  0.00    -0.018 C 
ATOM     12  H1  UNL     1       6.034   9.070   1.398  1.00  0.00     0.168 HD
HETATM   13  C1  UNL     1       4.037   9.702   2.577  1.00  0.00     0.062 C 
HETATM   14  C3  UNL     1       5.668  10.986   4.099  1.00  0.00     0.062 C 
HETATM   15  O1  UNL     1       8.279  10.400   1.202  1.00  0.00    -0.271 OA
ENDBRANCH   4   9
ENDBRANCH   1   2
BRANCH   1  16
HETATM   16  C11 UNL     1      12.609   7.874   2.334  1.00  0.00     0.039 C 
BRANCH  16  17
HETATM   17  C12 UNL     1      13.696   7.283   3.117  1.00  0.00    -0.012 C 
HETATM   18  C13 UNL     1      14.269   8.088   4.232  1.00  0.00     0.005 C 
HETATM   19  C14 UNL     1      15.125   7.126   5.064  1.00  0.00     0.000 C 
HETATM   20  C15 UNL     1      16.282   6.677   4.213  1.00  0.00     0.000 C 
HETATM   21  C16 UNL     1      16.194   7.239   2.818  1.00  0.00     0.000 C 
HETATM   22  C17 UNL     1      14.859   6.997   2.154  1.00  0.00     0.005 C 
ENDBRANCH  16  17
ENDBRANCH   1  16
BRANCH   1  23
HETATM   23  N3  UNL     1      12.468   9.745   0.929  1.00  0.00    -0.346 N 
HETATM   24  C18 UNL     1      13.645  10.298   0.382  1.00  0.00     0.236 C 
HETATM   25  O3  UNL     1      14.654  10.466   1.114  1.00  0.00    -0.272 OA
ATOM     26  H3  UNL     1      11.649   9.607   0.337  1.00  0.00     0.163 HD
BRANCH  24  27
HETATM   27  C19 UNL     1      13.697  10.679  -1.045  1.00  0.00     0.225 C 
BRANCH  27  28
HETATM   28  N4  UNL     1      14.679   9.972  -1.809  1.00  0.00    -0.352 N 
HETATM   29  C20 UNL     1      14.956  10.217  -3.178  1.00  0.00     0.222 C 
HETATM   30  O4  UNL     1      14.294  11.123  -3.758  1.00  0.00    -0.273 OA
ATOM     31  H4  UNL     1      15.215   9.243  -1.338  1.00  0.00     0.162 HD
BRANCH  29  32
HETATM   32  C21 UNL     1      15.984   9.444  -3.920  1.00  0.00     0.078 A 
HETATM   33  C22 UNL     1      15.541   8.224  -4.693  1.00  0.00     0.015 A 
HETATM   34  C23 UNL     1      15.993   9.451  -5.406  1.00  0.00     0.015 A 
ENDBRANCH  29  32
ENDBRANCH  27  28
ENDBRANCH  24  27
ENDBRANCH   1  23
TORSDOF 8
ENDMDL
MODEL 3
REMARK VINA RESULT: -9.406404995      2.013      6.716
REMARK  8 active torsions:
REMARK  status: ('A' for Active; 'I' for Inactive)
REMARK       I    between atoms: N1_4  and  C4_6 
REMARK    1  A    between atoms: C4_6  and  C5_8 
REMARK       I    between atoms: N2_12  and  C9_13 
REMARK    2  A    between atoms: C9_13  and  C10_15 
REMARK    3  A    between atoms: C10_15  and  C11_16 
REMARK    4  A    between atoms: C10_15  and  N3_23 
REMARK    5  A    between atoms: C11_16  and  C12_17 
REMARK       I    between atoms: N3_23  and  C18_25 
REMARK    6  A    between atoms: C18_25  and  C19_27 
REMARK    7  A    between atoms: C19_27  and  N4_28 
REMARK       I    between atoms: N4_28  and  C20_30 
REMARK    8  A    between atoms: C20_30  and  C21_32 
ROOT
HETATM    1  C10 UNL     1      11.789   8.986   4.206  1.00  0.00     0.177 C 
ENDROOT
BRANCH   1   2
HETATM    2  C9  UNL     1      12.250   9.867   3.117  1.00  0.00     0.243 C 
HETATM    3  N2  UNL     1      12.047   9.727   1.745  1.00  0.00    -0.337 N 
HETATM    4  C5  UNL     1      12.556  10.609   0.720  1.00  0.00     0.179 C 
HETATM    5  C8  UNL     1      11.286   8.721   1.064  1.00  0.00     0.127 C 
HETATM    6  C6  UNL     1      11.397  10.730  -0.217  1.00  0.00     0.037 C 
HETATM    7  C7  UNL     1      10.477   9.561   0.077  1.00  0.00     0.022 C 
HETATM    8  O2  UNL     1      12.927  10.899   3.498  1.00  0.00    -0.271 OA
BRANCH   4   9
HETATM    9  C4  UNL     1      13.772  10.077   0.076  1.00  0.00     0.244 C 
HETATM   10  N1  UNL     1      14.157  10.247  -1.253  1.00  0.00    -0.333 N 
HETATM   11  C2  UNL     1      14.379  11.323  -1.888  1.00  0.00    -0.018 C 
ATOM     12  H1  UNL     1      14.277   9.388  -1.789  1.00  0.00     0.168 HD
HETATM   13  C1  UNL     1      14.783  11.162  -3.331  1.00  0.00     0.062 C 
HETATM   14  C3  UNL     1      14.269  12.687  -1.323  1.00  0.00     0.062 C 
HETATM   15  O1  UNL     1      14.562   9.384   0.811  1.00  0.00    -0.271 OA
ENDBRANCH   4   9
ENDBRANCH   1   2
BRANCH   1  16
HETATM   16  C11 UNL     1      12.822   8.721   5.261  1.00  0.00     0.039 C 
BRANCH  16  17
HETATM   17  C12 UNL     1      13.916   7.794   4.968  1.00  0.00    -0.012 C 
HETATM   18  C13 UNL     1      15.250   8.371   4.641  1.00  0.00     0.005 C 
HETATM   19  C14 UNL     1      16.251   7.212   4.710  1.00  0.00     0.000 C 
HETATM   20  C15 UNL     1      15.915   6.240   3.611  1.00  0.00     0.000 C 
HETATM   21  C16 UNL     1      14.682   6.664   2.855  1.00  0.00     0.000 C 
HETATM   22  C17 UNL     1      13.500   6.957   3.748  1.00  0.00     0.005 C 
ENDBRANCH  16  17
ENDBRANCH   1  16
BRANCH   1  23
HETATM   23  N3  UNL     1      10.747   9.761   4.933  1.00  0.00    -0.346 N 
HETATM   24  C18 UNL     1       9.384   9.605   4.607  1.00  0.00     0.236 C 
HETATM   25  O3  UNL     1       9.048   8.803   3.696  1.00  0.00    -0.272 OA
ATOM     26  H3  UNL     1      11.021  10.409   5.672  1.00  0.00     0.163 HD
BRANCH  24  27
HETATM   27  C19 UNL     1       8.350  10.375   5.329  1.00  0.00     0.225 C 
BRANCH  27  28
HETATM   28  N4  UNL     1       7.070   9.736   5.385  1.00  0.00    -0.352 N 
HETATM   29  C20 UNL     1       5.955  10.111   4.594  1.00  0.00     0.222 C 
HETATM   30  O4  UNL     1       6.104  11.069   3.784  1.00  0.00    -0.273 OA
ATOM     31  H4  UNL     1       6.953   8.960   6.036  1.00  0.00     0.162 HD
BRANCH  29  32
HETATM   32  C21 UNL     1       4.648   9.414   4.701  1.00  0.00     0.078 A 
HETATM   33  C22 UNL     1       3.573  10.038   5.559  1.00  0.00     0.015 A 
HETATM   34  C23 UNL     1       3.436  10.002   4.077  1.00  0.00     0.015 A 
ENDBRANCH  29  32
ENDBRANCH  27  28
ENDBRANCH  24  27
ENDBRANCH   1  23
TORSDOF 8
ENDMDL
MODEL 4
REMARK VINA RESULT: -9.333935653      2.817      6.543
REMARK  8 active torsions:
REMARK  status: ('A' for Active; 'I' for Inactive)
REMARK       I    between atoms: N1_4  and  C4_6 
REMARK    1  A    between atoms: C4_6  and  C5_8 
REMARK       I    between atoms: N2_12  and  C9_13 
REMARK    2  A    between atoms: C9_13  and  C10_15 
REMARK    3  A    between atoms: C10_15  and  C11_16 
REMARK    4  A    between atoms: C10_15  and  N3_23 
REMARK    5  A    between atoms: C11_16  and  C12_17 
REMARK       I    between atoms: N3_23  and  C18_25 
REMARK    6  A    between atoms: C18_25  and  C19_27 
REMARK    7  A    between atoms: C19_27  and  N4_28 
REMARK       I    between atoms: N4_28  and  C20_30 
REMARK    8  A    between atoms: C20_30  and  C21_32 
ROOT
HETATM    1  C10 UNL     1      12.407   9.467   1.698  1.00  0.00     0.177 C 
ENDROOT
BRANCH   1   2
HETATM    2  C9  UNL     1      11.033   9.977   1.854  1.00  0.00     0.243 C 
HETATM    3  N2  UNL     1      10.138   9.749   2.898  1.00  0.00    -0.337 N 
HETATM    4  C5  UNL     1       8.786  10.252   2.979  1.00  0.00     0.179 C 
HETATM    5  C8  UNL     1      10.361   9.011   4.106  1.00  0.00     0.127 C 
HETATM    6  C6  UNL     1       8.671  10.666   4.410  1.00  0.00     0.037 C 
HETATM    7  C7  UNL     1       9.783   9.956   5.158  1.00  0.00     0.022 C 
HETATM    8  O2  UNL     1      10.618  10.733   0.893  1.00  0.00    -0.271 OA
BRANCH   4   9
HETATM    9  C4  UNL     1       7.787   9.240   2.584  1.00  0.00     0.244 C 
HETATM   10  N1  UNL     1       6.480   9.475   2.161  1.00  0.00    -0.333 N 
HETATM   11  C2  UNL     1       6.071  10.158   1.174  1.00  0.00    -0.018 C 
ATOM     12  H1  UNL     1       5.751   9.037   2.725  1.00  0.00     0.168 HD
HETATM   13  C1  UNL     1       4.576  10.215   0.988  1.00  0.00     0.062 C 
HETATM   14  C3  UNL     1       6.939  10.883   0.218  1.00  0.00     0.062 C 
HETATM   15  O1  UNL     1       8.156   8.012   2.632  1.00  0.00    -0.271 OA
ENDBRANCH   4   9
ENDBRANCH   1   2
BRANCH   1  16
HETATM   16  C11 UNL     1      12.520   7.973   1.771  1.00  0.00     0.039 C 
BRANCH  16  17
HETATM   17  C12 UNL     1      13.485   7.377   2.697  1.00  0.00    -0.012 C 
HETATM   18  C13 UNL     1      13.927   8.194   3.862  1.00  0.00     0.005 C 
HETATM   19  C14 UNL     1      14.648   7.232   4.815  1.00  0.00     0.000 C 
HETATM   20  C15 UNL     1      15.894   6.744   4.127  1.00  0.00     0.000 C 
HETATM   21  C16 UNL     1      15.998   7.279   2.723  1.00  0.00     0.000 C 
HETATM   22  C17 UNL     1      14.755   7.049   1.897  1.00  0.00     0.005 C 
ENDBRANCH  16  17
ENDBRANCH   1  16
BRANCH   1  23
HETATM   23  N3  UNL     1      12.791   9.772   0.293  1.00  0.00    -0.346 N 
HETATM   24  C18 UNL     1      13.644  10.858   0.005  1.00  0.00     0.236 C 
HETATM   25  O3  UNL     1      14.085  11.571   0.945  1.00  0.00    -0.272 OA
ATOM     26  H3  UNL     1      12.434   9.193  -0.467  1.00  0.00     0.163 HD
BRANCH  24  27
HETATM   27  C19 UNL     1      14.023  11.160  -1.390  1.00  0.00     0.225 C 
BRANCH  27  28
HETATM   28  N4  UNL     1      14.844  10.163  -2.008  1.00  0.00    -0.352 N 
HETATM   29  C20 UNL     1      15.134  10.113  -3.394  1.00  0.00     0.222 C 
HETATM   30  O4  UNL     1      14.638  11.010  -4.132  1.00  0.00    -0.273 OA
ATOM     31  H4  UNL     1      15.248   9.441  -1.411  1.00  0.00     0.162 HD
BRANCH  29  32
HETATM   32  C21 UNL     1      15.989   9.048  -3.979  1.00  0.00     0.078 A 
HETATM   33  C22 UNL     1      15.312   7.868  -4.635  1.00  0.00     0.015 A 
HETATM   34  C23 UNL     1      16.053   8.868  -5.452  1.00  0.00     0.015 A 
ENDBRANCH  29  32
ENDBRANCH  27  28
ENDBRANCH  24  27
ENDBRANCH   1  23
TORSDOF 8
ENDMDL
MODEL 5
REMARK VINA RESULT: -9.168526955      2.740      6.435
REMARK  8 active torsions:
REMARK  status: ('A' for Active; 'I' for Inactive)
REMARK       I    between atoms: N1_4  and  C4_6 
REMARK    1  A    between atoms: C4_6  and  C5_8 
REMARK       I    between atoms: N2_12  and  C9_13 
REMARK    2  A    between atoms: C9_13  and  C10_15 
REMARK    3  A    between atoms: C10_15  and  C11_16 
REMARK    4  A    between atoms: C10_15  and  N3_23 
REMARK    5  A    between atoms: C11_16  and  C12_17 
REMARK       I    between atoms: N3_23  and  C18_25 
REMARK    6  A    between atoms: C18_25  and  C19_27 
REMARK    7  A    between atoms: C19_27  and  N4_28 
REMARK       I    between atoms: N4_28  and  C20_30 
REMARK    8  A    between atoms: C20_30  and  C21_32 
ROOT
HETATM    1  C10 UNL     1      12.318   9.576   1.578  1.00  0.00     0.177 C 
ENDROOT
BRANCH   1   2
HETATM    2  C9  UNL     1      10.939  10.051   1.797  1.00  0.00     0.243 C 
HETATM    3  N2  UNL     1      10.091   9.783   2.870  1.00  0.00    -0.337 N 
HETATM    4  C5  UNL     1       8.732  10.253   3.012  1.00  0.00     0.179 C 
HETATM    5  C8  UNL     1      10.376   9.025   4.053  1.00  0.00     0.127 C 
HETATM    6  C6  UNL     1       8.663  10.635   4.455  1.00  0.00     0.037 C 
HETATM    7  C7  UNL     1       9.819   9.936   5.145  1.00  0.00     0.022 C 
HETATM    8  O2  UNL     1      10.471  10.817   0.868  1.00  0.00    -0.271 OA
BRANCH   4   9
HETATM    9  C4  UNL     1       7.741   9.226   2.635  1.00  0.00     0.244 C 
HETATM   10  N1  UNL     1       6.421   9.441   2.243  1.00  0.00    -0.333 N 
HETATM   11  C2  UNL     1       5.979  10.122   1.268  1.00  0.00    -0.018 C 
ATOM     12  H1  UNL     1       5.712   8.989   2.820  1.00  0.00     0.168 HD
HETATM   13  C1  UNL     1       4.480  10.155   1.116  1.00  0.00     0.062 C 
HETATM   14  C3  UNL     1       6.814  10.865   0.296  1.00  0.00     0.062 C 
HETATM   15  O1  UNL     1       8.131   8.004   2.670  1.00  0.00    -0.271 OA
ENDBRANCH   4   9
ENDBRANCH   1   2
BRANCH   1  16
HETATM   16  C11 UNL     1      12.467   8.084   1.622  1.00  0.00     0.039 C 
BRANCH  16  17
HETATM   17  C12 UNL     1      13.462   7.496   2.521  1.00  0.00    -0.012 C 
HETATM   18  C13 UNL     1      13.940   8.321   3.666  1.00  0.00     0.005 C 
HETATM   19  C14 UNL     1      14.693   7.368   4.602  1.00  0.00     0.000 C 
HETATM   20  C15 UNL     1      15.917   6.876   3.878  1.00  0.00     0.000 C 
HETATM   21  C16 UNL     1      15.975   7.401   2.467  1.00  0.00     0.000 C 
HETATM   22  C17 UNL     1      14.707   7.164   1.683  1.00  0.00     0.005 C 
ENDBRANCH  16  17
ENDBRANCH   1  16
BRANCH   1  23
HETATM   23  N3  UNL     1      12.637   9.911   0.164  1.00  0.00    -0.346 N 
HETATM   24  C18 UNL     1      13.824  10.601  -0.156  1.00  0.00     0.236 C 
HETATM   25  O3  UNL     1      14.619  10.934   0.762  1.00  0.00    -0.272 OA
ATOM     26  H3  UNL     1      11.992   9.640  -0.579  1.00  0.00     0.163 HD
BRANCH  24  27
HETATM   27  C19 UNL     1      14.140  10.934  -1.561  1.00  0.00     0.225 C 
BRANCH  27  28
HETATM   28  N4  UNL     1      15.057  10.033  -2.189  1.00  0.00    -0.352 N 
HETATM   29  C20 UNL     1      16.415  10.336  -2.462  1.00  0.00     0.222 C 
HETATM   30  O4  UNL     1      16.842  11.475  -2.124  1.00  0.00    -0.273 OA
ATOM     31  H4  UNL     1      14.712   9.111  -2.457  1.00  0.00     0.162 HD
BRANCH  29  32
HETATM   32  C21 UNL     1      17.318   9.360  -3.123  1.00  0.00     0.078 A 
HETATM   33  C22 UNL     1      17.395   9.364  -4.631  1.00  0.00     0.015 A 
HETATM   34  C23 UNL     1      18.547   9.830  -3.812  1.00  0.00     0.015 A 
ENDBRANCH  29  32
ENDBRANCH  27  28
ENDBRANCH  24  27
ENDBRANCH   1  23
TORSDOF 8
ENDMDL
