MODEL 1
REMARK VINA RESULT: -7.353392996      0.000      0.000
REMARK  11 active torsions:
REMARK  status: ('A' for Active; 'I' for Inactive)
REMARK    1  A    between atoms: C2_2  and  C3_3 
REMARK    2  A    between atoms: C3_3  and  N1_4 
REMARK    3  A    between atoms: N1_4  and  C4_6 
REMARK    4  A    between atoms: C5_9  and  N3_10 
REMARK    5  A    between atoms: N3_10  and  C7_12 
REMARK    6  A    between atoms: C7_12  and  C8_13 
REMARK    7  A    between atoms: C8_13  and  C9_14 
REMARK    8  A    between atoms: C9_14  and  N4_15 
REMARK    9  A    between atoms: C9_14  and  C10_19 
REMARK   10  A    between atoms: C10_19  and  O1_20 
REMARK   11  A    between atoms: C12_24  and  N6_25 
ROOT
HETATM    1  C4  UNL     1      14.991  39.517  59.863  1.00  0.00     0.681 A 
HETATM    2  N2  UNL     1      14.100  39.062  60.761  1.00  0.00    -0.175 N 
ATOM      3  H2  UNL     1      13.309  39.657  61.003  1.00  0.00     0.186 HD
HETATM    4  C5  UNL     1      14.200  37.868  61.353  1.00  0.00     0.147 A 
HETATM    5  C11 UNL     1      15.259  37.062  61.034  1.00  0.00     0.135 A 
HETATM    6  N5  UNL     1      15.378  35.806  61.648  1.00  0.00    -0.094 NA
HETATM    7  C12 UNL     1      16.218  37.487  60.100  1.00  0.00     0.147 A 
HETATM    8  N7  UNL     1      16.030  38.703  59.562  1.00  0.00    -0.175 N 
ATOM      9  H7  UNL     1      16.714  39.035  58.882  1.00  0.00     0.186 HD
ENDROOT
BRANCH   4  10
HETATM   10  N3  UNL     1      13.177  37.505  62.322  1.00  0.00    -0.369 N 
HETATM   11  C6  UNL     1      13.563  37.474  63.707  1.00  0.00     0.151 C 
BRANCH  10  12
HETATM   12  C7  UNL     1      11.907  37.196  61.777  1.00  0.00     0.126 C 
BRANCH  12  13
HETATM   13  C8  UNL     1      10.695  37.320  62.606  1.00  0.00     0.055 C 
BRANCH  13  14
HETATM   14  C9  UNL     1       9.648  38.291  62.203  1.00  0.00     0.208 C 
BRANCH  14  15
HETATM   15  N4  UNL     1       8.653  37.551  61.402  1.00  0.00    -0.073 N 
ATOM     16  H43 UNL     1       9.006  36.662  61.048  1.00  0.00     0.274 HD
ATOM     17  H42 UNL     1       7.889  37.174  61.963  1.00  0.00     0.274 HD
ATOM     18  H41 UNL     1       8.336  38.178  60.663  1.00  0.00     0.274 HD
ENDBRANCH  14  15
BRANCH  14  19
HETATM   19  C10 UNL     1      10.188  39.373  61.306  1.00  0.00     0.197 C 
BRANCH  19  20
HETATM   20  O1  UNL     1       9.369  40.516  61.392  1.00  0.00    -0.399 OA
ATOM     21  H1  UNL     1       9.867  41.242  61.749  1.00  0.00     0.209 HD
ENDBRANCH  19  20
ENDBRANCH  14  19
ENDBRANCH  13  14
ENDBRANCH  12  13
ENDBRANCH  10  12
ENDBRANCH   4  10
BRANCH   1  22
HETATM   22  N1  UNL     1      14.881  40.699  59.301  1.00  0.00    -0.223 N 
ATOM     23  H1  UNL     1      13.995  41.201  59.230  1.00  0.00     0.178 HD
BRANCH  22  24
HETATM   24  C3  UNL     1      16.148  41.235  58.782  1.00  0.00     0.164 C 
BRANCH  24  25
HETATM   25  C2  UNL     1      16.467  42.552  59.333  1.00  0.00    -0.017 C 
HETATM   26  C1  UNL     1      15.721  43.113  60.269  1.00  0.00     0.008 C 
ENDBRANCH  24  25
ENDBRANCH  22  24
ENDBRANCH   1  22
BRANCH   7  27
HETATM   27  N6  UNL     1      17.317  36.655  59.754  1.00  0.00    -0.365 N 
HETATM   28  C13 UNL     1      18.373  36.515  60.709  1.00  0.00     0.124 C 
HETATM   29  C14 UNL     1      19.734  36.385  60.069  1.00  0.00     0.020 C 
HETATM   30  C15 UNL     1      19.753  35.421  58.924  1.00  0.00     0.003 C 
HETATM   31  C16 UNL     1      18.412  34.961  58.474  1.00  0.00     0.020 C 
HETATM   32  C17 UNL     1      17.339  35.997  58.470  1.00  0.00     0.124 C 
ENDBRANCH   7  27
TORSDOF 11
ENDMDL
MODEL 2
REMARK VINA RESULT: -7.183165886      0.946      4.247
REMARK  11 active torsions:
REMARK  status: ('A' for Active; 'I' for Inactive)
REMARK    1  A    between atoms: C2_2  and  C3_3 
REMARK    2  A    between atoms: C3_3  and  N1_4 
REMARK    3  A    between atoms: N1_4  and  C4_6 
REMARK    4  A    between atoms: C5_9  and  N3_10 
REMARK    5  A    between atoms: N3_10  and  C7_12 
REMARK    6  A    between atoms: C7_12  and  C8_13 
REMARK    7  A    between atoms: C8_13  and  C9_14 
REMARK    8  A    between atoms: C9_14  and  N4_15 
REMARK    9  A    between atoms: C9_14  and  C10_19 
REMARK   10  A    between atoms: C10_19  and  O1_20 
REMARK   11  A    between atoms: C12_24  and  N6_25 
ROOT
HETATM    1  C4  UNL     1      16.320  36.451  60.616  1.00  0.00     0.681 A 
HETATM    2  N2  UNL     1      15.213  36.392  61.376  1.00  0.00    -0.175 N 
ATOM      3  H2  UNL     1      15.011  35.523  61.870  1.00  0.00     0.186 HD
HETATM    4  C5  UNL     1      14.364  37.414  61.517  1.00  0.00     0.147 A 
HETATM    5  C11 UNL     1      14.627  38.584  60.858  1.00  0.00     0.135 A 
HETATM    6  N5  UNL     1      13.744  39.666  60.996  1.00  0.00    -0.094 NA
HETATM    7  C12 UNL     1      15.771  38.702  60.052  1.00  0.00     0.147 A 
HETATM    8  N7  UNL     1      16.562  37.619  59.974  1.00  0.00    -0.175 N 
ATOM      9  H7  UNL     1      17.398  37.680  59.393  1.00  0.00     0.186 HD
ENDROOT
BRANCH   4  10
HETATM   10  N3  UNL     1      13.191  37.209  62.355  1.00  0.00    -0.369 N 
HETATM   11  C6  UNL     1      13.409  37.050  63.766  1.00  0.00     0.151 C 
BRANCH  10  12
HETATM   12  C7  UNL     1      11.954  37.166  61.666  1.00  0.00     0.126 C 
BRANCH  12  13
HETATM   13  C8  UNL     1      10.688  37.126  62.420  1.00  0.00     0.055 C 
BRANCH  13  14
HETATM   14  C9  UNL     1       9.685  38.197  62.194  1.00  0.00     0.208 C 
BRANCH  14  15
HETATM   15  N4  UNL     1       8.573  37.597  61.432  1.00  0.00    -0.073 N 
ATOM     16  H43 UNL     1       8.866  37.205  60.537  1.00  0.00     0.274 HD
ATOM     17  H42 UNL     1       8.225  36.732  61.845  1.00  0.00     0.274 HD
ATOM     18  H41 UNL     1       7.853  38.313  61.337  1.00  0.00     0.274 HD
ENDBRANCH  14  15
BRANCH  14  19
HETATM   19  C10 UNL     1      10.226  39.313  61.341  1.00  0.00     0.197 C 
BRANCH  19  20
HETATM   20  O1  UNL     1       9.354  40.419  61.397  1.00  0.00    -0.399 OA
ATOM     21  H1  UNL     1       8.985  40.579  60.536  1.00  0.00     0.209 HD
ENDBRANCH  19  20
ENDBRANCH  14  19
ENDBRANCH  13  14
ENDBRANCH  12  13
ENDBRANCH  10  12
ENDBRANCH   4  10
BRANCH   1  22
HETATM   22  N1  UNL     1      17.137  35.432  60.482  1.00  0.00    -0.223 N 
ATOM     23  H1  UNL     1      17.187  34.667  61.156  1.00  0.00     0.178 HD
BRANCH  22  24
HETATM   24  C3  UNL     1      17.972  35.490  59.272  1.00  0.00     0.164 C 
BRANCH  24  25
HETATM   25  C2  UNL     1      19.397  35.337  59.567  1.00  0.00    -0.017 C 
HETATM   26  C1  UNL     1      20.149  36.367  59.915  1.00  0.00     0.008 C 
ENDBRANCH  24  25
ENDBRANCH  22  24
ENDBRANCH   1  22
BRANCH   7  27
HETATM   27  N6  UNL     1      16.060  39.916  59.371  1.00  0.00    -0.365 N 
HETATM   28  C13 UNL     1      16.883  39.843  58.203  1.00  0.00     0.124 C 
HETATM   29  C14 UNL     1      17.786  41.043  58.042  1.00  0.00     0.020 C 
HETATM   30  C15 UNL     1      17.079  42.342  58.266  1.00  0.00     0.003 C 
HETATM   31  C16 UNL     1      15.710  42.217  58.835  1.00  0.00     0.020 C 
HETATM   32  C17 UNL     1      15.533  41.161  59.874  1.00  0.00     0.124 C 
ENDBRANCH   7  27
TORSDOF 11
ENDMDL
MODEL 3
REMARK VINA RESULT: -6.820174359      4.040      7.156
REMARK  11 active torsions:
REMARK  status: ('A' for Active; 'I' for Inactive)
REMARK    1  A    between atoms: C2_2  and  C3_3 
REMARK    2  A    between atoms: C3_3  and  N1_4 
REMARK    3  A    between atoms: N1_4  and  C4_6 
REMARK    4  A    between atoms: C5_9  and  N3_10 
REMARK    5  A    between atoms: N3_10  and  C7_12 
REMARK    6  A    between atoms: C7_12  and  C8_13 
REMARK    7  A    between atoms: C8_13  and  C9_14 
REMARK    8  A    between atoms: C9_14  and  N4_15 
REMARK    9  A    between atoms: C9_14  and  C10_19 
REMARK   10  A    between atoms: C10_19  and  O1_20 
REMARK   11  A    between atoms: C12_24  and  N6_25 
ROOT
HETATM    1  C4  UNL     1      16.808  36.389  59.396  1.00  0.00     0.681 A 
HETATM    2  N2  UNL     1      16.576  35.693  58.270  1.00  0.00    -0.175 N 
ATOM      3  H2  UNL     1      15.640  35.319  58.116  1.00  0.00     0.186 HD
HETATM    4  C5  UNL     1      17.511  35.465  57.342  1.00  0.00     0.147 A 
HETATM    5  C11 UNL     1      18.770  35.963  57.540  1.00  0.00     0.135 A 
HETATM    6  N5  UNL     1      19.762  35.731  56.576  1.00  0.00    -0.094 NA
HETATM    7  C12 UNL     1      19.067  36.699  58.699  1.00  0.00     0.147 A 
HETATM    8  N7  UNL     1      18.061  36.873  59.571  1.00  0.00    -0.175 N 
ATOM      9  H7  UNL     1      18.252  37.403  60.421  1.00  0.00     0.186 HD
ENDROOT
BRANCH   4  10
HETATM   10  N3  UNL     1      17.131  34.679  56.178  1.00  0.00    -0.369 N 
HETATM   11  C6  UNL     1      17.479  33.284  56.183  1.00  0.00     0.151 C 
BRANCH  10  12
HETATM   12  C7  UNL     1      16.474  35.396  55.149  1.00  0.00     0.126 C 
BRANCH  12  13
HETATM   13  C8  UNL     1      16.902  35.242  53.747  1.00  0.00     0.055 C 
BRANCH  13  14
HETATM   14  C9  UNL     1      17.950  36.149  53.215  1.00  0.00     0.208 C 
BRANCH  14  15
HETATM   15  N4  UNL     1      19.255  35.520  53.500  1.00  0.00    -0.073 N 
ATOM     16  H43 UNL     1      19.537  34.845  52.789  1.00  0.00     0.274 HD
ATOM     17  H42 UNL     1      20.040  36.162  53.390  1.00  0.00     0.274 HD
ATOM     18  H41 UNL     1      19.196  35.115  54.434  1.00  0.00     0.274 HD
ENDBRANCH  14  15
BRANCH  14  19
HETATM   19  C10 UNL     1      17.963  37.480  53.918  1.00  0.00     0.197 C 
BRANCH  19  20
HETATM   20  O1  UNL     1      16.998  38.330  53.342  1.00  0.00    -0.399 OA
ATOM     21  H1  UNL     1      16.215  38.338  53.881  1.00  0.00     0.209 HD
ENDBRANCH  19  20
ENDBRANCH  14  19
ENDBRANCH  13  14
ENDBRANCH  12  13
ENDBRANCH  10  12
ENDBRANCH   4  10
BRANCH   1  22
HETATM   22  N1  UNL     1      15.879  36.593  60.301  1.00  0.00    -0.223 N 
ATOM     23  H1  UNL     1      14.890  36.698  60.070  1.00  0.00     0.178 HD
BRANCH  22  24
HETATM   24  C3  UNL     1      16.390  36.656  61.679  1.00  0.00     0.164 C 
BRANCH  24  25
HETATM   25  C2  UNL     1      15.661  37.620  62.504  1.00  0.00    -0.017 C 
HETATM   26  C1  UNL     1      14.752  38.430  61.987  1.00  0.00     0.008 C 
ENDBRANCH  24  25
ENDBRANCH  22  24
ENDBRANCH   1  22
BRANCH   7  27
HETATM   27  N6  UNL     1      20.369  37.229  58.911  1.00  0.00    -0.365 N 
HETATM   28  C13 UNL     1      21.297  36.435  59.655  1.00  0.00     0.124 C 
HETATM   29  C14 UNL     1      22.224  37.261  60.515  1.00  0.00     0.020 C 
HETATM   30  C15 UNL     1      22.799  38.438  59.792  1.00  0.00     0.003 C 
HETATM   31  C16 UNL     1      22.182  38.720  58.469  1.00  0.00     0.020 C 
HETATM   32  C17 UNL     1      20.704  38.531  58.389  1.00  0.00     0.124 C 
ENDBRANCH   7  27
TORSDOF 11
ENDMDL
MODEL 4
REMARK VINA RESULT: -6.802262548      1.966      2.325
REMARK  11 active torsions:
REMARK  status: ('A' for Active; 'I' for Inactive)
REMARK    1  A    between atoms: C2_2  and  C3_3 
REMARK    2  A    between atoms: C3_3  and  N1_4 
REMARK    3  A    between atoms: N1_4  and  C4_6 
REMARK    4  A    between atoms: C5_9  and  N3_10 
REMARK    5  A    between atoms: N3_10  and  C7_12 
REMARK    6  A    between atoms: C7_12  and  C8_13 
REMARK    7  A    between atoms: C8_13  and  C9_14 
REMARK    8  A    between atoms: C9_14  and  N4_15 
REMARK    9  A    between atoms: C9_14  and  C10_19 
REMARK   10  A    between atoms: C10_19  and  O1_20 
REMARK   11  A    between atoms: C12_24  and  N6_25 
ROOT
HETATM    1  C4  UNL     1      15.786  39.898  59.092  1.00  0.00     0.681 A 
HETATM    2  N2  UNL     1      15.236  39.167  60.077  1.00  0.00    -0.175 N 
ATOM      3  H2  UNL     1      14.458  39.567  60.601  1.00  0.00     0.186 HD
HETATM    4  C5  UNL     1      15.658  37.942  60.404  1.00  0.00     0.147 A 
HETATM    5  C11 UNL     1      16.701  37.397  59.707  1.00  0.00     0.135 A 
HETATM    6  N5  UNL     1      17.156  36.112  60.040  1.00  0.00    -0.094 NA
HETATM    7  C12 UNL     1      17.312  38.116  58.667  1.00  0.00     0.147 A 
HETATM    8  N7  UNL     1      16.817  39.339  58.415  1.00  0.00    -0.175 N 
ATOM      9  H7  UNL     1      17.244  39.882  57.665  1.00  0.00     0.186 HD
ENDROOT
BRANCH   4  10
HETATM   10  N3  UNL     1      14.986  37.266  61.505  1.00  0.00    -0.369 N 
HETATM   11  C6  UNL     1      15.776  36.950  62.664  1.00  0.00     0.151 C 
BRANCH  10  12
HETATM   12  C7  UNL     1      13.617  36.974  61.293  1.00  0.00     0.126 C 
BRANCH  12  13
HETATM   13  C8  UNL     1      12.592  37.524  62.198  1.00  0.00     0.055 C 
BRANCH  13  14
HETATM   14  C9  UNL     1      11.166  37.444  61.798  1.00  0.00     0.208 C 
BRANCH  14  15
HETATM   15  N4  UNL     1      10.685  38.827  61.619  1.00  0.00    -0.073 N 
ATOM     16  H43 UNL     1      11.179  39.502  62.204  1.00  0.00     0.274 HD
ATOM     17  H42 UNL     1      10.942  39.226  60.715  1.00  0.00     0.274 HD
ATOM     18  H41 UNL     1       9.679  38.820  61.781  1.00  0.00     0.274 HD
ENDBRANCH  14  15
BRANCH  14  19
HETATM   19  C10 UNL     1      10.305  36.836  62.875  1.00  0.00     0.197 C 
BRANCH  19  20
HETATM   20  O1  UNL     1      10.722  35.514  63.126  1.00  0.00    -0.399 OA
ATOM     21  H1  UNL     1      10.064  35.064  63.644  1.00  0.00     0.209 HD
ENDBRANCH  19  20
ENDBRANCH  14  19
ENDBRANCH  13  14
ENDBRANCH  12  13
ENDBRANCH  10  12
ENDBRANCH   4  10
BRANCH   1  22
HETATM   22  N1  UNL     1      15.364  41.106  58.793  1.00  0.00    -0.223 N 
ATOM     23  H1  UNL     1      14.383  41.324  58.618  1.00  0.00     0.178 HD
BRANCH  22  24
HETATM   24  C3  UNL     1      16.432  42.114  58.732  1.00  0.00     0.164 C 
BRANCH  24  25
HETATM   25  C2  UNL     1      16.438  42.995  59.901  1.00  0.00    -0.017 C 
HETATM   26  C1  UNL     1      15.336  43.246  60.587  1.00  0.00     0.008 C 
ENDBRANCH  24  25
ENDBRANCH  22  24
ENDBRANCH   1  22
BRANCH   7  27
HETATM   27  N6  UNL     1      18.390  37.557  57.929  1.00  0.00    -0.365 N 
HETATM   28  C13 UNL     1      19.714  37.745  58.439  1.00  0.00     0.124 C 
HETATM   29  C14 UNL     1      20.747  37.908  57.350  1.00  0.00     0.020 C 
HETATM   30  C15 UNL     1      20.604  36.903  56.251  1.00  0.00     0.003 C 
HETATM   31  C16 UNL     1      19.354  36.099  56.300  1.00  0.00     0.020 C 
HETATM   32  C17 UNL     1      18.123  36.838  56.707  1.00  0.00     0.124 C 
ENDBRANCH   7  27
TORSDOF 11
ENDMDL
MODEL 5
REMARK VINA RESULT: -6.763938342      1.057      1.114
REMARK  11 active torsions:
REMARK  status: ('A' for Active; 'I' for Inactive)
REMARK    1  A    between atoms: C2_2  and  C3_3 
REMARK    2  A    between atoms: C3_3  and  N1_4 
REMARK    3  A    between atoms: N1_4  and  C4_6 
REMARK    4  A    between atoms: C5_9  and  N3_10 
REMARK    5  A    between atoms: N3_10  and  C7_12 
REMARK    6  A    between atoms: C7_12  and  C8_13 
REMARK    7  A    between atoms: C8_13  and  C9_14 
REMARK    8  A    between atoms: C9_14  and  N4_15 
REMARK    9  A    between atoms: C9_14  and  C10_19 
REMARK   10  A    between atoms: C10_19  and  O1_20 
REMARK   11  A    between atoms: C12_24  and  N6_25 
ROOT
HETATM    1  C4  UNL     1      15.358  39.783  59.473  1.00  0.00     0.681 A 
HETATM    2  N2  UNL     1      14.543  39.271  60.411  1.00  0.00    -0.175 N 
ATOM      3  H2  UNL     1      13.727  39.815  60.693  1.00  0.00     0.186 HD
HETATM    4  C5  UNL     1      14.746  38.085  60.992  1.00  0.00     0.147 A 
HETATM    5  C11 UNL     1      15.837  37.348  60.619  1.00  0.00     0.135 A 
HETATM    6  N5  UNL     1      16.065  36.101  61.221  1.00  0.00    -0.094 NA
HETATM    7  C12 UNL     1      16.722  37.834  59.643  1.00  0.00     0.147 A 
HETATM    8  N7  UNL     1      16.431  39.037  59.119  1.00  0.00    -0.175 N 
ATOM      9  H7  UNL     1      17.060  39.413  58.409  1.00  0.00     0.186 HD
ENDROOT
BRANCH   4  10
HETATM   10  N3  UNL     1      13.796  37.656  62.007  1.00  0.00    -0.369 N 
HETATM   11  C6  UNL     1      14.241  37.669  63.374  1.00  0.00     0.151 C 
BRANCH  10  12
HETATM   12  C7  UNL     1      12.529  37.248  61.520  1.00  0.00     0.126 C 
BRANCH  12  13
HETATM   13  C8  UNL     1      11.326  38.041  61.828  1.00  0.00     0.055 C 
BRANCH  13  14
HETATM   14  C9  UNL     1      10.193  37.383  62.524  1.00  0.00     0.208 C 
BRANCH  14  15
HETATM   15  N4  UNL     1      10.363  35.927  62.352  1.00  0.00    -0.073 N 
ATOM     16  H43 UNL     1      10.761  35.471  63.172  1.00  0.00     0.274 HD
ATOM     17  H42 UNL     1       9.478  35.420  62.336  1.00  0.00     0.274 HD
ATOM     18  H41 UNL     1      10.919  35.787  61.508  1.00  0.00     0.274 HD
ENDBRANCH  14  15
BRANCH  14  19
HETATM   19  C10 UNL     1       8.865  37.727  61.904  1.00  0.00     0.197 C 
BRANCH  19  20
HETATM   20  O1  UNL     1       8.393  38.943  62.437  1.00  0.00    -0.399 OA
ATOM     21  H1  UNL     1       9.126  39.517  62.625  1.00  0.00     0.209 HD
ENDBRANCH  19  20
ENDBRANCH  14  19
ENDBRANCH  13  14
ENDBRANCH  12  13
ENDBRANCH  10  12
ENDBRANCH   4  10
BRANCH   1  22
HETATM   22  N1  UNL     1      15.147  40.956  58.922  1.00  0.00    -0.223 N 
ATOM     23  H1  UNL     1      14.222  41.278  58.636  1.00  0.00     0.178 HD
BRANCH  22  24
HETATM   24  C3  UNL     1      16.363  41.765  58.753  1.00  0.00     0.164 C 
BRANCH  24  25
HETATM   25  C2  UNL     1      16.506  42.786  59.792  1.00  0.00    -0.017 C 
HETATM   26  C1  UNL     1      15.462  43.245  60.463  1.00  0.00     0.008 C 
ENDBRANCH  24  25
ENDBRANCH  22  24
ENDBRANCH   1  22
BRANCH   7  27
HETATM   27  N6  UNL     1      17.853  37.074  59.241  1.00  0.00    -0.365 N 
HETATM   28  C13 UNL     1      18.608  36.414  60.261  1.00  0.00     0.124 C 
HETATM   29  C14 UNL     1      20.088  36.370  59.966  1.00  0.00     0.020 C 
HETATM   30  C15 UNL     1      20.393  35.964  58.558  1.00  0.00     0.003 C 
HETATM   31  C16 UNL     1      19.213  35.916  57.654  1.00  0.00     0.020 C 
HETATM   32  C17 UNL     1      18.205  37.001  57.844  1.00  0.00     0.124 C 
ENDBRANCH   7  27
TORSDOF 11
ENDMDL
