MODEL 1
REMARK VINA RESULT: -8.642568245      0.000      0.000
REMARK  10 active torsions:
REMARK  status: ('A' for Active; 'I' for Inactive)
REMARK    1  A    between atoms: C2_2  and  C3_3 
REMARK    2  A    between atoms: C3_3  and  C4_4 
REMARK    3  A    between atoms: C4_4  and  C5_5 
REMARK    4  A    between atoms: C5_5  and  C6_6 
REMARK    5  A    between atoms: C6_6  and  O1_7 
REMARK    6  A    between atoms: O1_7  and  C7_8 
REMARK    7  A    between atoms: C7_8  and  C8_9 
REMARK    8  A    between atoms: C8_9  and  N1_10 
REMARK    9  A    between atoms: C9_11  and  N2_12 
REMARK   10  A    between atoms: N2_12  and  C10_14 
ROOT
HETATM    1  N1  UNL     1      15.391  38.753  60.395  1.00  0.00    -0.175 N 
HETATM    2  C9  UNL     1      15.623  39.562  59.318  1.00  0.00     0.683 A 
HETATM    3  N3  UNL     1      16.538  39.242  58.378  1.00  0.00    -0.175 N 
ATOM      4  H3  UNL     1      16.677  39.875  57.591  1.00  0.00     0.186 HD
HETATM    5  C13 UNL     1      17.270  38.118  58.444  1.00  0.00     0.145 A 
HETATM    6  N4  UNL     1      18.137  37.856  57.516  1.00  0.00    -0.383 N 
ATOM      7  H41 UNL     1      18.692  37.002  57.566  1.00  0.00     0.157 HD
ATOM      8  H42 UNL     1      18.290  38.477  56.722  1.00  0.00     0.157 HD
HETATM    9  C14 UNL     1      17.063  37.281  59.515  1.00  0.00     0.125 A 
HETATM   10  C15 UNL     1      16.121  37.623  60.471  1.00  0.00     0.126 A 
HETATM   11  C16 UNL     1      16.150  36.614  61.380  1.00  0.00     0.161 A 
HETATM   12  N5  UNL     1      15.357  36.506  62.554  1.00  0.00    -0.079 NA
HETATM   13  N6  UNL     1      17.078  35.716  60.966  1.00  0.00    -0.283 N 
ATOM     14  H6  UNL     1      17.313  34.854  61.458  1.00  0.00     0.188 HD
HETATM   15  N7  UNL     1      17.631  36.109  59.846  1.00  0.00    -0.289 N 
HETATM   16  C17 UNL     1      18.667  35.459  59.055  1.00  0.00     0.178 C 
ENDROOT
BRANCH   1  17
HETATM   17  C8  UNL     1      14.406  39.140  61.366  1.00  0.00     0.174 C 
BRANCH  17  18
HETATM   18  C7  UNL     1      13.038  38.555  61.057  1.00  0.00     0.188 C 
BRANCH  18  19
HETATM   19  O1  UNL     1      12.375  38.122  62.166  1.00  0.00    -0.390 OA
BRANCH  19  20
HETATM   20  C6  UNL     1      11.728  36.925  62.059  1.00  0.00     0.167 C 
BRANCH  20  21
HETATM   21  C5  UNL     1      10.363  37.093  62.751  1.00  0.00     0.026 C 
BRANCH  21  22
HETATM   22  C4  UNL     1       9.328  37.556  61.786  1.00  0.00     0.002 C 
BRANCH  22  23
HETATM   23  C3  UNL     1       8.691  38.814  62.277  1.00  0.00    -0.000 C 
BRANCH  23  24
HETATM   24  C2  UNL     1       9.202  40.046  61.612  1.00  0.00    -0.005 C 
HETATM   25  C1  UNL     1       8.103  41.102  61.703  1.00  0.00     0.005 C 
ENDBRANCH  23  24
ENDBRANCH  22  23
ENDBRANCH  21  22
ENDBRANCH  20  21
ENDBRANCH  19  20
ENDBRANCH  18  19
ENDBRANCH  17  18
ENDBRANCH   1  17
BRANCH   2  26
HETATM   26  N2  UNL     1      14.920  40.642  59.253  1.00  0.00    -0.221 N 
ATOM     27  H2  UNL     1      13.909  40.625  59.396  1.00  0.00     0.178 HD
BRANCH  26  28
HETATM   28  C10 UNL     1      15.617  41.881  58.969  1.00  0.00     0.099 A 
HETATM   29  C11 UNL     1      16.936  42.114  59.667  1.00  0.00     0.028 A 
HETATM   30  C12 UNL     1      15.713  42.929  60.025  1.00  0.00     0.028 A 
ENDBRANCH  26  28
ENDBRANCH   2  26
TORSDOF 10
ENDMDL
MODEL 2
REMARK VINA RESULT: -7.726765510      1.486      4.202
REMARK  10 active torsions:
REMARK  status: ('A' for Active; 'I' for Inactive)
REMARK    1  A    between atoms: C2_2  and  C3_3 
REMARK    2  A    between atoms: C3_3  and  C4_4 
REMARK    3  A    between atoms: C4_4  and  C5_5 
REMARK    4  A    between atoms: C5_5  and  C6_6 
REMARK    5  A    between atoms: C6_6  and  O1_7 
REMARK    6  A    between atoms: O1_7  and  C7_8 
REMARK    7  A    between atoms: C7_8  and  C8_9 
REMARK    8  A    between atoms: C8_9  and  N1_10 
REMARK    9  A    between atoms: C9_11  and  N2_12 
REMARK   10  A    between atoms: N2_12  and  C10_14 
ROOT
HETATM    1  N1  UNL     1      15.984  38.090  59.937  1.00  0.00    -0.175 N 
HETATM    2  C9  UNL     1      17.006  37.348  59.415  1.00  0.00     0.683 A 
HETATM    3  N3  UNL     1      17.937  37.896  58.605  1.00  0.00    -0.175 N 
ATOM      4  H3  UNL     1      18.682  37.304  58.239  1.00  0.00     0.186 HD
HETATM    5  C13 UNL     1      17.914  39.195  58.265  1.00  0.00     0.145 A 
HETATM    6  N4  UNL     1      18.830  39.675  57.482  1.00  0.00    -0.383 N 
ATOM      7  H41 UNL     1      18.813  40.661  57.225  1.00  0.00     0.157 HD
ATOM      8  H42 UNL     1      19.583  39.098  57.107  1.00  0.00     0.157 HD
HETATM    9  C14 UNL     1      16.899  39.973  58.771  1.00  0.00     0.125 A 
HETATM   10  C15 UNL     1      15.952  39.395  59.601  1.00  0.00     0.126 A 
HETATM   11  C16 UNL     1      15.102  40.402  59.930  1.00  0.00     0.161 A 
HETATM   12  N5  UNL     1      13.960  40.308  60.770  1.00  0.00    -0.079 NA
HETATM   13  N6  UNL     1      15.540  41.527  59.312  1.00  0.00    -0.283 N 
ATOM     14  H6  UNL     1      15.091  42.441  59.381  1.00  0.00     0.188 HD
HETATM   15  N7  UNL     1      16.619  41.278  58.614  1.00  0.00    -0.289 N 
HETATM   16  C17 UNL     1      17.416  42.184  57.799  1.00  0.00     0.178 C 
ENDROOT
BRANCH   1  17
HETATM   17  C8  UNL     1      15.021  37.458  60.795  1.00  0.00     0.174 C 
BRANCH  17  18
HETATM   18  C7  UNL     1      15.361  37.637  62.266  1.00  0.00     0.188 C 
BRANCH  18  19
HETATM   19  O1  UNL     1      14.275  37.923  63.037  1.00  0.00    -0.390 OA
BRANCH  19  20
HETATM   20  C6  UNL     1      13.277  36.992  63.053  1.00  0.00     0.167 C 
BRANCH  20  21
HETATM   21  C5  UNL     1      12.099  37.587  62.261  1.00  0.00     0.026 C 
BRANCH  21  22
HETATM   22  C4  UNL     1      10.906  36.700  62.331  1.00  0.00     0.002 C 
BRANCH  22  23
HETATM   23  C3  UNL     1       9.655  37.505  62.188  1.00  0.00    -0.000 C 
BRANCH  23  24
HETATM   24  C2  UNL     1       9.872  38.849  61.583  1.00  0.00    -0.005 C 
HETATM   25  C1  UNL     1       8.661  39.710  61.939  1.00  0.00     0.005 C 
ENDBRANCH  23  24
ENDBRANCH  22  23
ENDBRANCH  21  22
ENDBRANCH  20  21
ENDBRANCH  19  20
ENDBRANCH  18  19
ENDBRANCH  17  18
ENDBRANCH   1  17
BRANCH   2  26
HETATM   26  N2  UNL     1      17.030  36.099  59.742  1.00  0.00    -0.221 N 
ATOM     27  H2  UNL     1      16.310  35.697  60.343  1.00  0.00     0.178 HD
BRANCH  26  28
HETATM   28  C10 UNL     1      18.116  35.290  59.224  1.00  0.00     0.099 A 
HETATM   29  C11 UNL     1      17.851  34.489  57.972  1.00  0.00     0.028 A 
HETATM   30  C12 UNL     1      18.029  33.804  59.309  1.00  0.00     0.028 A 
ENDBRANCH  26  28
ENDBRANCH   2  26
TORSDOF 10
ENDMDL
MODEL 3
REMARK VINA RESULT: -7.660717759      1.556      3.937
REMARK  10 active torsions:
REMARK  status: ('A' for Active; 'I' for Inactive)
REMARK    1  A    between atoms: C2_2  and  C3_3 
REMARK    2  A    between atoms: C3_3  and  C4_4 
REMARK    3  A    between atoms: C4_4  and  C5_5 
REMARK    4  A    between atoms: C5_5  and  C6_6 
REMARK    5  A    between atoms: C6_6  and  O1_7 
REMARK    6  A    between atoms: O1_7  and  C7_8 
REMARK    7  A    between atoms: C7_8  and  C8_9 
REMARK    8  A    between atoms: C8_9  and  N1_10 
REMARK    9  A    between atoms: C9_11  and  N2_12 
REMARK   10  A    between atoms: N2_12  and  C10_14 
ROOT
HETATM    1  N1  UNL     1      15.430  39.662  60.030  1.00  0.00    -0.175 N 
HETATM    2  C9  UNL     1      15.786  38.375  59.736  1.00  0.00     0.683 A 
HETATM    3  N3  UNL     1      16.749  38.097  58.831  1.00  0.00    -0.175 N 
ATOM      4  H3  UNL     1      16.981  37.122  58.644  1.00  0.00     0.186 HD
HETATM    5  C13 UNL     1      17.410  39.061  58.170  1.00  0.00     0.145 A 
HETATM    6  N4  UNL     1      18.326  38.743  57.309  1.00  0.00    -0.383 N 
ATOM      7  H41 UNL     1      18.829  39.475  56.808  1.00  0.00     0.157 HD
ATOM      8  H42 UNL     1      18.573  37.774  57.108  1.00  0.00     0.157 HD
HETATM    9  C14 UNL     1      17.078  40.367  58.440  1.00  0.00     0.125 A 
HETATM   10  C15 UNL     1      16.088  40.636  59.372  1.00  0.00     0.126 A 
HETATM   11  C16 UNL     1      15.996  41.991  59.415  1.00  0.00     0.161 A 
HETATM   12  N5  UNL     1      15.117  42.756  60.228  1.00  0.00    -0.079 NA
HETATM   13  N6  UNL     1      16.901  42.492  58.539  1.00  0.00    -0.283 N 
ATOM     14  H6  UNL     1      17.052  43.486  58.363  1.00  0.00     0.188 HD
HETATM   15  N7  UNL     1      17.556  41.524  57.949  1.00  0.00    -0.289 N 
HETATM   16  C17 UNL     1      18.608  41.603  56.946  1.00  0.00     0.178 C 
ENDROOT
BRANCH   1  17
HETATM   17  C8  UNL     1      14.400  39.903  61.002  1.00  0.00     0.174 C 
BRANCH  17  18
HETATM   18  C7  UNL     1      13.147  39.090  60.720  1.00  0.00     0.188 C 
BRANCH  18  19
HETATM   19  O1  UNL     1      12.671  38.439  61.818  1.00  0.00    -0.390 OA
BRANCH  19  20
HETATM   20  C6  UNL     1      11.351  38.089  61.794  1.00  0.00     0.167 C 
BRANCH  20  21
HETATM   21  C5  UNL     1      10.593  39.255  61.135  1.00  0.00     0.026 C 
BRANCH  21  22
HETATM   22  C4  UNL     1       9.299  39.510  61.827  1.00  0.00     0.002 C 
BRANCH  22  23
HETATM   23  C3  UNL     1       8.763  38.240  62.403  1.00  0.00    -0.000 C 
BRANCH  23  24
HETATM   24  C2  UNL     1       7.537  38.427  63.229  1.00  0.00    -0.005 C 
HETATM   25  C1  UNL     1       6.967  39.804  62.891  1.00  0.00     0.005 C 
ENDBRANCH  23  24
ENDBRANCH  22  23
ENDBRANCH  21  22
ENDBRANCH  20  21
ENDBRANCH  19  20
ENDBRANCH  18  19
ENDBRANCH  17  18
ENDBRANCH   1  17
BRANCH   2  26
HETATM   26  N2  UNL     1      15.152  37.448  60.371  1.00  0.00    -0.221 N 
ATOM     27  H2  UNL     1      14.156  37.287  60.216  1.00  0.00     0.178 HD
BRANCH  26  28
HETATM   28  C10 UNL     1      15.905  36.645  61.315  1.00  0.00     0.099 A 
HETATM   29  C11 UNL     1      15.229  36.283  62.616  1.00  0.00     0.028 A 
HETATM   30  C12 UNL     1      16.383  37.260  62.586  1.00  0.00     0.028 A 
ENDBRANCH  26  28
ENDBRANCH   2  26
TORSDOF 10
ENDMDL
MODEL 4
REMARK VINA RESULT: -7.307199447      2.166      3.453
REMARK  10 active torsions:
REMARK  status: ('A' for Active; 'I' for Inactive)
REMARK    1  A    between atoms: C2_2  and  C3_3 
REMARK    2  A    between atoms: C3_3  and  C4_4 
REMARK    3  A    between atoms: C4_4  and  C5_5 
REMARK    4  A    between atoms: C5_5  and  C6_6 
REMARK    5  A    between atoms: C6_6  and  O1_7 
REMARK    6  A    between atoms: O1_7  and  C7_8 
REMARK    7  A    between atoms: C7_8  and  C8_9 
REMARK    8  A    between atoms: C8_9  and  N1_10 
REMARK    9  A    between atoms: C9_11  and  N2_12 
REMARK   10  A    between atoms: N2_12  and  C10_14 
ROOT
HETATM    1  N1  UNL     1      17.631  36.891  58.619  1.00  0.00    -0.175 N 
HETATM    2  C9  UNL     1      17.482  38.101  58.001  1.00  0.00     0.683 A 
HETATM    3  N3  UNL     1      17.465  38.211  56.655  1.00  0.00    -0.175 N 
ATOM      4  H3  UNL     1      17.351  39.134  56.238  1.00  0.00     0.186 HD
HETATM    5  C13 UNL     1      17.592  37.146  55.848  1.00  0.00     0.145 A 
HETATM    6  N4  UNL     1      17.570  37.303  54.561  1.00  0.00    -0.383 N 
ATOM      7  H41 UNL     1      17.666  36.493  53.949  1.00  0.00     0.157 HD
ATOM      8  H42 UNL     1      17.457  38.218  54.126  1.00  0.00     0.157 HD
HETATM    9  C14 UNL     1      17.744  35.911  56.435  1.00  0.00     0.125 A 
HETATM   10  C15 UNL     1      17.759  35.815  57.817  1.00  0.00     0.126 A 
HETATM   11  C16 UNL     1      17.919  34.492  58.083  1.00  0.00     0.161 A 
HETATM   12  N5  UNL     1      17.993  33.888  59.366  1.00  0.00    -0.079 NA
HETATM   13  N6  UNL     1      17.994  33.842  56.895  1.00  0.00    -0.283 N 
ATOM     14  H6  UNL     1      18.115  32.834  56.791  1.00  0.00     0.188 HD
HETATM   15  N7  UNL     1      17.889  34.687  55.900  1.00  0.00    -0.289 N 
HETATM   16  C17 UNL     1      17.917  34.428  54.468  1.00  0.00     0.178 C 
ENDROOT
BRANCH   1  17
HETATM   17  C8  UNL     1      17.641  36.830  60.053  1.00  0.00     0.174 C 
BRANCH  17  18
HETATM   18  C7  UNL     1      16.237  36.826  60.636  1.00  0.00     0.188 C 
BRANCH  18  19
HETATM   19  O1  UNL     1      16.175  37.354  61.891  1.00  0.00    -0.390 OA
BRANCH  19  20
HETATM   20  C6  UNL     1      15.014  37.989  62.227  1.00  0.00     0.167 C 
BRANCH  20  21
HETATM   21  C5  UNL     1      13.894  37.340  61.393  1.00  0.00     0.026 C 
BRANCH  21  22
HETATM   22  C4  UNL     1      12.636  38.131  61.481  1.00  0.00     0.002 C 
BRANCH  22  23
HETATM   23  C3  UNL     1      11.607  37.380  62.261  1.00  0.00    -0.000 C 
BRANCH  23  24
HETATM   24  C2  UNL     1      10.206  37.770  61.937  1.00  0.00    -0.005 C 
HETATM   25  C1  UNL     1      10.239  39.212  61.434  1.00  0.00     0.005 C 
ENDBRANCH  23  24
ENDBRANCH  22  23
ENDBRANCH  21  22
ENDBRANCH  20  21
ENDBRANCH  19  20
ENDBRANCH  18  19
ENDBRANCH  17  18
ENDBRANCH   1  17
BRANCH   2  26
HETATM   26  N2  UNL     1      17.359  39.126  58.775  1.00  0.00    -0.221 N 
ATOM     27  H2  UNL     1      17.958  39.246  59.593  1.00  0.00     0.178 HD
BRANCH  26  28
HETATM   28  C10 UNL     1      16.339  40.101  58.443  1.00  0.00     0.099 A 
HETATM   29  C11 UNL     1      16.441  41.464  59.086  1.00  0.00     0.028 A 
HETATM   30  C12 UNL     1      15.341  40.501  59.475  1.00  0.00     0.028 A 
ENDBRANCH  26  28
ENDBRANCH   2  26
TORSDOF 10
ENDMDL
MODEL 5
REMARK VINA RESULT: -7.268386073      1.806      2.932
REMARK  10 active torsions:
REMARK  status: ('A' for Active; 'I' for Inactive)
REMARK    1  A    between atoms: C2_2  and  C3_3 
REMARK    2  A    between atoms: C3_3  and  C4_4 
REMARK    3  A    between atoms: C4_4  and  C5_5 
REMARK    4  A    between atoms: C5_5  and  C6_6 
REMARK    5  A    between atoms: C6_6  and  O1_7 
REMARK    6  A    between atoms: O1_7  and  C7_8 
REMARK    7  A    between atoms: C7_8  and  C8_9 
REMARK    8  A    between atoms: C8_9  and  N1_10 
REMARK    9  A    between atoms: C9_11  and  N2_12 
REMARK   10  A    between atoms: N2_12  and  C10_14 
ROOT
HETATM    1  N1  UNL     1      17.131  37.561  59.189  1.00  0.00    -0.175 N 
HETATM    2  C9  UNL     1      16.923  38.867  58.845  1.00  0.00     0.683 A 
HETATM    3  N3  UNL     1      17.736  39.509  57.980  1.00  0.00    -0.175 N 
ATOM      4  H3  UNL     1      17.542  40.484  57.752  1.00  0.00     0.186 HD
HETATM    5  C13 UNL     1      18.792  38.907  57.409  1.00  0.00     0.145 A 
HETATM    6  N4  UNL     1      19.545  39.567  56.584  1.00  0.00    -0.383 N 
ATOM      7  H41 UNL     1      20.347  39.109  56.151  1.00  0.00     0.157 HD
ATOM      8  H42 UNL     1      19.366  40.542  56.344  1.00  0.00     0.157 HD
HETATM    9  C14 UNL     1      19.033  37.593  57.733  1.00  0.00     0.125 A 
HETATM   10  C15 UNL     1      18.189  36.948  58.622  1.00  0.00     0.126 A 
HETATM   11  C16 UNL     1      18.681  35.686  58.732  1.00  0.00     0.161 A 
HETATM   12  N5  UNL     1      18.155  34.637  59.533  1.00  0.00    -0.079 NA
HETATM   13  N6  UNL     1      19.774  35.601  57.934  1.00  0.00    -0.283 N 
ATOM     14  H6  UNL     1      20.347  34.765  57.820  1.00  0.00     0.188 HD
HETATM   15  N7  UNL     1      19.993  36.742  57.330  1.00  0.00    -0.289 N 
HETATM   16  C17 UNL     1      21.048  37.098  56.392  1.00  0.00     0.178 C 
ENDROOT
BRANCH   1  17
HETATM   17  C8  UNL     1      16.235  36.925  60.114  1.00  0.00     0.174 C 
BRANCH  17  18
HETATM   18  C7  UNL     1      16.800  36.889  61.525  1.00  0.00     0.188 C 
BRANCH  18  19
HETATM   19  O1  UNL     1      15.840  36.953  62.490  1.00  0.00    -0.390 OA
BRANCH  19  20
HETATM   20  C6  UNL     1      14.869  37.898  62.320  1.00  0.00     0.167 C 
BRANCH  20  21
HETATM   21  C5  UNL     1      13.537  37.247  62.736  1.00  0.00     0.026 C 
BRANCH  21  22
HETATM   22  C4  UNL     1      12.434  37.656  61.823  1.00  0.00     0.002 C 
BRANCH  22  23
HETATM   23  C3  UNL     1      11.160  36.985  62.220  1.00  0.00    -0.000 C 
BRANCH  23  24
HETATM   24  C2  UNL     1       9.948  37.825  62.005  1.00  0.00    -0.005 C 
HETATM   25  C1  UNL     1      10.415  39.157  61.419  1.00  0.00     0.005 C 
ENDBRANCH  23  24
ENDBRANCH  22  23
ENDBRANCH  21  22
ENDBRANCH  20  21
ENDBRANCH  19  20
ENDBRANCH  18  19
ENDBRANCH  17  18
ENDBRANCH   1  17
BRANCH   2  26
HETATM   26  N2  UNL     1      15.907  39.446  59.392  1.00  0.00    -0.221 N 
ATOM     27  H2  UNL     1      15.371  38.988  60.129  1.00  0.00     0.178 HD
BRANCH  26  28
HETATM   28  C10 UNL     1      15.557  40.772  58.922  1.00  0.00     0.099 A 
HETATM   29  C11 UNL     1      16.629  41.835  58.974  1.00  0.00     0.028 A 
HETATM   30  C12 UNL     1      15.435  41.890  59.901  1.00  0.00     0.028 A 
ENDBRANCH  26  28
ENDBRANCH   2  26
TORSDOF 10
ENDMDL
