MODEL 1
REMARK VINA RESULT: -7.847854517      0.000      0.000
REMARK  14 active torsions:
REMARK  status: ('A' for Active; 'I' for Inactive)
REMARK    1  A    between atoms: C2_2  and  C3_3 
REMARK    2  A    between atoms: C3_3  and  C4_4 
REMARK    3  A    between atoms: C4_4  and  C5_5 
REMARK    4  A    between atoms: C5_5  and  C6_6 
REMARK    5  A    between atoms: C7_7  and  C8_8 
REMARK    6  A    between atoms: C11_15  and  N3_16 
REMARK    7  A    between atoms: N4_19  and  C12_20 
REMARK    8  A    between atoms: C12_20  and  C13_21 
REMARK    9  A    between atoms: C13_21  and  O1_22 
REMARK   10  A    between atoms: N5_26  and  C15_27 
REMARK   11  A    between atoms: C15_27  and  C16_28 
REMARK   12  A    between atoms: C16_28  and  C17_29 
REMARK   13  A    between atoms: C17_29  and  C18_30 
REMARK   14  A    between atoms: C18_30  and  N6_31 
ROOT
HETATM    1  C8  UNL     1      15.600  36.861  60.680  1.00  0.00     0.132 A 
HETATM    2  N1  UNL     1      15.890  36.600  59.392  1.00  0.00    -0.329 N 
ATOM      3  H1  UNL     1      15.127  36.621  58.715  1.00  0.00     0.168 HD
HETATM    4  C9  UNL     1      17.125  36.313  58.949  1.00  0.00     0.158 A 
HETATM    5  C10 UNL     1      18.180  36.280  59.871  1.00  0.00     0.158 A 
HETATM    6  N2  UNL     1      17.913  36.538  61.162  1.00  0.00    -0.323 N 
ATOM      7  H2  UNL     1      18.672  36.517  61.843  1.00  0.00     0.169 HD
HETATM    8  C11 UNL     1      16.667  36.822  61.574  1.00  0.00     0.136 A 
HETATM    9  N4  UNL     1      19.317  35.971  59.192  1.00  0.00    -0.280 N 
HETATM   10  C14 UNL     1      18.944  35.825  57.896  1.00  0.00     0.332 A 
HETATM   11  O2  UNL     1      19.737  35.536  56.973  1.00  0.00    -0.246 OA
HETATM   12  N5  UNL     1      17.648  36.026  57.745  1.00  0.00    -0.282 N 
ENDROOT
BRANCH  12  13
HETATM   13  C15 UNL     1      16.872  35.956  56.490  1.00  0.00     0.135 C 
BRANCH  13  14
HETATM   14  C16 UNL     1      16.250  34.615  56.321  1.00  0.00     0.022 C 
BRANCH  14  15
HETATM   15  C17 UNL     1      16.758  33.947  55.086  1.00  0.00     0.029 C 
BRANCH  15  16
HETATM   16  C18 UNL     1      17.857  32.972  55.407  1.00  0.00     0.229 C 
BRANCH  16  17
HETATM   17  N6  UNL     1      19.138  33.429  54.854  1.00  0.00    -0.079 N 
ATOM     18  H63 UNL     1      19.393  34.352  55.206  1.00  0.00     0.274 HD
ATOM     19  H62 UNL     1      19.923  32.898  55.232  1.00  0.00     0.274 HD
ATOM     20  H61 UNL     1      19.123  33.404  53.835  1.00  0.00     0.274 HD
ENDBRANCH  16  17
ENDBRANCH  15  16
ENDBRANCH  14  15
ENDBRANCH  13  14
ENDBRANCH  12  13
BRANCH   9  21
HETATM   21  C12 UNL     1      20.651  35.829  59.743  1.00  0.00     0.161 C 
BRANCH  21  22
HETATM   22  C13 UNL     1      21.333  37.162  59.922  1.00  0.00     0.184 C 
BRANCH  22  23
HETATM   23  O1  UNL     1      22.112  37.194  61.080  1.00  0.00    -0.399 OA
ATOM     24  H1  UNL     1      22.085  38.046  61.500  1.00  0.00     0.209 HD
ENDBRANCH  22  23
ENDBRANCH  21  22
ENDBRANCH   9  21
BRANCH   1  25
HETATM   25  C7  UNL     1      14.263  37.167  61.131  1.00  0.00    -0.045 C 
HETATM   26  C6  UNL     1      13.137  37.405  61.501  1.00  0.00    -0.100 C 
BRANCH  26  27
HETATM   27  C5  UNL     1      11.752  37.670  61.950  1.00  0.00     0.094 C 
BRANCH  27  28
HETATM   28  C4  UNL     1      11.345  39.000  61.353  1.00  0.00     0.012 C 
BRANCH  28  29
HETATM   29  C3  UNL     1       9.843  39.177  61.421  1.00  0.00     0.000 C 
BRANCH  29  30
HETATM   30  C2  UNL     1       9.195  38.050  62.192  1.00  0.00    -0.005 C 
HETATM   31  C1  UNL     1       7.911  38.462  62.848  1.00  0.00     0.005 C 
ENDBRANCH  29  30
ENDBRANCH  28  29
ENDBRANCH  27  28
ENDBRANCH  26  27
ENDBRANCH   1  25
BRANCH   8  32
HETATM   32  N3  UNL     1      16.397  37.070  62.807  1.00  0.00    -0.383 N 
ATOM     33  H32 UNL     1      15.624  37.678  63.079  1.00  0.00     0.157 HD
ATOM     34  H31 UNL     1      16.995  36.629  63.505  1.00  0.00     0.157 HD
ENDBRANCH   8  32
TORSDOF 14
ENDMDL
MODEL 2
REMARK VINA RESULT: -7.603359281      1.018      1.202
REMARK  14 active torsions:
REMARK  status: ('A' for Active; 'I' for Inactive)
REMARK    1  A    between atoms: C2_2  and  C3_3 
REMARK    2  A    between atoms: C3_3  and  C4_4 
REMARK    3  A    between atoms: C4_4  and  C5_5 
REMARK    4  A    between atoms: C5_5  and  C6_6 
REMARK    5  A    between atoms: C7_7  and  C8_8 
REMARK    6  A    between atoms: C11_15  and  N3_16 
REMARK    7  A    between atoms: N4_19  and  C12_20 
REMARK    8  A    between atoms: C12_20  and  C13_21 
REMARK    9  A    between atoms: C13_21  and  O1_22 
REMARK   10  A    between atoms: N5_26  and  C15_27 
REMARK   11  A    between atoms: C15_27  and  C16_28 
REMARK   12  A    between atoms: C16_28  and  C17_29 
REMARK   13  A    between atoms: C17_29  and  C18_30 
REMARK   14  A    between atoms: C18_30  and  N6_31 
ROOT
HETATM    1  C8  UNL     1      15.866  37.162  60.482  1.00  0.00     0.132 A 
HETATM    2  N1  UNL     1      16.269  37.133  59.198  1.00  0.00    -0.329 N 
ATOM      3  H1  UNL     1      15.595  37.390  58.477  1.00  0.00     0.168 HD
HETATM    4  C9  UNL     1      17.508  36.784  58.813  1.00  0.00     0.158 A 
HETATM    5  C10 UNL     1      18.444  36.429  59.795  1.00  0.00     0.158 A 
HETATM    6  N2  UNL     1      18.062  36.452  61.083  1.00  0.00    -0.323 N 
ATOM      7  H2  UNL     1      18.733  36.195  61.807  1.00  0.00     0.169 HD
HETATM    8  C11 UNL     1      16.816  36.805  61.436  1.00  0.00     0.136 A 
HETATM    9  N4  UNL     1      19.609  36.120  59.167  1.00  0.00    -0.280 N 
HETATM   10  C14 UNL     1      19.371  36.289  57.842  1.00  0.00     0.332 A 
HETATM   11  O2  UNL     1      20.226  36.095  56.951  1.00  0.00    -0.246 OA
HETATM   12  N5  UNL     1      18.129  36.683  57.626  1.00  0.00    -0.282 N 
ENDROOT
BRANCH  12  13
HETATM   13  C15 UNL     1      17.496  36.970  56.323  1.00  0.00     0.135 C 
BRANCH  13  14
HETATM   14  C16 UNL     1      17.319  35.725  55.529  1.00  0.00     0.022 C 
BRANCH  14  15
HETATM   15  C17 UNL     1      16.038  35.046  55.885  1.00  0.00     0.029 C 
BRANCH  15  16
HETATM   16  C18 UNL     1      16.266  33.604  56.243  1.00  0.00     0.229 C 
BRANCH  16  17
HETATM   17  N6  UNL     1      17.007  33.490  57.506  1.00  0.00    -0.079 N 
ATOM     18  H63 UNL     1      16.533  33.978  58.266  1.00  0.00     0.274 HD
ATOM     19  H62 UNL     1      16.969  32.543  57.882  1.00  0.00     0.274 HD
ATOM     20  H61 UNL     1      17.968  33.812  57.392  1.00  0.00     0.274 HD
ENDBRANCH  16  17
ENDBRANCH  15  16
ENDBRANCH  14  15
ENDBRANCH  13  14
ENDBRANCH  12  13
BRANCH   9  21
HETATM   21  C12 UNL     1      20.850  35.698  59.788  1.00  0.00     0.161 C 
BRANCH  21  22
HETATM   22  C13 UNL     1      21.752  36.866  60.098  1.00  0.00     0.184 C 
BRANCH  22  23
HETATM   23  O1  UNL     1      22.802  36.499  60.943  1.00  0.00    -0.399 OA
ATOM     24  H1  UNL     1      23.115  37.235  61.455  1.00  0.00     0.209 HD
ENDBRANCH  22  23
ENDBRANCH  21  22
ENDBRANCH   9  21
BRANCH   1  25
HETATM   25  C7  UNL     1      14.528  37.540  60.870  1.00  0.00    -0.045 C 
HETATM   26  C6  UNL     1      13.414  37.878  61.195  1.00  0.00    -0.100 C 
BRANCH  26  27
HETATM   27  C5  UNL     1      12.056  38.316  61.587  1.00  0.00     0.094 C 
BRANCH  27  28
HETATM   28  C4  UNL     1      11.405  37.147  62.295  1.00  0.00     0.012 C 
BRANCH  28  29
HETATM   29  C3  UNL     1       9.902  37.324  62.342  1.00  0.00     0.000 C 
BRANCH  29  30
HETATM   30  C2  UNL     1       9.503  38.723  61.935  1.00  0.00    -0.005 C 
HETATM   31  C1  UNL     1       8.114  39.077  62.371  1.00  0.00     0.005 C 
ENDBRANCH  29  30
ENDBRANCH  28  29
ENDBRANCH  27  28
ENDBRANCH  26  27
ENDBRANCH   1  25
BRANCH   8  32
HETATM   32  N3  UNL     1      16.437  36.830  62.665  1.00  0.00    -0.383 N 
ATOM     33  H32 UNL     1      15.467  37.003  62.928  1.00  0.00     0.157 HD
ATOM     34  H31 UNL     1      17.157  36.669  63.369  1.00  0.00     0.157 HD
ENDBRANCH   8  32
TORSDOF 14
ENDMDL
MODEL 3
REMARK VINA RESULT: -7.329920204      3.925      5.969
REMARK  14 active torsions:
REMARK  status: ('A' for Active; 'I' for Inactive)
REMARK    1  A    between atoms: C2_2  and  C3_3 
REMARK    2  A    between atoms: C3_3  and  C4_4 
REMARK    3  A    between atoms: C4_4  and  C5_5 
REMARK    4  A    between atoms: C5_5  and  C6_6 
REMARK    5  A    between atoms: C7_7  and  C8_8 
REMARK    6  A    between atoms: C11_15  and  N3_16 
REMARK    7  A    between atoms: N4_19  and  C12_20 
REMARK    8  A    between atoms: C12_20  and  C13_21 
REMARK    9  A    between atoms: C13_21  and  O1_22 
REMARK   10  A    between atoms: N5_26  and  C15_27 
REMARK   11  A    between atoms: C15_27  and  C16_28 
REMARK   12  A    between atoms: C16_28  and  C17_29 
REMARK   13  A    between atoms: C17_29  and  C18_30 
REMARK   14  A    between atoms: C18_30  and  N6_31 
ROOT
HETATM    1  C8  UNL     1      14.753  38.408  60.536  1.00  0.00     0.132 A 
HETATM    2  N1  UNL     1      14.909  39.667  60.088  1.00  0.00    -0.329 N 
ATOM      3  H1  UNL     1      14.203  40.358  60.343  1.00  0.00     0.168 HD
HETATM    4  C9  UNL     1      15.940  40.066  59.325  1.00  0.00     0.158 A 
HETATM    5  C10 UNL     1      16.916  39.125  58.968  1.00  0.00     0.158 A 
HETATM    6  N2  UNL     1      16.780  37.862  59.404  1.00  0.00    -0.323 N 
ATOM      7  H2  UNL     1      17.484  37.168  59.151  1.00  0.00     0.169 HD
HETATM    8  C11 UNL     1      15.737  37.494  60.166  1.00  0.00     0.136 A 
HETATM    9  N4  UNL     1      17.845  39.759  58.204  1.00  0.00    -0.280 N 
HETATM   10  C14 UNL     1      17.430  41.047  58.111  1.00  0.00     0.332 A 
HETATM   11  O2  UNL     1      18.045  41.932  57.477  1.00  0.00    -0.246 OA
HETATM   12  N5  UNL     1      16.303  41.235  58.773  1.00  0.00    -0.282 N 
ENDROOT
BRANCH  12  13
HETATM   13  C15 UNL     1      15.544  42.495  58.905  1.00  0.00     0.135 C 
BRANCH  13  14
HETATM   14  C16 UNL     1      15.941  43.232  60.134  1.00  0.00     0.022 C 
BRANCH  14  15
HETATM   15  C17 UNL     1      14.834  43.227  61.136  1.00  0.00     0.029 C 
BRANCH  15  16
HETATM   16  C18 UNL     1      14.353  44.622  61.425  1.00  0.00     0.229 C 
BRANCH  16  17
HETATM   17  N6  UNL     1      15.482  45.559  61.495  1.00  0.00    -0.079 N 
ATOM     18  H63 UNL     1      16.165  45.275  62.197  1.00  0.00     0.274 HD
ATOM     19  H62 UNL     1      16.076  45.496  60.668  1.00  0.00     0.274 HD
ATOM     20  H61 UNL     1      15.153  46.512  61.651  1.00  0.00     0.274 HD
ENDBRANCH  16  17
ENDBRANCH  15  16
ENDBRANCH  14  15
ENDBRANCH  13  14
ENDBRANCH  12  13
BRANCH   9  21
HETATM   21  C12 UNL     1      19.034  39.175  57.613  1.00  0.00     0.161 C 
BRANCH  21  22
HETATM   22  C13 UNL     1      18.724  38.434  56.336  1.00  0.00     0.184 C 
BRANCH  22  23
HETATM   23  O1  UNL     1      17.385  38.042  56.278  1.00  0.00    -0.399 OA
ATOM     24  H1  UNL     1      16.954  38.375  55.499  1.00  0.00     0.209 HD
ENDBRANCH  22  23
ENDBRANCH  21  22
ENDBRANCH   9  21
BRANCH   1  25
HETATM   25  C7  UNL     1      13.635  38.005  61.355  1.00  0.00    -0.045 C 
HETATM   26  C6  UNL     1      12.692  37.656  62.025  1.00  0.00    -0.100 C 
BRANCH  26  27
HETATM   27  C5  UNL     1      11.531  37.209  62.828  1.00  0.00     0.094 C 
BRANCH  27  28
HETATM   28  C4  UNL     1      10.295  37.471  61.995  1.00  0.00     0.012 C 
BRANCH  28  29
HETATM   29  C3  UNL     1      10.202  38.936  61.626  1.00  0.00     0.000 C 
BRANCH  29  30
HETATM   30  C2  UNL     1       8.847  39.504  61.979  1.00  0.00    -0.005 C 
HETATM   31  C1  UNL     1       7.932  38.480  62.583  1.00  0.00     0.005 C 
ENDBRANCH  29  30
ENDBRANCH  28  29
ENDBRANCH  27  28
ENDBRANCH  26  27
ENDBRANCH   1  25
BRANCH   8  32
HETATM   32  N3  UNL     1      15.594  36.288  60.590  1.00  0.00    -0.383 N 
ATOM     33  H32 UNL     1      14.860  36.031  61.250  1.00  0.00     0.157 HD
ATOM     34  H31 UNL     1      16.254  35.597  60.235  1.00  0.00     0.157 HD
ENDBRANCH   8  32
TORSDOF 14
ENDMDL
MODEL 4
REMARK VINA RESULT: -7.211222765      4.037      5.977
REMARK  14 active torsions:
REMARK  status: ('A' for Active; 'I' for Inactive)
REMARK    1  A    between atoms: C2_2  and  C3_3 
REMARK    2  A    between atoms: C3_3  and  C4_4 
REMARK    3  A    between atoms: C4_4  and  C5_5 
REMARK    4  A    between atoms: C5_5  and  C6_6 
REMARK    5  A    between atoms: C7_7  and  C8_8 
REMARK    6  A    between atoms: C11_15  and  N3_16 
REMARK    7  A    between atoms: N4_19  and  C12_20 
REMARK    8  A    between atoms: C12_20  and  C13_21 
REMARK    9  A    between atoms: C13_21  and  O1_22 
REMARK   10  A    between atoms: N5_26  and  C15_27 
REMARK   11  A    between atoms: C15_27  and  C16_28 
REMARK   12  A    between atoms: C16_28  and  C17_29 
REMARK   13  A    between atoms: C17_29  and  C18_30 
REMARK   14  A    between atoms: C18_30  and  N6_31 
ROOT
HETATM    1  C8  UNL     1      15.121  38.329  60.445  1.00  0.00     0.132 A 
HETATM    2  N1  UNL     1      15.199  39.611  60.044  1.00  0.00    -0.329 N 
ATOM      3  H1  UNL     1      14.494  40.265  60.385  1.00  0.00     0.168 HD
HETATM    4  C9  UNL     1      16.152  40.079  59.220  1.00  0.00     0.158 A 
HETATM    5  C10 UNL     1      17.125  39.189  58.743  1.00  0.00     0.158 A 
HETATM    6  N2  UNL     1      17.065  37.904  59.132  1.00  0.00    -0.323 N 
ATOM      7  H2  UNL     1      17.768  37.247  58.793  1.00  0.00     0.169 HD
HETATM    8  C11 UNL     1      16.100  37.468  59.957  1.00  0.00     0.136 A 
HETATM    9  N4  UNL     1      17.968  39.887  57.938  1.00  0.00    -0.280 N 
HETATM   10  C14 UNL     1      17.506  41.163  57.936  1.00  0.00     0.332 A 
HETATM   11  O2  UNL     1      18.039  42.095  57.296  1.00  0.00    -0.246 OA
HETATM   12  N5  UNL     1      16.431  41.282  58.694  1.00  0.00    -0.282 N 
ENDROOT
BRANCH  12  13
HETATM   13  C15 UNL     1      15.645  42.508  58.942  1.00  0.00     0.135 C 
BRANCH  13  14
HETATM   14  C16 UNL     1      16.047  43.151  60.222  1.00  0.00     0.022 C 
BRANCH  14  15
HETATM   15  C17 UNL     1      14.853  43.667  60.954  1.00  0.00     0.029 C 
BRANCH  15  16
HETATM   16  C18 UNL     1      15.039  45.105  61.355  1.00  0.00     0.229 C 
BRANCH  16  17
HETATM   17  N6  UNL     1      13.768  45.692  61.797  1.00  0.00    -0.079 N 
ATOM     18  H63 UNL     1      13.250  46.098  61.018  1.00  0.00     0.274 HD
ATOM     19  H62 UNL     1      13.096  44.975  62.071  1.00  0.00     0.274 HD
ATOM     20  H61 UNL     1      13.922  46.370  62.543  1.00  0.00     0.274 HD
ENDBRANCH  16  17
ENDBRANCH  15  16
ENDBRANCH  14  15
ENDBRANCH  13  14
ENDBRANCH  12  13
BRANCH   9  21
HETATM   21  C12 UNL     1      19.124  39.372  57.228  1.00  0.00     0.161 C 
BRANCH  21  22
HETATM   22  C13 UNL     1      20.276  39.087  58.158  1.00  0.00     0.184 C 
BRANCH  22  23
HETATM   23  O1  UNL     1      20.253  37.770  58.622  1.00  0.00    -0.399 OA
ATOM     24  H1  UNL     1      19.365  37.449  58.728  1.00  0.00     0.209 HD
ENDBRANCH  22  23
ENDBRANCH  21  22
ENDBRANCH   9  21
BRANCH   1  25
HETATM   25  C7  UNL     1      14.086  37.852  61.331  1.00  0.00    -0.045 C 
HETATM   26  C6  UNL     1      13.209  37.446  62.057  1.00  0.00    -0.100 C 
BRANCH  26  27
HETATM   27  C5  UNL     1      12.125  36.933  62.925  1.00  0.00     0.094 C 
BRANCH  27  28
HETATM   28  C4  UNL     1      10.892  36.806  62.058  1.00  0.00     0.012 C 
BRANCH  28  29
HETATM   29  C3  UNL     1       9.675  37.341  62.782  1.00  0.00     0.000 C 
BRANCH  29  30
HETATM   30  C2  UNL     1       8.940  38.357  61.937  1.00  0.00    -0.005 C 
HETATM   31  C1  UNL     1       9.839  39.444  61.430  1.00  0.00     0.005 C 
ENDBRANCH  29  30
ENDBRANCH  28  29
ENDBRANCH  27  28
ENDBRANCH  26  27
ENDBRANCH   1  25
BRANCH   8  32
HETATM   32  N3  UNL     1      16.031  36.241  60.336  1.00  0.00    -0.383 N 
ATOM     33  H32 UNL     1      15.391  35.576  59.901  1.00  0.00     0.157 HD
ATOM     34  H31 UNL     1      16.649  35.961  61.097  1.00  0.00     0.157 HD
ENDBRANCH   8  32
TORSDOF 14
ENDMDL
MODEL 5
REMARK VINA RESULT: -7.162815264      1.948      2.857
REMARK  14 active torsions:
REMARK  status: ('A' for Active; 'I' for Inactive)
REMARK    1  A    between atoms: C2_2  and  C3_3 
REMARK    2  A    between atoms: C3_3  and  C4_4 
REMARK    3  A    between atoms: C4_4  and  C5_5 
REMARK    4  A    between atoms: C5_5  and  C6_6 
REMARK    5  A    between atoms: C7_7  and  C8_8 
REMARK    6  A    between atoms: C11_15  and  N3_16 
REMARK    7  A    between atoms: N4_19  and  C12_20 
REMARK    8  A    between atoms: C12_20  and  C13_21 
REMARK    9  A    between atoms: C13_21  and  O1_22 
REMARK   10  A    between atoms: N5_26  and  C15_27 
REMARK   11  A    between atoms: C15_27  and  C16_28 
REMARK   12  A    between atoms: C16_28  and  C17_29 
REMARK   13  A    between atoms: C17_29  and  C18_30 
REMARK   14  A    between atoms: C18_30  and  N6_31 
ROOT
HETATM    1  C8  UNL     1      15.509  37.732  60.204  1.00  0.00     0.132 A 
HETATM    2  N1  UNL     1      16.409  36.752  60.002  1.00  0.00    -0.329 N 
ATOM      3  H1  UNL     1      16.250  35.852  60.457  1.00  0.00     0.168 HD
HETATM    4  C9  UNL     1      17.504  36.890  59.235  1.00  0.00     0.158 A 
HETATM    5  C10 UNL     1      17.733  38.121  58.605  1.00  0.00     0.158 A 
HETATM    6  N2  UNL     1      16.847  39.113  58.793  1.00  0.00    -0.323 N 
ATOM      7  H2  UNL     1      17.002  40.014  58.340  1.00  0.00     0.169 HD
HETATM    8  C11 UNL     1      15.761  38.943  59.566  1.00  0.00     0.136 A 
HETATM    9  N4  UNL     1      18.887  38.016  57.895  1.00  0.00    -0.280 N 
HETATM   10  C14 UNL     1      19.333  36.751  58.098  1.00  0.00     0.332 A 
HETATM   11  O2  UNL     1      20.381  36.294  57.595  1.00  0.00    -0.246 OA
HETATM   12  N5  UNL     1      18.518  36.079  58.891  1.00  0.00    -0.282 N 
ENDROOT
BRANCH  12  13
HETATM   13  C15 UNL     1      18.663  34.681  59.343  1.00  0.00     0.135 C 
BRANCH  13  14
HETATM   14  C16 UNL     1      17.671  33.797  58.674  1.00  0.00     0.022 C 
BRANCH  14  15
HETATM   15  C17 UNL     1      17.717  33.974  57.192  1.00  0.00     0.029 C 
BRANCH  15  16
HETATM   16  C18 UNL     1      16.369  34.357  56.647  1.00  0.00     0.229 C 
BRANCH  16  17
HETATM   17  N6  UNL     1      16.399  35.712  56.084  1.00  0.00    -0.079 N 
ATOM     18  H63 UNL     1      16.058  36.405  56.750  1.00  0.00     0.274 HD
ATOM     19  H62 UNL     1      17.354  36.057  55.980  1.00  0.00     0.274 HD
ATOM     20  H61 UNL     1      15.887  35.751  55.203  1.00  0.00     0.274 HD
ENDBRANCH  16  17
ENDBRANCH  15  16
ENDBRANCH  14  15
ENDBRANCH  13  14
ENDBRANCH  12  13
BRANCH   9  21
HETATM   21  C12 UNL     1      19.511  39.047  57.086  1.00  0.00     0.161 C 
BRANCH  21  22
HETATM   22  C13 UNL     1      19.494  38.700  55.619  1.00  0.00     0.184 C 
BRANCH  22  23
HETATM   23  O1  UNL     1      18.237  38.252  55.207  1.00  0.00    -0.399 OA
ATOM     24  H1  UNL     1      18.282  37.389  54.814  1.00  0.00     0.209 HD
ENDBRANCH  22  23
ENDBRANCH  21  22
ENDBRANCH   9  21
BRANCH   1  25
HETATM   25  C7  UNL     1      14.340  37.557  61.033  1.00  0.00    -0.045 C 
HETATM   26  C6  UNL     1      13.357  37.393  61.716  1.00  0.00    -0.100 C 
BRANCH  26  27
HETATM   27  C5  UNL     1      12.150  37.168  62.543  1.00  0.00     0.094 C 
BRANCH  27  28
HETATM   28  C4  UNL     1      11.017  37.921  61.881  1.00  0.00     0.012 C 
BRANCH  28  29
HETATM   29  C3  UNL     1       9.687  37.514  62.478  1.00  0.00     0.000 C 
BRANCH  29  30
HETATM   30  C2  UNL     1       8.626  38.556  62.207  1.00  0.00    -0.005 C 
HETATM   31  C1  UNL     1       9.195  39.833  61.667  1.00  0.00     0.005 C 
ENDBRANCH  29  30
ENDBRANCH  28  29
ENDBRANCH  27  28
ENDBRANCH  26  27
ENDBRANCH   1  25
BRANCH   8  32
HETATM   32  N3  UNL     1      14.906  39.885  59.755  1.00  0.00    -0.383 N 
ATOM     33  H32 UNL     1      14.377  39.968  60.623  1.00  0.00     0.157 HD
ATOM     34  H31 UNL     1      14.779  40.548  58.991  1.00  0.00     0.157 HD
ENDBRANCH   8  32
TORSDOF 14
ENDMDL
