MODEL 1
REMARK VINA RESULT: -6.833753080      0.000      0.000
REMARK  11 active torsions:
REMARK  status: ('A' for Active; 'I' for Inactive)
REMARK    1  A    between atoms: C2_2  and  N1_3 
REMARK    2  A    between atoms: N1_3  and  C3_4 
REMARK    3  A    between atoms: N1_3  and  C5_6 
REMARK    4  A    between atoms: C5_6  and  C6_7 
REMARK    5  A    between atoms: C6_7  and  N2_8 
REMARK    6  A    between atoms: N2_8  and  C7_9 
REMARK    7  A    between atoms: N2_8  and  C9_13 
REMARK    8  A    between atoms: C7_9  and  C8_10 
REMARK    9  A    between atoms: C8_10  and  O1_11 
REMARK   10  A    between atoms: C9_13  and  C10_14 
REMARK   11  A    between atoms: C13_19  and  N4_20 
ROOT
HETATM    1  C10 UNL     1      15.932  39.554  59.538  1.00  0.00     0.030 A 
HETATM    2  C11 UNL     1      16.305  40.864  59.201  1.00  0.00     0.021 A 
HETATM    3  C12 UNL     1      15.512  42.021  59.622  1.00  0.00     0.069 C 
HETATM    4  N3  UNL     1      17.365  41.063  58.394  1.00  0.00    -0.344 N 
ATOM      5  H3  UNL     1      17.632  42.019  58.163  1.00  0.00     0.167 HD
HETATM    6  C13 UNL     1      18.083  40.053  57.883  1.00  0.00     0.128 A 
HETATM    7  C14 UNL     1      17.723  38.754  58.183  1.00  0.00     0.106 A 
HETATM    8  N5  UNL     1      18.143  37.576  57.772  1.00  0.00    -0.329 N 
ATOM      9  H5  UNL     1      18.937  37.451  57.144  1.00  0.00     0.168 HD
HETATM   10  C15 UNL     1      17.419  36.549  58.266  1.00  0.00     0.189 A 
HETATM   11  C16 UNL     1      17.568  35.139  57.974  1.00  0.00     0.137 C 
HETATM   12  N6  UNL     1      17.683  34.001  57.677  1.00  0.00    -0.188 NA
HETATM   13  N7  UNL     1      16.488  37.146  59.044  1.00  0.00    -0.331 N 
ATOM     14  H7  UNL     1      15.772  36.650  59.575  1.00  0.00     0.168 HD
HETATM   15  C17 UNL     1      16.633  38.483  59.022  1.00  0.00     0.078 A 
ENDROOT
BRANCH   6  16
HETATM   16  N4  UNL     1      19.124  40.258  57.123  1.00  0.00    -0.384 N 
ATOM     17  H42 UNL     1      19.435  39.511  56.502  1.00  0.00     0.157 HD
ATOM     18  H41 UNL     1      19.643  41.136  57.141  1.00  0.00     0.157 HD
ENDBRANCH   6  16
BRANCH   1  19
HETATM   19  C9  UNL     1      14.712  39.383  60.300  1.00  0.00     0.101 C 
BRANCH  19  20
HETATM   20  N2  UNL     1      14.359  38.336  61.046  1.00  0.00    -0.385 N 
BRANCH  20  21
HETATM   21  C6  UNL     1      13.155  37.659  61.188  1.00  0.00     0.152 C 
BRANCH  21  22
HETATM   22  C5  UNL     1      12.040  38.691  61.444  1.00  0.00     0.292 C 
BRANCH  22  23
HETATM   23  N1  UNL     1      10.683  38.241  61.387  1.00  0.00     0.089 N 
BRANCH  23  24
HETATM   24  C2  UNL     1       9.919  39.544  61.463  1.00  0.00     0.268 C 
HETATM   25  C1  UNL     1       8.542  39.211  61.980  1.00  0.00     0.037 C 
ENDBRANCH  23  24
BRANCH  23  26
HETATM   26  C3  UNL     1      10.335  37.549  62.648  1.00  0.00     0.268 C 
HETATM   27  C4  UNL     1      10.504  36.077  62.588  1.00  0.00     0.037 C 
ENDBRANCH  23  26
ENDBRANCH  22  23
ENDBRANCH  21  22
ENDBRANCH  20  21
BRANCH  20  28
HETATM   28  C7  UNL     1      15.108  38.243  62.311  1.00  0.00     0.148 C 
BRANCH  28  29
HETATM   29  C8  UNL     1      15.778  36.995  62.626  1.00  0.00     0.183 C 
BRANCH  29  30
HETATM   30  O1  UNL     1      16.940  36.761  61.898  1.00  0.00    -0.399 OA
ATOM     31  H1  UNL     1      16.803  36.615  60.970  1.00  0.00     0.209 HD
ENDBRANCH  29  30
ENDBRANCH  28  29
ENDBRANCH  20  28
ENDBRANCH  19  20
ENDBRANCH   1  19
TORSDOF 11
ENDMDL
MODEL 2
REMARK VINA RESULT: -6.781631567      2.168      6.465
REMARK  11 active torsions:
REMARK  status: ('A' for Active; 'I' for Inactive)
REMARK    1  A    between atoms: C2_2  and  N1_3 
REMARK    2  A    between atoms: N1_3  and  C3_4 
REMARK    3  A    between atoms: N1_3  and  C5_6 
REMARK    4  A    between atoms: C5_6  and  C6_7 
REMARK    5  A    between atoms: C6_7  and  N2_8 
REMARK    6  A    between atoms: N2_8  and  C7_9 
REMARK    7  A    between atoms: N2_8  and  C9_13 
REMARK    8  A    between atoms: C7_9  and  C8_10 
REMARK    9  A    between atoms: C8_10  and  O1_11 
REMARK   10  A    between atoms: C9_13  and  C10_14 
REMARK   11  A    between atoms: C13_19  and  N4_20 
ROOT
HETATM    1  C10 UNL     1      17.541  38.906  58.513  1.00  0.00     0.030 A 
HETATM    2  C11 UNL     1      18.087  40.071  57.954  1.00  0.00     0.021 A 
HETATM    3  C12 UNL     1      19.386  40.063  57.277  1.00  0.00     0.069 C 
HETATM    4  N3  UNL     1      17.449  41.246  58.121  1.00  0.00    -0.344 N 
ATOM      5  H3  UNL     1      17.851  42.085  57.704  1.00  0.00     0.167 HD
HETATM    6  C13 UNL     1      16.308  41.356  58.815  1.00  0.00     0.128 A 
HETATM    7  C14 UNL     1      15.761  40.226  59.392  1.00  0.00     0.106 A 
HETATM    8  N5  UNL     1      14.740  40.019  60.197  1.00  0.00    -0.329 N 
ATOM      9  H5  UNL     1      14.095  40.755  60.486  1.00  0.00     0.168 HD
HETATM   10  C15 UNL     1      14.630  38.735  60.601  1.00  0.00     0.189 A 
HETATM   11  C16 UNL     1      13.668  38.177  61.527  1.00  0.00     0.137 C 
HETATM   12  N6  UNL     1      12.900  37.763  62.324  1.00  0.00    -0.188 NA
HETATM   13  N7  UNL     1      15.661  38.109  59.990  1.00  0.00    -0.331 N 
ATOM     14  H7  UNL     1      15.870  37.114  60.080  1.00  0.00     0.168 HD
HETATM   15  C17 UNL     1      16.375  38.974  59.248  1.00  0.00     0.078 A 
ENDROOT
BRANCH   6  16
HETATM   16  N4  UNL     1      15.685  42.495  58.948  1.00  0.00    -0.384 N 
ATOM     17  H42 UNL     1      15.668  42.942  59.865  1.00  0.00     0.157 HD
ATOM     18  H41 UNL     1      15.203  42.943  58.169  1.00  0.00     0.157 HD
ENDBRANCH   6  16
BRANCH   1  19
HETATM   19  C9  UNL     1      18.324  37.691  58.419  1.00  0.00     0.101 C 
BRANCH  19  20
HETATM   20  N2  UNL     1      18.060  36.606  57.690  1.00  0.00    -0.385 N 
BRANCH  20  21
HETATM   21  C6  UNL     1      17.465  36.445  56.447  1.00  0.00     0.152 C 
BRANCH  21  22
HETATM   22  C5  UNL     1      16.607  35.165  56.475  1.00  0.00     0.292 C 
BRANCH  22  23
HETATM   23  N1  UNL     1      16.322  34.521  55.230  1.00  0.00     0.089 N 
BRANCH  23  24
HETATM   24  C2  UNL     1      16.672  33.082  55.537  1.00  0.00     0.268 C 
HETATM   25  C1  UNL     1      18.132  32.909  55.203  1.00  0.00     0.037 C 
ENDBRANCH  23  24
BRANCH  23  26
HETATM   26  C3  UNL     1      17.325  34.924  54.219  1.00  0.00     0.268 C 
HETATM   27  C4  UNL     1      16.733  35.437  52.961  1.00  0.00     0.037 C 
ENDBRANCH  23  26
ENDBRANCH  22  23
ENDBRANCH  21  22
ENDBRANCH  20  21
BRANCH  20  28
HETATM   28  C7  UNL     1      17.791  35.409  58.505  1.00  0.00     0.148 C 
BRANCH  28  29
HETATM   29  C8  UNL     1      18.115  35.449  59.919  1.00  0.00     0.183 C 
BRANCH  29  30
HETATM   30  O1  UNL     1      17.019  35.596  60.762  1.00  0.00    -0.399 OA
ATOM     31  H1  UNL     1      17.230  35.901  61.636  1.00  0.00     0.209 HD
ENDBRANCH  29  30
ENDBRANCH  28  29
ENDBRANCH  20  28
ENDBRANCH  19  20
ENDBRANCH   1  19
TORSDOF 11
ENDMDL
MODEL 3
REMARK VINA RESULT: -6.709911008      0.455      1.293
REMARK  11 active torsions:
REMARK  status: ('A' for Active; 'I' for Inactive)
REMARK    1  A    between atoms: C2_2  and  N1_3 
REMARK    2  A    between atoms: N1_3  and  C3_4 
REMARK    3  A    between atoms: N1_3  and  C5_6 
REMARK    4  A    between atoms: C5_6  and  C6_7 
REMARK    5  A    between atoms: C6_7  and  N2_8 
REMARK    6  A    between atoms: N2_8  and  C7_9 
REMARK    7  A    between atoms: N2_8  and  C9_13 
REMARK    8  A    between atoms: C7_9  and  C8_10 
REMARK    9  A    between atoms: C8_10  and  O1_11 
REMARK   10  A    between atoms: C9_13  and  C10_14 
REMARK   11  A    between atoms: C13_19  and  N4_20 
ROOT
HETATM    1  C10 UNL     1      15.908  39.418  59.567  1.00  0.00     0.030 A 
HETATM    2  C11 UNL     1      16.282  40.736  59.266  1.00  0.00     0.021 A 
HETATM    3  C12 UNL     1      15.480  41.881  59.705  1.00  0.00     0.069 C 
HETATM    4  N3  UNL     1      17.352  40.956  58.479  1.00  0.00    -0.344 N 
ATOM      5  H3  UNL     1      17.619  41.919  58.275  1.00  0.00     0.167 HD
HETATM    6  C13 UNL     1      18.080  39.961  57.954  1.00  0.00     0.128 A 
HETATM    7  C14 UNL     1      17.719  38.655  58.218  1.00  0.00     0.106 A 
HETATM    8  N5  UNL     1      18.148  37.487  57.785  1.00  0.00    -0.329 N 
ATOM      9  H5  UNL     1      18.950  37.379  57.164  1.00  0.00     0.168 HD
HETATM   10  C15 UNL     1      17.419  36.447  58.244  1.00  0.00     0.189 A 
HETATM   11  C16 UNL     1      17.576  35.045  57.920  1.00  0.00     0.137 C 
HETATM   12  N6  UNL     1      17.699  33.914  57.598  1.00  0.00    -0.188 NA
HETATM   13  N7  UNL     1      16.476  37.024  59.023  1.00  0.00    -0.331 N 
ATOM     14  H7  UNL     1      15.755  36.514  59.532  1.00  0.00     0.168 HD
HETATM   15  C17 UNL     1      16.618  38.361  59.035  1.00  0.00     0.078 A 
ENDROOT
BRANCH   6  16
HETATM   16  N4  UNL     1      19.130  40.187  57.213  1.00  0.00    -0.384 N 
ATOM     17  H42 UNL     1      19.523  41.128  57.190  1.00  0.00     0.157 HD
ATOM     18  H41 UNL     1      19.562  39.455  56.649  1.00  0.00     0.157 HD
ENDBRANCH   6  16
BRANCH   1  19
HETATM   19  C9  UNL     1      14.678  39.226  60.308  1.00  0.00     0.101 C 
BRANCH  19  20
HETATM   20  N2  UNL     1      14.364  38.210  61.113  1.00  0.00    -0.385 N 
BRANCH  20  21
HETATM   21  C6  UNL     1      13.168  37.545  61.345  1.00  0.00     0.152 C 
BRANCH  21  22
HETATM   22  C5  UNL     1      12.028  38.580  61.382  1.00  0.00     0.292 C 
BRANCH  22  23
HETATM   23  N1  UNL     1      10.857  38.264  62.141  1.00  0.00     0.089 N 
BRANCH  23  24
HETATM   24  C2  UNL     1      10.704  36.783  61.874  1.00  0.00     0.268 C 
HETATM   25  C1  UNL     1      10.619  36.105  63.218  1.00  0.00     0.037 C 
ENDBRANCH  23  24
BRANCH  23  26
HETATM   26  C3  UNL     1       9.669  38.868  61.498  1.00  0.00     0.268 C 
HETATM   27  C4  UNL     1       8.445  38.813  62.333  1.00  0.00     0.037 C 
ENDBRANCH  23  26
ENDBRANCH  22  23
ENDBRANCH  21  22
ENDBRANCH  20  21
BRANCH  20  28
HETATM   28  C7  UNL     1      15.178  38.167  62.340  1.00  0.00     0.148 C 
BRANCH  28  29
HETATM   29  C8  UNL     1      16.198  37.141  62.454  1.00  0.00     0.183 C 
BRANCH  29  30
HETATM   30  O1  UNL     1      15.994  36.027  61.647  1.00  0.00    -0.399 OA
ATOM     31  H1  UNL     1      16.789  35.619  61.327  1.00  0.00     0.209 HD
ENDBRANCH  29  30
ENDBRANCH  28  29
ENDBRANCH  20  28
ENDBRANCH  19  20
ENDBRANCH   1  19
TORSDOF 11
ENDMDL
MODEL 4
REMARK VINA RESULT: -6.675075744      2.167      6.487
REMARK  11 active torsions:
REMARK  status: ('A' for Active; 'I' for Inactive)
REMARK    1  A    between atoms: C2_2  and  N1_3 
REMARK    2  A    between atoms: N1_3  and  C3_4 
REMARK    3  A    between atoms: N1_3  and  C5_6 
REMARK    4  A    between atoms: C5_6  and  C6_7 
REMARK    5  A    between atoms: C6_7  and  N2_8 
REMARK    6  A    between atoms: N2_8  and  C7_9 
REMARK    7  A    between atoms: N2_8  and  C9_13 
REMARK    8  A    between atoms: C7_9  and  C8_10 
REMARK    9  A    between atoms: C8_10  and  O1_11 
REMARK   10  A    between atoms: C9_13  and  C10_14 
REMARK   11  A    between atoms: C13_19  and  N4_20 
ROOT
HETATM    1  C10 UNL     1      17.523  38.930  58.520  1.00  0.00     0.030 A 
HETATM    2  C11 UNL     1      18.061  40.099  57.964  1.00  0.00     0.021 A 
HETATM    3  C12 UNL     1      19.358  40.100  57.282  1.00  0.00     0.069 C 
HETATM    4  N3  UNL     1      17.419  41.271  58.139  1.00  0.00    -0.344 N 
ATOM      5  H3  UNL     1      17.815  42.113  57.722  1.00  0.00     0.167 HD
HETATM    6  C13 UNL     1      16.280  41.373  58.837  1.00  0.00     0.128 A 
HETATM    7  C14 UNL     1      15.741  40.238  59.412  1.00  0.00     0.106 A 
HETATM    8  N5  UNL     1      14.724  40.024  60.220  1.00  0.00    -0.329 N 
ATOM      9  H5  UNL     1      14.077  40.755  60.515  1.00  0.00     0.168 HD
HETATM   10  C15 UNL     1      14.621  38.738  60.619  1.00  0.00     0.189 A 
HETATM   11  C16 UNL     1      13.665  38.172  61.547  1.00  0.00     0.137 C 
HETATM   12  N6  UNL     1      12.902  37.751  62.345  1.00  0.00    -0.188 NA
HETATM   13  N7  UNL     1      15.653  38.118  60.002  1.00  0.00    -0.331 N 
ATOM     14  H7  UNL     1      15.866  37.124  60.087  1.00  0.00     0.168 HD
HETATM   15  C17 UNL     1      16.360  38.990  59.261  1.00  0.00     0.078 A 
ENDROOT
BRANCH   6  16
HETATM   16  N4  UNL     1      15.652  42.508  58.977  1.00  0.00    -0.384 N 
ATOM     17  H42 UNL     1      16.067  43.230  59.567  1.00  0.00     0.157 HD
ATOM     18  H41 UNL     1      14.756  42.691  58.527  1.00  0.00     0.157 HD
ENDBRANCH   6  16
BRANCH   1  19
HETATM   19  C9  UNL     1      18.311  37.719  58.419  1.00  0.00     0.101 C 
BRANCH  19  20
HETATM   20  N2  UNL     1      18.061  36.645  57.668  1.00  0.00    -0.385 N 
BRANCH  20  21
HETATM   21  C6  UNL     1      17.610  36.509  56.363  1.00  0.00     0.152 C 
BRANCH  21  22
HETATM   22  C5  UNL     1      18.669  35.734  55.556  1.00  0.00     0.292 C 
BRANCH  22  23
HETATM   23  N1  UNL     1      18.216  34.735  54.637  1.00  0.00     0.089 N 
BRANCH  23  24
HETATM   24  C2  UNL     1      16.794  35.178  54.373  1.00  0.00     0.268 C 
HETATM   25  C1  UNL     1      16.721  35.561  52.916  1.00  0.00     0.037 C 
ENDBRANCH  23  24
BRANCH  23  26
HETATM   26  C3  UNL     1      18.062  33.443  55.343  1.00  0.00     0.268 C 
HETATM   27  C4  UNL     1      16.655  33.099  55.659  1.00  0.00     0.037 C 
ENDBRANCH  23  26
ENDBRANCH  22  23
ENDBRANCH  21  22
ENDBRANCH  20  21
BRANCH  20  28
HETATM   28  C7  UNL     1      17.614  35.479  58.450  1.00  0.00     0.148 C 
BRANCH  28  29
HETATM   29  C8  UNL     1      18.013  35.388  59.842  1.00  0.00     0.183 C 
BRANCH  29  30
HETATM   30  O1  UNL     1      16.977  35.549  60.755  1.00  0.00    -0.399 OA
ATOM     31  H1  UNL     1      17.165  36.149  61.466  1.00  0.00     0.209 HD
ENDBRANCH  29  30
ENDBRANCH  28  29
ENDBRANCH  20  28
ENDBRANCH  19  20
ENDBRANCH   1  19
TORSDOF 11
ENDMDL
MODEL 5
REMARK VINA RESULT: -6.613976399      2.831      7.166
REMARK  11 active torsions:
REMARK  status: ('A' for Active; 'I' for Inactive)
REMARK    1  A    between atoms: C2_2  and  N1_3 
REMARK    2  A    between atoms: N1_3  and  C3_4 
REMARK    3  A    between atoms: N1_3  and  C5_6 
REMARK    4  A    between atoms: C5_6  and  C6_7 
REMARK    5  A    between atoms: C6_7  and  N2_8 
REMARK    6  A    between atoms: N2_8  and  C7_9 
REMARK    7  A    between atoms: N2_8  and  C9_13 
REMARK    8  A    between atoms: C7_9  and  C8_10 
REMARK    9  A    between atoms: C8_10  and  O1_11 
REMARK   10  A    between atoms: C9_13  and  C10_14 
REMARK   11  A    between atoms: C13_19  and  N4_20 
ROOT
HETATM    1  C10 UNL     1      17.133  38.332  58.704  1.00  0.00     0.030 A 
HETATM    2  C11 UNL     1      17.682  39.484  58.122  1.00  0.00     0.021 A 
HETATM    3  C12 UNL     1      18.896  39.428  57.304  1.00  0.00     0.069 C 
HETATM    4  N3  UNL     1      17.137  40.686  58.394  1.00  0.00    -0.344 N 
ATOM      5  H3  UNL     1      17.540  41.515  57.958  1.00  0.00     0.167 HD
HETATM    6  C13 UNL     1      16.088  40.835  59.213  1.00  0.00     0.128 A 
HETATM    7  C14 UNL     1      15.543  39.718  59.815  1.00  0.00     0.106 A 
HETATM    8  N5  UNL     1      14.606  39.540  60.723  1.00  0.00    -0.329 N 
ATOM      9  H5  UNL     1      14.042  40.300  61.104  1.00  0.00     0.168 HD
HETATM   10  C15 UNL     1      14.465  38.250  61.100  1.00  0.00     0.189 A 
HETATM   11  C16 UNL     1      13.580  37.715  62.111  1.00  0.00     0.137 C 
HETATM   12  N6  UNL     1      12.881  37.316  62.977  1.00  0.00    -0.188 NA
HETATM   13  N7  UNL     1      15.384  37.589  60.359  1.00  0.00    -0.331 N 
ATOM     14  H7  UNL     1      15.541  36.582  60.397  1.00  0.00     0.168 HD
HETATM   15  C17 UNL     1      16.062  38.439  59.567  1.00  0.00     0.078 A 
ENDROOT
BRANCH   6  16
HETATM   16  N4  UNL     1      15.552  42.001  59.448  1.00  0.00    -0.384 N 
ATOM     17  H42 UNL     1      16.164  42.794  59.640  1.00  0.00     0.157 HD
ATOM     18  H41 UNL     1      14.542  42.141  59.460  1.00  0.00     0.157 HD
ENDBRANCH   6  16
BRANCH   1  19
HETATM   19  C9  UNL     1      17.828  37.080  58.489  1.00  0.00     0.101 C 
BRANCH  19  20
HETATM   20  N2  UNL     1      18.363  36.277  59.410  1.00  0.00    -0.385 N 
BRANCH  20  21
HETATM   21  C6  UNL     1      19.439  36.441  60.272  1.00  0.00     0.152 C 
BRANCH  21  22
HETATM   22  C5  UNL     1      20.727  36.551  59.435  1.00  0.00     0.292 C 
BRANCH  22  23
HETATM   23  N1  UNL     1      21.407  37.809  59.412  1.00  0.00     0.089 N 
BRANCH  23  24
HETATM   24  C2  UNL     1      22.268  37.675  58.176  1.00  0.00     0.268 C 
HETATM   25  C1  UNL     1      21.523  36.775  57.223  1.00  0.00     0.037 C 
ENDBRANCH  23  24
BRANCH  23  26
HETATM   26  C3  UNL     1      22.384  37.868  60.523  1.00  0.00     0.268 C 
HETATM   27  C4  UNL     1      23.365  36.757  60.514  1.00  0.00     0.037 C 
ENDBRANCH  23  26
ENDBRANCH  22  23
ENDBRANCH  21  22
ENDBRANCH  20  21
BRANCH  20  28
HETATM   28  C7  UNL     1      18.227  34.847  59.086  1.00  0.00     0.148 C 
BRANCH  28  29
HETATM   29  C8  UNL     1      17.891  34.477  57.724  1.00  0.00     0.183 C 
BRANCH  29  30
HETATM   30  O1  UNL     1      16.873  33.537  57.612  1.00  0.00    -0.399 OA
ATOM     31  H1  UNL     1      16.234  33.724  56.935  1.00  0.00     0.209 HD
ENDBRANCH  29  30
ENDBRANCH  28  29
ENDBRANCH  20  28
ENDBRANCH  19  20
ENDBRANCH   1  19
TORSDOF 11
ENDMDL
