MODEL 1
REMARK VINA RESULT: -7.727982603      0.000      0.000
REMARK  12 active torsions:
REMARK  status: ('A' for Active; 'I' for Inactive)
REMARK    1  A    between atoms: N1_1  and  C1_4 
REMARK    2  A    between atoms: C2_7  and  N3_8 
REMARK    3  A    between atoms: N3_8  and  C3_10 
REMARK    4  A    between atoms: C3_10  and  C4_11 
REMARK    5  A    between atoms: C4_11  and  C5_12 
REMARK    6  A    between atoms: C5_12  and  C6_13 
REMARK    7  A    between atoms: C6_13  and  C7_14 
REMARK    8  A    between atoms: C7_14  and  N4_15 
REMARK    9  A    between atoms: N7_24  and  C13_25 
REMARK   10  A    between atoms: C13_25  and  C14_26 
REMARK   11  A    between atoms: C14_26  and  C15_27 
REMARK   12  A    between atoms: C15_27  and  O1_28 
ROOT
HETATM    1  C1  UNL     1      15.622  39.176  59.596  1.00  0.00     0.679 A 
HETATM    2  N2  UNL     1      15.299  38.807  60.833  1.00  0.00    -0.175 N 
ATOM      3  H2  UNL     1      14.657  39.405  61.351  1.00  0.00     0.186 HD
HETATM    4  C2  UNL     1      15.761  37.693  61.457  1.00  0.00     0.148 A 
HETATM    5  C12 UNL     1      16.627  36.920  60.707  1.00  0.00     0.136 A 
HETATM    6  N5  UNL     1      17.281  35.777  60.960  1.00  0.00    -0.277 N 
ATOM      7  H5  UNL     1      17.239  35.243  61.828  1.00  0.00     0.184 HD
HETATM    8  N6  UNL     1      18.001  35.456  59.872  1.00  0.00    -0.018 NA
HETATM    9  N7  UNL     1      17.803  36.388  58.939  1.00  0.00    -0.258 N 
HETATM   10  C16 UNL     1      16.958  37.306  59.428  1.00  0.00     0.168 A 
HETATM   11  N8  UNL     1      16.462  38.430  58.866  1.00  0.00    -0.173 N 
ATOM     12  H8  UNL     1      16.719  38.701  57.917  1.00  0.00     0.186 HD
ENDROOT
BRANCH   4  13
HETATM   13  N3  UNL     1      15.435  37.352  62.656  1.00  0.00    -0.374 N 
ATOM     14  H3  UNL     1      15.973  37.672  63.461  1.00  0.00     0.161 HD
BRANCH  13  15
HETATM   15  C3  UNL     1      14.272  36.496  62.821  1.00  0.00     0.121 C 
BRANCH  15  16
HETATM   16  C4  UNL     1      13.013  37.268  63.015  1.00  0.00     0.020 C 
BRANCH  16  17
HETATM   17  C5  UNL     1      12.008  36.846  61.982  1.00  0.00     0.003 C 
BRANCH  17  18
HETATM   18  C6  UNL     1      10.749  36.384  62.616  1.00  0.00     0.030 C 
BRANCH  18  19
HETATM   19  C7  UNL     1       9.726  37.475  62.771  1.00  0.00     0.272 C 
BRANCH  19  20
HETATM   20  N4  UNL     1       9.383  38.007  61.473  1.00  0.00     0.088 N 
HETATM   21  C8  UNL     1       7.957  37.781  61.220  1.00  0.00     0.272 C 
HETATM   22  C9  UNL     1       7.308  38.851  62.073  1.00  0.00     0.032 C 
HETATM   23  C10 UNL     1       8.379  39.920  62.212  1.00  0.00     0.032 C 
HETATM   24  C11 UNL     1       9.530  39.428  61.348  1.00  0.00     0.272 C 
ENDBRANCH  19  20
ENDBRANCH  18  19
ENDBRANCH  17  18
ENDBRANCH  16  17
ENDBRANCH  15  16
ENDBRANCH  13  15
ENDBRANCH   4  13
BRANCH   1  25
HETATM   25  N1  UNL     1      15.117  40.274  59.089  1.00  0.00    -0.234 N 
ATOM     26  H12 UNL     1      15.561  41.172  59.281  1.00  0.00     0.174 HD
ATOM     27  H11 UNL     1      14.282  40.228  58.505  1.00  0.00     0.174 HD
ENDBRANCH   1  25
BRANCH   9  28
HETATM   28  C13 UNL     1      18.399  36.415  57.606  1.00  0.00     0.150 C 
BRANCH  28  29
HETATM   29  C14 UNL     1      17.531  35.581  56.684  1.00  0.00     0.047 C 
BRANCH  29  30
HETATM   30  C15 UNL     1      17.121  36.451  55.493  1.00  0.00     0.165 C 
BRANCH  30  31
HETATM   31  O1  UNL     1      16.984  37.783  55.872  1.00  0.00    -0.401 OA
ATOM     32  H1  UNL     1      17.510  38.351  55.321  1.00  0.00     0.209 HD
ENDBRANCH  30  31
ENDBRANCH  29  30
ENDBRANCH  28  29
ENDBRANCH   9  28
TORSDOF 12
ENDMDL
MODEL 2
REMARK VINA RESULT: -7.656737418      0.894      1.159
REMARK  12 active torsions:
REMARK  status: ('A' for Active; 'I' for Inactive)
REMARK    1  A    between atoms: N1_1  and  C1_4 
REMARK    2  A    between atoms: C2_7  and  N3_8 
REMARK    3  A    between atoms: N3_8  and  C3_10 
REMARK    4  A    between atoms: C3_10  and  C4_11 
REMARK    5  A    between atoms: C4_11  and  C5_12 
REMARK    6  A    between atoms: C5_12  and  C6_13 
REMARK    7  A    between atoms: C6_13  and  C7_14 
REMARK    8  A    between atoms: C7_14  and  N4_15 
REMARK    9  A    between atoms: N7_24  and  C13_25 
REMARK   10  A    between atoms: C13_25  and  C14_26 
REMARK   11  A    between atoms: C14_26  and  C15_27 
REMARK   12  A    between atoms: C15_27  and  O1_28 
ROOT
HETATM    1  C1  UNL     1      15.239  39.512  59.707  1.00  0.00     0.679 A 
HETATM    2  N2  UNL     1      14.666  39.245  60.877  1.00  0.00    -0.175 N 
ATOM      3  H2  UNL     1      13.966  39.903  61.221  1.00  0.00     0.186 HD
HETATM    4  C2  UNL     1      14.942  38.163  61.650  1.00  0.00     0.148 A 
HETATM    5  C12 UNL     1      15.897  37.306  61.135  1.00  0.00     0.136 A 
HETATM    6  N5  UNL     1      16.432  36.162  61.583  1.00  0.00    -0.277 N 
ATOM      7  H5  UNL     1      16.197  35.694  62.459  1.00  0.00     0.184 HD
HETATM    8  N6  UNL     1      17.330  35.736  60.680  1.00  0.00    -0.018 NA
HETATM    9  N7  UNL     1      17.363  36.605  59.668  1.00  0.00    -0.258 N 
HETATM   10  C16 UNL     1      16.487  37.587  59.923  1.00  0.00     0.168 A 
HETATM   11  N8  UNL     1      16.166  38.684  59.204  1.00  0.00    -0.173 N 
ATOM     12  H8  UNL     1      16.614  38.876  58.308  1.00  0.00     0.186 HD
ENDROOT
BRANCH   4  13
HETATM   13  N3  UNL     1      14.375  37.923  62.781  1.00  0.00    -0.374 N 
ATOM     14  H3  UNL     1      14.698  38.368  63.640  1.00  0.00     0.161 HD
BRANCH  13  15
HETATM   15  C3  UNL     1      13.257  36.994  62.790  1.00  0.00     0.121 C 
BRANCH  15  16
HETATM   16  C4  UNL     1      12.063  37.524  62.074  1.00  0.00     0.020 C 
BRANCH  16  17
HETATM   17  C5  UNL     1      10.823  36.904  62.649  1.00  0.00     0.003 C 
BRANCH  17  18
HETATM   18  C6  UNL     1       9.602  37.451  62.009  1.00  0.00     0.030 C 
BRANCH  18  19
HETATM   19  C7  UNL     1       9.444  38.934  62.202  1.00  0.00     0.272 C 
BRANCH  19  20
HETATM   20  N4  UNL     1       8.421  39.433  61.312  1.00  0.00     0.088 N 
HETATM   21  C8  UNL     1       7.126  38.870  61.702  1.00  0.00     0.272 C 
HETATM   22  C9  UNL     1       6.774  39.695  62.923  1.00  0.00     0.032 C 
HETATM   23  C10 UNL     1       7.548  40.989  62.737  1.00  0.00     0.032 C 
HETATM   24  C11 UNL     1       8.211  40.849  61.374  1.00  0.00     0.272 C 
ENDBRANCH  19  20
ENDBRANCH  18  19
ENDBRANCH  17  18
ENDBRANCH  16  17
ENDBRANCH  15  16
ENDBRANCH  13  15
ENDBRANCH   4  13
BRANCH   1  25
HETATM   25  N1  UNL     1      14.897  40.589  59.042  1.00  0.00    -0.234 N 
ATOM     26  H12 UNL     1      13.910  40.810  58.908  1.00  0.00     0.174 HD
ATOM     27  H11 UNL     1      15.617  41.202  58.661  1.00  0.00     0.174 HD
ENDBRANCH   1  25
BRANCH   9  28
HETATM   28  C13 UNL     1      18.206  36.514  58.479  1.00  0.00     0.150 C 
BRANCH  28  29
HETATM   29  C14 UNL     1      17.409  35.826  57.387  1.00  0.00     0.047 C 
BRANCH  29  30
HETATM   30  C15 UNL     1      17.487  36.684  56.122  1.00  0.00     0.165 C 
BRANCH  30  31
HETATM   31  O1  UNL     1      17.100  37.995  56.383  1.00  0.00    -0.401 OA
ATOM     32  H1  UNL     1      17.208  38.207  57.303  1.00  0.00     0.209 HD
ENDBRANCH  30  31
ENDBRANCH  29  30
ENDBRANCH  28  29
ENDBRANCH   9  28
TORSDOF 12
ENDMDL
MODEL 3
REMARK VINA RESULT: -7.428042110      1.880      2.962
REMARK  12 active torsions:
REMARK  status: ('A' for Active; 'I' for Inactive)
REMARK    1  A    between atoms: N1_1  and  C1_4 
REMARK    2  A    between atoms: C2_7  and  N3_8 
REMARK    3  A    between atoms: N3_8  and  C3_10 
REMARK    4  A    between atoms: C3_10  and  C4_11 
REMARK    5  A    between atoms: C4_11  and  C5_12 
REMARK    6  A    between atoms: C5_12  and  C6_13 
REMARK    7  A    between atoms: C6_13  and  C7_14 
REMARK    8  A    between atoms: C7_14  and  N4_15 
REMARK    9  A    between atoms: N7_24  and  C13_25 
REMARK   10  A    between atoms: C13_25  and  C14_26 
REMARK   11  A    between atoms: C14_26  and  C15_27 
REMARK   12  A    between atoms: C15_27  and  O1_28 
ROOT
HETATM    1  C1  UNL     1      17.643  35.658  59.434  1.00  0.00     0.679 A 
HETATM    2  N2  UNL     1      16.633  36.024  60.219  1.00  0.00    -0.175 N 
ATOM      3  H2  UNL     1      16.267  35.331  60.871  1.00  0.00     0.186 HD
HETATM    4  C2  UNL     1      16.053  37.252  60.218  1.00  0.00     0.148 A 
HETATM    5  C12 UNL     1      16.589  38.151  59.315  1.00  0.00     0.136 A 
HETATM    6  N5  UNL     1      16.302  39.426  59.017  1.00  0.00    -0.277 N 
ATOM      7  H5  UNL     1      15.572  39.991  59.450  1.00  0.00     0.184 HD
HETATM    8  N6  UNL     1      17.140  39.830  58.049  1.00  0.00    -0.018 NA
HETATM    9  N7  UNL     1      17.953  38.819  57.737  1.00  0.00    -0.258 N 
HETATM   10  C16 UNL     1      17.634  37.767  58.504  1.00  0.00     0.168 A 
HETATM   11  N8  UNL     1      18.165  36.526  58.556  1.00  0.00    -0.173 N 
ATOM     12  H8  UNL     1      18.939  36.259  57.947  1.00  0.00     0.186 HD
ENDROOT
BRANCH   4  13
HETATM   13  N3  UNL     1      15.076  37.587  60.988  1.00  0.00    -0.374 N 
ATOM     14  H3  UNL     1      14.454  38.358  60.746  1.00  0.00     0.161 HD
BRANCH  13  15
HETATM   15  C3  UNL     1      14.892  36.827  62.212  1.00  0.00     0.121 C 
BRANCH  15  16
HETATM   16  C4  UNL     1      13.628  37.173  62.921  1.00  0.00     0.020 C 
BRANCH  16  17
HETATM   17  C5  UNL     1      12.510  37.263  61.924  1.00  0.00     0.003 C 
BRANCH  17  18
HETATM   18  C6  UNL     1      11.302  36.551  62.408  1.00  0.00     0.030 C 
BRANCH  18  19
HETATM   19  C7  UNL     1      10.132  37.463  62.652  1.00  0.00     0.272 C 
BRANCH  19  20
HETATM   20  N4  UNL     1       9.625  37.952  61.391  1.00  0.00     0.088 N 
HETATM   21  C8  UNL     1       8.201  37.623  61.282  1.00  0.00     0.272 C 
HETATM   22  C9  UNL     1       7.564  38.655  62.188  1.00  0.00     0.032 C 
HETATM   23  C10 UNL     1       8.565  39.799  62.214  1.00  0.00     0.032 C 
HETATM   24  C11 UNL     1       9.657  39.377  61.243  1.00  0.00     0.272 C 
ENDBRANCH  19  20
ENDBRANCH  18  19
ENDBRANCH  17  18
ENDBRANCH  16  17
ENDBRANCH  15  16
ENDBRANCH  13  15
ENDBRANCH   4  13
BRANCH   1  25
HETATM   25  N1  UNL     1      18.128  34.444  59.517  1.00  0.00    -0.234 N 
ATOM     26  H12 UNL     1      17.768  33.710  58.907  1.00  0.00     0.174 HD
ATOM     27  H11 UNL     1      18.865  34.235  60.191  1.00  0.00     0.174 HD
ENDBRANCH   1  25
BRANCH   9  28
HETATM   28  C13 UNL     1      19.013  38.841  56.733  1.00  0.00     0.150 C 
BRANCH  28  29
HETATM   29  C14 UNL     1      20.078  39.818  57.193  1.00  0.00     0.047 C 
BRANCH  29  30
HETATM   30  C15 UNL     1      20.070  41.019  56.245  1.00  0.00     0.165 C 
BRANCH  30  31
HETATM   31  O1  UNL     1      18.933  41.799  56.436  1.00  0.00    -0.401 OA
ATOM     32  H1  UNL     1      18.790  41.974  57.358  1.00  0.00     0.209 HD
ENDBRANCH  30  31
ENDBRANCH  29  30
ENDBRANCH  28  29
ENDBRANCH   9  28
TORSDOF 12
ENDMDL
MODEL 4
REMARK VINA RESULT: -7.425784905      1.746      2.081
REMARK  12 active torsions:
REMARK  status: ('A' for Active; 'I' for Inactive)
REMARK    1  A    between atoms: N1_1  and  C1_4 
REMARK    2  A    between atoms: C2_7  and  N3_8 
REMARK    3  A    between atoms: N3_8  and  C3_10 
REMARK    4  A    between atoms: C3_10  and  C4_11 
REMARK    5  A    between atoms: C4_11  and  C5_12 
REMARK    6  A    between atoms: C5_12  and  C6_13 
REMARK    7  A    between atoms: C6_13  and  C7_14 
REMARK    8  A    between atoms: C7_14  and  N4_15 
REMARK    9  A    between atoms: N7_24  and  C13_25 
REMARK   10  A    between atoms: C13_25  and  C14_26 
REMARK   11  A    between atoms: C14_26  and  C15_27 
REMARK   12  A    between atoms: C15_27  and  O1_28 
ROOT
HETATM    1  C1  UNL     1      16.055  39.411  59.181  1.00  0.00     0.679 A 
HETATM    2  N2  UNL     1      15.253  38.695  59.963  1.00  0.00    -0.175 N 
ATOM      3  H2  UNL     1      14.405  39.145  60.308  1.00  0.00     0.186 HD
HETATM    4  C2  UNL     1      15.477  37.410  60.339  1.00  0.00     0.148 A 
HETATM    5  C12 UNL     1      16.640  36.850  59.842  1.00  0.00     0.136 A 
HETATM    6  N5  UNL     1      17.201  35.641  59.980  1.00  0.00    -0.277 N 
ATOM      7  H5  UNL     1      16.824  34.865  60.524  1.00  0.00     0.184 HD
HETATM    8  N6  UNL     1      18.346  35.627  59.277  1.00  0.00    -0.018 NA
HETATM    9  N7  UNL     1      18.507  36.819  58.700  1.00  0.00    -0.258 N 
HETATM   10  C16 UNL     1      17.467  37.595  59.032  1.00  0.00     0.168 A 
HETATM   11  N8  UNL     1      17.184  38.873  58.697  1.00  0.00    -0.173 N 
ATOM     12  H8  UNL     1      17.809  39.410  58.096  1.00  0.00     0.186 HD
ENDROOT
BRANCH   4  13
HETATM   13  N3  UNL     1      14.686  36.733  61.098  1.00  0.00    -0.374 N 
ATOM     14  H3  UNL     1      14.015  36.073  60.706  1.00  0.00     0.161 HD
BRANCH  13  15
HETATM   15  C3  UNL     1      14.785  36.943  62.532  1.00  0.00     0.121 C 
BRANCH  15  16
HETATM   16  C4  UNL     1      13.466  37.218  63.166  1.00  0.00     0.020 C 
BRANCH  16  17
HETATM   17  C5  UNL     1      12.398  37.217  62.112  1.00  0.00     0.003 C 
BRANCH  17  18
HETATM   18  C6  UNL     1      11.183  36.506  62.578  1.00  0.00     0.030 C 
BRANCH  18  19
HETATM   19  C7  UNL     1       9.991  37.410  62.739  1.00  0.00     0.272 C 
BRANCH  19  20
HETATM   20  N4  UNL     1       9.588  37.916  61.449  1.00  0.00     0.088 N 
HETATM   21  C8  UNL     1       8.179  37.584  61.219  1.00  0.00     0.272 C 
HETATM   22  C9  UNL     1       7.465  38.601  62.085  1.00  0.00     0.032 C 
HETATM   23  C10 UNL     1       8.455  39.747  62.210  1.00  0.00     0.032 C 
HETATM   24  C11 UNL     1       9.626  39.344  61.325  1.00  0.00     0.272 C 
ENDBRANCH  19  20
ENDBRANCH  18  19
ENDBRANCH  17  18
ENDBRANCH  16  17
ENDBRANCH  15  16
ENDBRANCH  13  15
ENDBRANCH   4  13
BRANCH   1  25
HETATM   25  N1  UNL     1      15.742  40.648  58.880  1.00  0.00    -0.234 N 
ATOM     26  H12 UNL     1      15.295  41.242  59.578  1.00  0.00     0.174 HD
ATOM     27  H11 UNL     1      15.945  41.013  57.950  1.00  0.00     0.174 HD
ENDBRANCH   1  25
BRANCH   9  28
HETATM   28  C13 UNL     1      19.622  37.221  57.847  1.00  0.00     0.150 C 
BRANCH  28  29
HETATM   29  C14 UNL     1      20.684  37.852  58.727  1.00  0.00     0.047 C 
BRANCH  29  30
HETATM   30  C15 UNL     1      21.730  36.785  59.058  1.00  0.00     0.165 C 
BRANCH  30  31
HETATM   31  O1  UNL     1      21.331  36.015  60.146  1.00  0.00    -0.401 OA
ATOM     32  H1  UNL     1      21.682  35.133  60.087  1.00  0.00     0.209 HD
ENDBRANCH  30  31
ENDBRANCH  29  30
ENDBRANCH  28  29
ENDBRANCH   9  28
TORSDOF 12
ENDMDL
MODEL 5
REMARK VINA RESULT: -7.425605426      1.346      1.712
REMARK  12 active torsions:
REMARK  status: ('A' for Active; 'I' for Inactive)
REMARK    1  A    between atoms: N1_1  and  C1_4 
REMARK    2  A    between atoms: C2_7  and  N3_8 
REMARK    3  A    between atoms: N3_8  and  C3_10 
REMARK    4  A    between atoms: C3_10  and  C4_11 
REMARK    5  A    between atoms: C4_11  and  C5_12 
REMARK    6  A    between atoms: C5_12  and  C6_13 
REMARK    7  A    between atoms: C6_13  and  C7_14 
REMARK    8  A    between atoms: C7_14  and  N4_15 
REMARK    9  A    between atoms: N7_24  and  C13_25 
REMARK   10  A    between atoms: C13_25  and  C14_26 
REMARK   11  A    between atoms: C14_26  and  C15_27 
REMARK   12  A    between atoms: C15_27  and  O1_28 
ROOT
HETATM    1  C1  UNL     1      15.826  41.367  59.254  1.00  0.00     0.679 A 
HETATM    2  N2  UNL     1      14.944  40.786  60.062  1.00  0.00    -0.175 N 
ATOM      3  H2  UNL     1      14.271  41.388  60.536  1.00  0.00     0.186 HD
HETATM    4  C2  UNL     1      14.870  39.452  60.303  1.00  0.00     0.148 A 
HETATM    5  C12 UNL     1      15.806  38.685  59.633  1.00  0.00     0.136 A 
HETATM    6  N5  UNL     1      16.055  37.368  59.606  1.00  0.00    -0.277 N 
ATOM      7  H5  UNL     1      15.545  36.652  60.124  1.00  0.00     0.184 HD
HETATM    8  N6  UNL     1      17.092  37.153  58.779  1.00  0.00    -0.018 NA
HETATM    9  N7  UNL     1      17.494  38.326  58.287  1.00  0.00    -0.258 N 
HETATM   10  C16 UNL     1      16.717  39.291  58.798  1.00  0.00     0.168 A 
HETATM   11  N8  UNL     1      16.735  40.627  58.603  1.00  0.00    -0.173 N 
ATOM     12  H8  UNL     1      17.419  41.059  57.981  1.00  0.00     0.186 HD
ENDROOT
BRANCH   4  13
HETATM   13  N3  UNL     1      14.006  38.908  61.089  1.00  0.00    -0.374 N 
ATOM     14  H3  UNL     1      13.009  38.941  60.881  1.00  0.00     0.161 HD
BRANCH  13  15
HETATM   15  C3  UNL     1      14.505  38.246  62.282  1.00  0.00     0.121 C 
BRANCH  15  16
HETATM   16  C4  UNL     1      13.540  37.255  62.836  1.00  0.00     0.020 C 
BRANCH  16  17
HETATM   17  C5  UNL     1      12.428  37.041  61.852  1.00  0.00     0.003 C 
BRANCH  17  18
HETATM   18  C6  UNL     1      11.225  36.481  62.514  1.00  0.00     0.030 C 
BRANCH  18  19
HETATM   19  C7  UNL     1      10.130  37.493  62.713  1.00  0.00     0.272 C 
BRANCH  19  20
HETATM   20  N4  UNL     1       9.660  37.958  61.430  1.00  0.00     0.088 N 
HETATM   21  C8  UNL     1       8.238  37.632  61.290  1.00  0.00     0.272 C 
HETATM   22  C9  UNL     1       7.581  38.684  62.158  1.00  0.00     0.032 C 
HETATM   23  C10 UNL     1       8.585  39.825  62.188  1.00  0.00     0.032 C 
HETATM   24  C11 UNL     1       9.701  39.380  61.255  1.00  0.00     0.272 C 
ENDBRANCH  19  20
ENDBRANCH  18  19
ENDBRANCH  17  18
ENDBRANCH  16  17
ENDBRANCH  15  16
ENDBRANCH  13  15
ENDBRANCH   4  13
BRANCH   1  25
HETATM   25  N1  UNL     1      15.808  42.667  59.093  1.00  0.00    -0.234 N 
ATOM     26  H12 UNL     1      14.999  43.205  59.402  1.00  0.00     0.174 HD
ATOM     27  H11 UNL     1      16.603  43.138  58.660  1.00  0.00     0.174 HD
ENDBRANCH   1  25
BRANCH   9  28
HETATM   28  C13 UNL     1      18.594  38.536  57.349  1.00  0.00     0.150 C 
BRANCH  28  29
HETATM   29  C14 UNL     1      18.783  37.261  56.551  1.00  0.00     0.047 C 
BRANCH  29  30
HETATM   30  C15 UNL     1      17.938  37.360  55.279  1.00  0.00     0.165 C 
BRANCH  30  31
HETATM   31  O1  UNL     1      16.591  37.145  55.556  1.00  0.00    -0.401 OA
ATOM     32  H1  UNL     1      16.118  37.967  55.608  1.00  0.00     0.209 HD
ENDBRANCH  30  31
ENDBRANCH  29  30
ENDBRANCH  28  29
ENDBRANCH   9  28
TORSDOF 12
ENDMDL
