MODEL 1
REMARK VINA RESULT: -7.236999997      0.000      0.000
REMARK  10 active torsions:
REMARK  status: ('A' for Active; 'I' for Inactive)
REMARK    1  A    between atoms: N1_2  and  O1_3 
REMARK    2  A    between atoms: N1_2  and  C2_5 
REMARK    3  A    between atoms: C2_5  and  C3_6 
REMARK    4  A    between atoms: C3_6  and  C4_7 
REMARK    5  A    between atoms: C7_10  and  N2_11 
REMARK    6  A    between atoms: C9_16  and  N4_17 
REMARK    7  A    between atoms: N4_17  and  C10_19 
REMARK    8  A    between atoms: C13_22  and  N5_23 
REMARK    9  A    between atoms: N5_23  and  C14_25 
REMARK   10  A    between atoms: C14_25  and  C15_26 
ROOT
HETATM    1  N2  UNL     1      17.498  37.350  59.137  1.00  0.00    -0.239 N 
HETATM    2  C8  UNL     1      17.516  38.591  58.629  1.00  0.00     0.335 A 
HETATM    3  O2  UNL     1      16.458  39.300  58.535  1.00  0.00    -0.246 OA
HETATM    4  N3  UNL     1      18.685  39.105  58.205  1.00  0.00    -0.292 N 
ATOM      5  H3  UNL     1      18.711  40.047  57.816  1.00  0.00     0.172 HD
HETATM    6  C9  UNL     1      19.836  38.376  58.288  1.00  0.00     0.138 A 
HETATM    7  C13 UNL     1      19.809  37.103  58.812  1.00  0.00     0.142 A 
HETATM    8  C17 UNL     1      18.616  36.591  59.240  1.00  0.00     0.285 A 
HETATM    9  O3  UNL     1      18.584  35.430  59.719  1.00  0.00    -0.265 OA
ENDROOT
BRANCH   1  10
HETATM   10  C7  UNL     1      16.295  36.773  59.598  1.00  0.00     0.108 C 
HETATM   11  C6  UNL     1      15.900  37.007  60.824  1.00  0.00    -0.059 A 
HETATM   12  C4  UNL     1      14.806  36.730  61.875  1.00  0.00     0.021 A 
HETATM   13  C5  UNL     1      15.929  37.580  62.213  1.00  0.00     0.045 A 
BRANCH  12  14
HETATM   14  C3  UNL     1      13.434  37.183  61.515  1.00  0.00     0.026 C 
BRANCH  14  15
HETATM   15  C2  UNL     1      12.444  37.142  62.637  1.00  0.00     0.120 C 
BRANCH  15  16
HETATM   16  N1  UNL     1      11.168  36.603  62.238  1.00  0.00    -0.204 NA
HETATM   17  C1  UNL     1      10.143  37.601  62.137  1.00  0.00     0.143 C 
BRANCH  16  18
HETATM   18  O1  UNL     1      10.801  35.591  63.035  1.00  0.00    -0.314 OA
ATOM     19  H1  UNL     1      11.136  35.697  63.917  1.00  0.00     0.237 HD
ENDBRANCH  16  18
ENDBRANCH  15  16
ENDBRANCH  14  15
ENDBRANCH  12  14
ENDBRANCH   1  10
BRANCH   7  20
HETATM   20  N5  UNL     1      20.975  36.306  58.926  1.00  0.00    -0.380 N 
ATOM     21  H5  UNL     1      21.133  35.572  58.235  1.00  0.00     0.160 HD
BRANCH  20  22
HETATM   22  C14 UNL     1      21.944  36.484  59.968  1.00  0.00     0.154 C 
BRANCH  22  23
HETATM   23  C15 UNL     1      23.360  36.605  59.509  1.00  0.00     0.229 A 
HETATM   24  C16 UNL     1      24.068  37.844  60.051  1.00  0.00     0.267 A 
HETATM   25  N6  UNL     1      24.476  36.448  60.384  1.00  0.00    -0.066 N 
ATOM     26  H62 UNL     1      24.610  35.950  61.264  1.00  0.00     0.277 HD
ATOM     27  H61 UNL     1      25.357  35.941  60.309  1.00  0.00     0.277 HD
ENDBRANCH  22  23
ENDBRANCH  20  22
ENDBRANCH   7  20
BRANCH   6  28
HETATM   28  N4  UNL     1      21.050  38.911  57.847  1.00  0.00    -0.370 N 
ATOM     29  H4  UNL     1      21.836  38.992  58.492  1.00  0.00     0.161 HD
BRANCH  28  30
HETATM   30  C10 UNL     1      21.191  39.350  56.474  1.00  0.00     0.083 A 
HETATM   31  C11 UNL     1      21.111  40.827  56.235  1.00  0.00     0.027 A 
HETATM   32  C12 UNL     1      22.450  40.149  56.157  1.00  0.00     0.027 A 
ENDBRANCH  28  30
ENDBRANCH   6  28
TORSDOF 10
ENDMDL
MODEL 2
REMARK VINA RESULT: -6.956518628      1.442      3.811
REMARK  10 active torsions:
REMARK  status: ('A' for Active; 'I' for Inactive)
REMARK    1  A    between atoms: N1_2  and  O1_3 
REMARK    2  A    between atoms: N1_2  and  C2_5 
REMARK    3  A    between atoms: C2_5  and  C3_6 
REMARK    4  A    between atoms: C3_6  and  C4_7 
REMARK    5  A    between atoms: C7_10  and  N2_11 
REMARK    6  A    between atoms: C9_16  and  N4_17 
REMARK    7  A    between atoms: N4_17  and  C10_19 
REMARK    8  A    between atoms: C13_22  and  N5_23 
REMARK    9  A    between atoms: N5_23  and  C14_25 
REMARK   10  A    between atoms: C14_25  and  C15_26 
ROOT
HETATM    1  N2  UNL     1      18.428  36.797  59.004  1.00  0.00    -0.239 N 
HETATM    2  C8  UNL     1      19.010  35.614  59.248  1.00  0.00     0.335 A 
HETATM    3  O2  UNL     1      18.337  34.587  59.601  1.00  0.00    -0.246 OA
HETATM    4  N3  UNL     1      20.345  35.505  59.119  1.00  0.00    -0.292 N 
ATOM      5  H3  UNL     1      20.799  34.610  59.303  1.00  0.00     0.172 HD
HETATM    6  C9  UNL     1      21.098  36.580  58.745  1.00  0.00     0.138 A 
HETATM    7  C13 UNL     1      20.492  37.791  58.495  1.00  0.00     0.142 A 
HETATM    8  C17 UNL     1      19.136  37.891  58.629  1.00  0.00     0.285 A 
HETATM    9  O3  UNL     1      18.576  38.992  58.402  1.00  0.00    -0.265 OA
ENDROOT
BRANCH   1  10
HETATM   10  C7  UNL     1      17.031  36.955  59.122  1.00  0.00     0.108 C 
HETATM   11  C6  UNL     1      16.480  36.925  60.310  1.00  0.00    -0.059 A 
HETATM   12  C4  UNL     1      15.155  37.020  61.092  1.00  0.00     0.021 A 
HETATM   13  C5  UNL     1      16.399  36.819  61.807  1.00  0.00     0.045 A 
BRANCH  12  14
HETATM   14  C3  UNL     1      14.414  38.304  60.957  1.00  0.00     0.026 C 
BRANCH  14  15
HETATM   15  C2  UNL     1      13.049  38.311  61.571  1.00  0.00     0.120 C 
BRANCH  15  16
HETATM   16  N1  UNL     1      12.848  37.228  62.501  1.00  0.00    -0.204 NA
HETATM   17  C1  UNL     1      11.484  36.795  62.573  1.00  0.00     0.143 C 
BRANCH  16  18
HETATM   18  O1  UNL     1      13.338  37.532  63.710  1.00  0.00    -0.314 OA
ATOM     19  H1  UNL     1      14.054  38.154  63.654  1.00  0.00     0.237 HD
ENDBRANCH  16  18
ENDBRANCH  15  16
ENDBRANCH  14  15
ENDBRANCH  12  14
ENDBRANCH   1  10
BRANCH   7  20
HETATM   20  N5  UNL     1      21.226  38.937  58.099  1.00  0.00    -0.380 N 
ATOM     21  H5  UNL     1      21.569  39.569  58.823  1.00  0.00     0.160 HD
BRANCH  20  22
HETATM   22  C14 UNL     1      21.509  39.249  56.728  1.00  0.00     0.154 C 
BRANCH  22  23
HETATM   23  C15 UNL     1      21.122  40.625  56.294  1.00  0.00     0.229 A 
HETATM   24  C16 UNL     1      20.270  40.642  55.027  1.00  0.00     0.267 A 
HETATM   25  N6  UNL     1      19.782  41.110  56.357  1.00  0.00    -0.066 N 
ATOM     26  H62 UNL     1      18.975  40.866  56.931  1.00  0.00     0.277 HD
ATOM     27  H61 UNL     1      19.370  41.985  56.682  1.00  0.00     0.277 HD
ENDBRANCH  22  23
ENDBRANCH  20  22
ENDBRANCH   7  20
BRANCH   6  28
HETATM   28  N4  UNL     1      22.485  36.465  58.611  1.00  0.00    -0.370 N 
ATOM     29  H4  UNL     1      22.904  36.404  57.684  1.00  0.00     0.161 HD
BRANCH  28  30
HETATM   30  C10 UNL     1      23.326  36.435  59.790  1.00  0.00     0.083 A 
HETATM   31  C11 UNL     1      24.645  35.739  59.650  1.00  0.00     0.027 A 
HETATM   32  C12 UNL     1      24.616  37.240  59.708  1.00  0.00     0.027 A 
ENDBRANCH  28  30
ENDBRANCH   6  28
TORSDOF 10
ENDMDL
MODEL 3
REMARK VINA RESULT: -6.862833529      1.532      3.784
REMARK  10 active torsions:
REMARK  status: ('A' for Active; 'I' for Inactive)
REMARK    1  A    between atoms: N1_2  and  O1_3 
REMARK    2  A    between atoms: N1_2  and  C2_5 
REMARK    3  A    between atoms: C2_5  and  C3_6 
REMARK    4  A    between atoms: C3_6  and  C4_7 
REMARK    5  A    between atoms: C7_10  and  N2_11 
REMARK    6  A    between atoms: C9_16  and  N4_17 
REMARK    7  A    between atoms: N4_17  and  C10_19 
REMARK    8  A    between atoms: C13_22  and  N5_23 
REMARK    9  A    between atoms: N5_23  and  C14_25 
REMARK   10  A    between atoms: C14_25  and  C15_26 
ROOT
HETATM    1  N2  UNL     1      17.840  37.013  59.118  1.00  0.00    -0.239 N 
HETATM    2  C8  UNL     1      18.776  36.069  59.288  1.00  0.00     0.335 A 
HETATM    3  O2  UNL     1      18.497  34.916  59.763  1.00  0.00    -0.246 OA
HETATM    4  N3  UNL     1      20.048  36.343  58.948  1.00  0.00    -0.292 N 
ATOM      5  H3  UNL     1      20.769  35.632  59.073  1.00  0.00     0.172 HD
HETATM    6  C9  UNL     1      20.385  37.563  58.438  1.00  0.00     0.138 A 
HETATM    7  C13 UNL     1      19.417  38.528  58.267  1.00  0.00     0.142 A 
HETATM    8  C17 UNL     1      18.128  38.239  58.614  1.00  0.00     0.285 A 
HETATM    9  O3  UNL     1      17.240  39.113  58.459  1.00  0.00    -0.265 OA
ENDROOT
BRANCH   1  10
HETATM   10  C7  UNL     1      16.492  36.768  59.457  1.00  0.00     0.108 C 
HETATM   11  C6  UNL     1      16.111  36.888  60.703  1.00  0.00    -0.059 A 
HETATM   12  C4  UNL     1      14.922  36.782  61.679  1.00  0.00     0.021 A 
HETATM   13  C5  UNL     1      16.227  37.164  62.176  1.00  0.00     0.045 A 
BRANCH  12  14
HETATM   14  C3  UNL     1      13.780  37.698  61.409  1.00  0.00     0.026 C 
BRANCH  14  15
HETATM   15  C2  UNL     1      12.437  37.161  61.794  1.00  0.00     0.120 C 
BRANCH  15  16
HETATM   16  N1  UNL     1      11.467  38.199  62.038  1.00  0.00    -0.204 NA
HETATM   17  C1  UNL     1      10.115  37.727  61.990  1.00  0.00     0.143 C 
BRANCH  16  18
HETATM   18  O1  UNL     1      11.660  39.242  61.220  1.00  0.00    -0.314 OA
ATOM     19  H1  UNL     1      12.422  39.120  60.666  1.00  0.00     0.237 HD
ENDBRANCH  16  18
ENDBRANCH  15  16
ENDBRANCH  14  15
ENDBRANCH  12  14
ENDBRANCH   1  10
BRANCH   7  20
HETATM   20  N5  UNL     1      19.711  39.810  57.737  1.00  0.00    -0.380 N 
ATOM     21  H5  UNL     1      19.815  40.591  58.383  1.00  0.00     0.160 HD
BRANCH  20  22
HETATM   22  C14 UNL     1      19.870  40.057  56.333  1.00  0.00     0.154 C 
BRANCH  22  23
HETATM   23  C15 UNL     1      20.577  41.326  55.985  1.00  0.00     0.229 A 
HETATM   24  C16 UNL     1      20.135  41.918  54.650  1.00  0.00     0.267 A 
HETATM   25  N6  UNL     1      19.927  42.595  55.962  1.00  0.00    -0.066 N 
ATOM     26  H62 UNL     1      19.103  42.968  56.434  1.00  0.00     0.277 HD
ATOM     27  H61 UNL     1      20.178  43.516  56.321  1.00  0.00     0.277 HD
ENDBRANCH  22  23
ENDBRANCH  20  22
ENDBRANCH   7  20
BRANCH   6  28
HETATM   28  N4  UNL     1      21.707  37.847  58.086  1.00  0.00    -0.370 N 
ATOM     29  H4  UNL     1      22.072  37.541  57.183  1.00  0.00     0.161 HD
BRANCH  28  30
HETATM   30  C10 UNL     1      22.560  38.576  59.002  1.00  0.00     0.083 A 
HETATM   31  C11 UNL     1      22.634  38.053  60.404  1.00  0.00     0.027 A 
HETATM   32  C12 UNL     1      23.803  37.838  59.484  1.00  0.00     0.027 A 
ENDBRANCH  28  30
ENDBRANCH   6  28
TORSDOF 10
ENDMDL
MODEL 4
REMARK VINA RESULT: -6.861003878      2.464      8.435
REMARK  10 active torsions:
REMARK  status: ('A' for Active; 'I' for Inactive)
REMARK    1  A    between atoms: N1_2  and  O1_3 
REMARK    2  A    between atoms: N1_2  and  C2_5 
REMARK    3  A    between atoms: C2_5  and  C3_6 
REMARK    4  A    between atoms: C3_6  and  C4_7 
REMARK    5  A    between atoms: C7_10  and  N2_11 
REMARK    6  A    between atoms: C9_16  and  N4_17 
REMARK    7  A    between atoms: N4_17  and  C10_19 
REMARK    8  A    between atoms: C13_22  and  N5_23 
REMARK    9  A    between atoms: N5_23  and  C14_25 
REMARK   10  A    between atoms: C14_25  and  C15_26 
ROOT
HETATM    1  N2  UNL     1      17.704  37.287  59.154  1.00  0.00    -0.239 N 
HETATM    2  C8  UNL     1      17.502  36.490  60.213  1.00  0.00     0.335 A 
HETATM    3  O2  UNL     1      18.265  35.498  60.471  1.00  0.00    -0.246 OA
HETATM    4  N3  UNL     1      16.462  36.741  61.030  1.00  0.00    -0.292 N 
ATOM      5  H3  UNL     1      16.298  36.141  61.838  1.00  0.00     0.172 HD
HETATM    6  C9  UNL     1      15.624  37.790  60.786  1.00  0.00     0.138 A 
HETATM    7  C13 UNL     1      15.839  38.604  59.696  1.00  0.00     0.142 A 
HETATM    8  C17 UNL     1      16.898  38.340  58.874  1.00  0.00     0.285 A 
HETATM    9  O3  UNL     1      17.101  39.079  57.879  1.00  0.00    -0.265 OA
ENDROOT
BRANCH   1  10
HETATM   10  C7  UNL     1      18.784  37.063  58.274  1.00  0.00     0.108 C 
HETATM   11  C6  UNL     1      19.947  37.605  58.535  1.00  0.00    -0.059 A 
HETATM   12  C4  UNL     1      21.404  37.765  58.056  1.00  0.00     0.021 A 
HETATM   13  C5  UNL     1      20.974  38.411  59.279  1.00  0.00     0.045 A 
BRANCH  12  14
HETATM   14  C3  UNL     1      22.193  36.506  57.956  1.00  0.00     0.026 C 
BRANCH  14  15
HETATM   15  C2  UNL     1      23.647  36.647  58.282  1.00  0.00     0.120 C 
BRANCH  15  16
HETATM   16  N1  UNL     1      23.891  36.799  59.695  1.00  0.00    -0.204 NA
HETATM   17  C1  UNL     1      24.618  37.992  60.014  1.00  0.00     0.143 C 
BRANCH  16  18
HETATM   18  O1  UNL     1      24.478  35.707  60.204  1.00  0.00    -0.314 OA
ATOM     19  H1  UNL     1      23.934  35.288  60.860  1.00  0.00     0.237 HD
ENDBRANCH  16  18
ENDBRANCH  15  16
ENDBRANCH  14  15
ENDBRANCH  12  14
ENDBRANCH   1  10
BRANCH   7  20
HETATM   20  N5  UNL     1      15.003  39.710  59.400  1.00  0.00    -0.380 N 
ATOM     21  H5  UNL     1      14.252  39.584  58.721  1.00  0.00     0.160 HD
BRANCH  20  22
HETATM   22  C14 UNL     1      15.164  40.997  60.011  1.00  0.00     0.154 C 
BRANCH  22  23
HETATM   23  C15 UNL     1      15.598  42.091  59.091  1.00  0.00     0.229 A 
HETATM   24  C16 UNL     1      16.684  42.984  59.683  1.00  0.00     0.267 A 
HETATM   25  N6  UNL     1      16.887  42.125  58.480  1.00  0.00    -0.066 N 
ATOM     26  H62 UNL     1      17.568  41.404  58.243  1.00  0.00     0.277 HD
ATOM     27  H61 UNL     1      17.206  42.316  57.531  1.00  0.00     0.277 HD
ENDBRANCH  22  23
ENDBRANCH  20  22
ENDBRANCH   7  20
BRANCH   6  28
HETATM   28  N4  UNL     1      14.544  38.050  61.634  1.00  0.00    -0.370 N 
ATOM     29  H4  UNL     1      14.647  38.714  62.402  1.00  0.00     0.161 HD
BRANCH  28  30
HETATM   30  C10 UNL     1      13.279  37.377  61.423  1.00  0.00     0.083 A 
HETATM   31  C11 UNL     1      12.403  37.211  62.627  1.00  0.00     0.027 A 
HETATM   32  C12 UNL     1      12.032  38.236  61.593  1.00  0.00     0.027 A 
ENDBRANCH  28  30
ENDBRANCH   6  28
TORSDOF 10
ENDMDL
MODEL 5
REMARK VINA RESULT: -6.860221950      4.201      5.172
REMARK  10 active torsions:
REMARK  status: ('A' for Active; 'I' for Inactive)
REMARK    1  A    between atoms: N1_2  and  O1_3 
REMARK    2  A    between atoms: N1_2  and  C2_5 
REMARK    3  A    between atoms: C2_5  and  C3_6 
REMARK    4  A    between atoms: C3_6  and  C4_7 
REMARK    5  A    between atoms: C7_10  and  N2_11 
REMARK    6  A    between atoms: C9_16  and  N4_17 
REMARK    7  A    between atoms: N4_17  and  C10_19 
REMARK    8  A    between atoms: C13_22  and  N5_23 
REMARK    9  A    between atoms: N5_23  and  C14_25 
REMARK   10  A    between atoms: C14_25  and  C15_26 
ROOT
HETATM    1  N2  UNL     1      17.440  36.093  57.098  1.00  0.00    -0.239 N 
HETATM    2  C8  UNL     1      17.570  37.308  56.546  1.00  0.00     0.335 A 
HETATM    3  O2  UNL     1      17.093  38.357  57.098  1.00  0.00    -0.246 OA
HETATM    4  N3  UNL     1      18.221  37.427  55.375  1.00  0.00    -0.292 N 
ATOM      5  H3  UNL     1      18.325  38.346  54.946  1.00  0.00     0.172 HD
HETATM    6  C9  UNL     1      18.743  36.328  54.755  1.00  0.00     0.138 A 
HETATM    7  C13 UNL     1      18.606  35.084  55.329  1.00  0.00     0.142 A 
HETATM    8  C17 UNL     1      17.943  34.975  56.519  1.00  0.00     0.285 A 
HETATM    9  O3  UNL     1      17.815  33.844  57.048  1.00  0.00    -0.265 OA
ENDROOT
BRANCH   1  10
HETATM   10  C7  UNL     1      16.768  35.923  58.328  1.00  0.00     0.108 C 
HETATM   11  C6  UNL     1      17.423  36.105  59.447  1.00  0.00    -0.059 A 
HETATM   12  C4  UNL     1      17.326  36.090  60.986  1.00  0.00     0.021 A 
HETATM   13  C5  UNL     1      18.582  36.427  60.348  1.00  0.00     0.045 A 
BRANCH  12  14
HETATM   14  C3  UNL     1      16.355  37.048  61.582  1.00  0.00     0.026 C 
BRANCH  14  15
HETATM   15  C2  UNL     1      15.274  36.419  62.404  1.00  0.00     0.120 C 
BRANCH  15  16
HETATM   16  N1  UNL     1      14.316  37.376  62.896  1.00  0.00    -0.204 NA
HETATM   17  C1  UNL     1      13.126  37.441  62.100  1.00  0.00     0.143 C 
BRANCH  16  18
HETATM   18  O1  UNL     1      14.876  38.583  63.054  1.00  0.00    -0.314 OA
ATOM     19  H1  UNL     1      15.542  38.752  62.397  1.00  0.00     0.237 HD
ENDBRANCH  16  18
ENDBRANCH  15  16
ENDBRANCH  14  15
ENDBRANCH  12  14
ENDBRANCH   1  10
BRANCH   7  20
HETATM   20  N5  UNL     1      19.133  33.912  54.730  1.00  0.00    -0.380 N 
ATOM     21  H5  UNL     1      20.019  33.545  55.077  1.00  0.00     0.160 HD
BRANCH  20  22
HETATM   22  C14 UNL     1      18.477  33.219  53.659  1.00  0.00     0.154 C 
BRANCH  22  23
HETATM   23  C15 UNL     1      17.225  32.498  54.038  1.00  0.00     0.229 A 
HETATM   24  C16 UNL     1      17.325  30.984  53.872  1.00  0.00     0.267 A 
HETATM   25  N6  UNL     1      17.130  31.659  55.188  1.00  0.00    -0.066 N 
ATOM     26  H62 UNL     1      17.637  31.625  56.073  1.00  0.00     0.277 HD
ATOM     27  H61 UNL     1      16.435  31.562  55.928  1.00  0.00     0.277 HD
ENDBRANCH  22  23
ENDBRANCH  20  22
ENDBRANCH   7  20
BRANCH   6  28
HETATM   28  N4  UNL     1      19.419  36.453  53.538  1.00  0.00    -0.370 N 
ATOM     29  H4  UNL     1      20.254  35.894  53.359  1.00  0.00     0.161 HD
BRANCH  28  30
HETATM   30  C10 UNL     1      18.934  37.374  52.531  1.00  0.00     0.083 A 
HETATM   31  C11 UNL     1      19.850  38.502  52.163  1.00  0.00     0.027 A 
HETATM   32  C12 UNL     1      19.680  37.360  51.203  1.00  0.00     0.027 A 
ENDBRANCH  28  30
ENDBRANCH   6  28
TORSDOF 10
ENDMDL
