MODEL 1
REMARK VINA RESULT: -7.877793182      0.000      0.000
REMARK  14 active torsions:
REMARK  status: ('A' for Active; 'I' for Inactive)
REMARK    1  A    between atoms: C2_2  and  C3_3 
REMARK    2  A    between atoms: C3_3  and  C4_4 
REMARK    3  A    between atoms: C4_4  and  C5_5 
REMARK    4  A    between atoms: C5_5  and  N1_6 
REMARK    5  A    between atoms: N1_6  and  C6_8 
REMARK    6  A    between atoms: N4_16  and  C10_17 
REMARK    7  A    between atoms: C10_17  and  C11_18 
REMARK    8  A    between atoms: C11_18  and  C12_19 
REMARK    9  A    between atoms: C12_19  and  N5_20 
REMARK   10  A    between atoms: N5_20  and  C13_23 
REMARK   11  A    between atoms: C13_23  and  C14_24 
REMARK   12  A    between atoms: C14_24  and  N6_25 
REMARK   13  A    between atoms: N6_25  and  C15_28 
REMARK   14  A    between atoms: C17_30  and  N7_31 
ROOT
HETATM    1  C6  UNL     1      15.740  39.776  59.099  1.00  0.00     0.681 A 
HETATM    2  N2  UNL     1      14.999  39.296  60.110  1.00  0.00    -0.174 N 
ATOM      3  H2  UNL     1      14.243  39.862  60.496  1.00  0.00     0.186 HD
HETATM    4  C7  UNL     1      15.247  38.064  60.622  1.00  0.00     0.155 A 
HETATM    5  C8  UNL     1      16.288  37.300  60.078  1.00  0.00     0.123 A 
HETATM    6  N3  UNL     1      16.273  36.151  60.770  1.00  0.00    -0.346 N 
ATOM      7  H3  UNL     1      16.914  35.372  60.617  1.00  0.00     0.167 HD
HETATM    8  C9  UNL     1      15.300  36.169  61.688  1.00  0.00     0.185 A 
HETATM    9  N4  UNL     1      14.661  37.350  61.605  1.00  0.00    -0.327 N 
HETATM   10  C17 UNL     1      17.050  37.785  59.044  1.00  0.00     0.150 A 
HETATM   11  N8  UNL     1      16.749  39.001  58.594  1.00  0.00    -0.174 N 
ATOM     12  H8  UNL     1      17.304  39.378  57.827  1.00  0.00     0.186 HD
ENDROOT
BRANCH   9  13
HETATM   13  C10 UNL     1      13.584  37.732  62.487  1.00  0.00     0.133 C 
BRANCH  13  14
HETATM   14  C11 UNL     1      12.279  37.714  61.718  1.00  0.00     0.048 C 
BRANCH  14  15
HETATM   15  C12 UNL     1      11.401  36.575  62.097  1.00  0.00     0.234 C 
BRANCH  15  16
HETATM   16  N5  UNL     1      10.167  37.033  62.652  1.00  0.00    -0.073 N 
ATOM     17  H52 UNL     1       9.706  36.296  63.186  1.00  0.00     0.277 HD
ATOM     18  H51 UNL     1      10.326  37.702  63.406  1.00  0.00     0.277 HD
BRANCH  16  19
HETATM   19  C13 UNL     1       9.292  37.577  61.645  1.00  0.00     0.259 C 
BRANCH  19  20
HETATM   20  C14 UNL     1       8.713  38.907  62.119  1.00  0.00     0.259 C 
BRANCH  20  21
HETATM   21  N6  UNL     1       9.360  39.976  61.421  1.00  0.00    -0.074 N 
ATOM     22  H62 UNL     1      10.269  40.207  61.823  1.00  0.00     0.277 HD
ATOM     23  H61 UNL     1       9.681  39.696  60.495  1.00  0.00     0.277 HD
BRANCH  21  24
HETATM   24  C15 UNL     1       8.462  41.134  61.374  1.00  0.00     0.228 C 
HETATM   25  C16 UNL     1       7.250  40.949  62.217  1.00  0.00     0.034 C 
ENDBRANCH  21  24
ENDBRANCH  20  21
ENDBRANCH  19  20
ENDBRANCH  16  19
ENDBRANCH  15  16
ENDBRANCH  14  15
ENDBRANCH  13  14
ENDBRANCH   9  13
BRANCH   1  26
HETATM   26  N1  UNL     1      15.589  40.896  58.549  1.00  0.00    -0.223 N 
ATOM     27  H1  UNL     1      14.945  40.876  57.759  1.00  0.00     0.178 HD
BRANCH  26  28
HETATM   28  C5  UNL     1      16.132  42.178  58.803  1.00  0.00     0.165 C 
BRANCH  28  29
HETATM   29  C4  UNL     1      15.597  42.640  60.104  1.00  0.00    -0.011 C 
BRANCH  29  30
HETATM   30  C3  UNL     1      15.568  43.868  60.475  1.00  0.00    -0.029 C 
BRANCH  30  31
HETATM   31  C2  UNL     1      14.513  44.515  61.251  1.00  0.00     0.022 C 
HETATM   32  C1  UNL     1      15.039  45.917  61.612  1.00  0.00     0.009 C 
ENDBRANCH  30  31
ENDBRANCH  29  30
ENDBRANCH  28  29
ENDBRANCH  26  28
ENDBRANCH   1  26
BRANCH  10  33
HETATM   33  N7  UNL     1      18.118  37.014  58.522  1.00  0.00    -0.365 N 
HETATM   34  C18 UNL     1      19.371  37.014  59.221  1.00  0.00     0.124 C 
HETATM   35  C19 UNL     1      19.900  35.604  59.284  1.00  0.00     0.020 C 
HETATM   36  C20 UNL     1      18.811  34.586  59.010  1.00  0.00     0.003 C 
HETATM   37  C21 UNL     1      18.142  34.771  57.684  1.00  0.00     0.020 C 
HETATM   38  C22 UNL     1      17.990  36.216  57.317  1.00  0.00     0.124 C 
ENDBRANCH  10  33
TORSDOF 14
ENDMDL
MODEL 2
REMARK VINA RESULT: -7.599060151      3.369      7.665
REMARK  14 active torsions:
REMARK  status: ('A' for Active; 'I' for Inactive)
REMARK    1  A    between atoms: C2_2  and  C3_3 
REMARK    2  A    between atoms: C3_3  and  C4_4 
REMARK    3  A    between atoms: C4_4  and  C5_5 
REMARK    4  A    between atoms: C5_5  and  N1_6 
REMARK    5  A    between atoms: N1_6  and  C6_8 
REMARK    6  A    between atoms: N4_16  and  C10_17 
REMARK    7  A    between atoms: C10_17  and  C11_18 
REMARK    8  A    between atoms: C11_18  and  C12_19 
REMARK    9  A    between atoms: C12_19  and  N5_20 
REMARK   10  A    between atoms: N5_20  and  C13_23 
REMARK   11  A    between atoms: C13_23  and  C14_24 
REMARK   12  A    between atoms: C14_24  and  N6_25 
REMARK   13  A    between atoms: N6_25  and  C15_28 
REMARK   14  A    between atoms: C17_30  and  N7_31 
ROOT
HETATM    1  C6  UNL     1      17.007  36.419  59.823  1.00  0.00     0.681 A 
HETATM    2  N2  UNL     1      18.344  36.510  59.898  1.00  0.00    -0.174 N 
ATOM      3  H2  UNL     1      18.781  36.868  60.747  1.00  0.00     0.186 HD
HETATM    4  C7  UNL     1      19.119  36.127  58.852  1.00  0.00     0.155 A 
HETATM    5  C8  UNL     1      18.503  35.635  57.694  1.00  0.00     0.123 A 
HETATM    6  N3  UNL     1      19.513  35.333  56.864  1.00  0.00    -0.346 N 
ATOM      7  H3  UNL     1      19.400  34.948  55.926  1.00  0.00     0.167 HD
HETATM    8  C9  UNL     1      20.690  35.607  57.439  1.00  0.00     0.185 A 
HETATM    9  N4  UNL     1      20.455  36.100  58.668  1.00  0.00    -0.327 N 
HETATM   10  C17 UNL     1      17.136  35.540  57.612  1.00  0.00     0.150 A 
HETATM   11  N8  UNL     1      16.441  35.935  58.676  1.00  0.00    -0.174 N 
ATOM     12  H8  UNL     1      15.424  35.871  58.634  1.00  0.00     0.186 HD
ENDROOT
BRANCH   9  13
HETATM   13  C10 UNL     1      21.503  36.553  59.553  1.00  0.00     0.133 C 
BRANCH  13  14
HETATM   14  C11 UNL     1      21.671  38.051  59.403  1.00  0.00     0.048 C 
BRANCH  14  15
HETATM   15  C12 UNL     1      22.799  38.417  58.503  1.00  0.00     0.234 C 
BRANCH  15  16
HETATM   16  N5  UNL     1      22.326  38.833  57.222  1.00  0.00    -0.073 N 
ATOM     17  H52 UNL     1      22.992  39.457  56.767  1.00  0.00     0.277 HD
ATOM     18  H51 UNL     1      22.345  38.063  56.552  1.00  0.00     0.277 HD
BRANCH  16  19
HETATM   19  C13 UNL     1      21.017  39.429  57.297  1.00  0.00     0.259 C 
BRANCH  19  20
HETATM   20  C14 UNL     1      20.181  39.011  56.091  1.00  0.00     0.259 C 
BRANCH  20  21
HETATM   21  N6  UNL     1      18.811  38.898  56.485  1.00  0.00    -0.074 N 
ATOM     22  H62 UNL     1      18.172  39.258  55.776  1.00  0.00     0.277 HD
ATOM     23  H61 UNL     1      18.487  37.931  56.491  1.00  0.00     0.277 HD
BRANCH  21  24
HETATM   24  C15 UNL     1      18.627  39.555  57.784  1.00  0.00     0.228 C 
HETATM   25  C16 UNL     1      17.196  39.644  58.178  1.00  0.00     0.034 C 
ENDBRANCH  21  24
ENDBRANCH  20  21
ENDBRANCH  19  20
ENDBRANCH  16  19
ENDBRANCH  15  16
ENDBRANCH  14  15
ENDBRANCH  13  14
ENDBRANCH   9  13
BRANCH   1  26
HETATM   26  N1  UNL     1      16.201  36.736  60.734  1.00  0.00    -0.223 N 
ATOM     27  H1  UNL     1      16.275  36.150  61.565  1.00  0.00     0.178 HD
BRANCH  26  28
HETATM   28  C5  UNL     1      15.211  37.743  60.840  1.00  0.00     0.165 C 
BRANCH  28  29
HETATM   29  C4  UNL     1      13.939  37.082  61.211  1.00  0.00    -0.011 C 
BRANCH  29  30
HETATM   30  C3  UNL     1      12.815  37.690  61.312  1.00  0.00    -0.029 C 
BRANCH  30  31
HETATM   31  C2  UNL     1      11.603  37.177  61.948  1.00  0.00     0.022 C 
HETATM   32  C1  UNL     1      10.503  38.223  61.691  1.00  0.00     0.009 C 
ENDBRANCH  30  31
ENDBRANCH  29  30
ENDBRANCH  28  29
ENDBRANCH  26  28
ENDBRANCH   1  26
BRANCH  10  33
HETATM   33  N7  UNL     1      16.523  35.068  56.424  1.00  0.00    -0.365 N 
HETATM   34  C18 UNL     1      16.504  35.925  55.273  1.00  0.00     0.124 C 
HETATM   35  C19 UNL     1      16.854  35.115  54.051  1.00  0.00     0.020 C 
HETATM   36  C20 UNL     1      17.530  33.810  54.420  1.00  0.00     0.003 C 
HETATM   37  C21 UNL     1      16.707  32.948  55.326  1.00  0.00     0.020 C 
HETATM   38  C22 UNL     1      15.927  33.749  56.323  1.00  0.00     0.124 C 
ENDBRANCH  10  33
TORSDOF 14
ENDMDL
MODEL 3
REMARK VINA RESULT: -7.557291439      2.154      5.177
REMARK  14 active torsions:
REMARK  status: ('A' for Active; 'I' for Inactive)
REMARK    1  A    between atoms: C2_2  and  C3_3 
REMARK    2  A    between atoms: C3_3  and  C4_4 
REMARK    3  A    between atoms: C4_4  and  C5_5 
REMARK    4  A    between atoms: C5_5  and  N1_6 
REMARK    5  A    between atoms: N1_6  and  C6_8 
REMARK    6  A    between atoms: N4_16  and  C10_17 
REMARK    7  A    between atoms: C10_17  and  C11_18 
REMARK    8  A    between atoms: C11_18  and  C12_19 
REMARK    9  A    between atoms: C12_19  and  N5_20 
REMARK   10  A    between atoms: N5_20  and  C13_23 
REMARK   11  A    between atoms: C13_23  and  C14_24 
REMARK   12  A    between atoms: C14_24  and  N6_25 
REMARK   13  A    between atoms: N6_25  and  C15_28 
REMARK   14  A    between atoms: C17_30  and  N7_31 
ROOT
HETATM    1  C6  UNL     1      17.381  35.961  59.663  1.00  0.00     0.681 A 
HETATM    2  N2  UNL     1      16.399  36.491  60.410  1.00  0.00    -0.174 N 
ATOM      3  H2  UNL     1      15.997  35.950  61.175  1.00  0.00     0.186 HD
HETATM    4  C7  UNL     1      15.937  37.741  60.154  1.00  0.00     0.155 A 
HETATM    5  C8  UNL     1      16.501  38.470  59.100  1.00  0.00     0.123 A 
HETATM    6  N3  UNL     1      15.858  39.648  59.109  1.00  0.00    -0.346 N 
ATOM      7  H3  UNL     1      16.036  40.413  58.458  1.00  0.00     0.167 HD
HETATM    8  C9  UNL     1      14.950  39.679  60.091  1.00  0.00     0.185 A 
HETATM    9  N4  UNL     1      14.991  38.502  60.741  1.00  0.00    -0.327 N 
HETATM   10  C17 UNL     1      17.506  37.935  58.332  1.00  0.00     0.150 A 
HETATM   11  N8  UNL     1      17.907  36.704  58.642  1.00  0.00    -0.174 N 
ATOM     12  H8  UNL     1      18.652  36.289  58.083  1.00  0.00     0.186 HD
ENDROOT
BRANCH   9  13
HETATM   13  C10 UNL     1      14.104  38.169  61.832  1.00  0.00     0.133 C 
BRANCH  13  14
HETATM   14  C11 UNL     1      12.881  37.463  61.283  1.00  0.00     0.048 C 
BRANCH  14  15
HETATM   15  C12 UNL     1      11.960  36.991  62.351  1.00  0.00     0.234 C 
BRANCH  15  16
HETATM   16  N5  UNL     1      10.663  36.703  61.828  1.00  0.00    -0.073 N 
ATOM     17  H52 UNL     1      10.652  36.768  60.810  1.00  0.00     0.277 HD
ATOM     18  H51 UNL     1      10.434  35.714  61.928  1.00  0.00     0.277 HD
BRANCH  16  19
HETATM   19  C13 UNL     1       9.646  37.537  62.416  1.00  0.00     0.259 C 
BRANCH  19  20
HETATM   20  C14 UNL     1       9.026  38.436  61.350  1.00  0.00     0.259 C 
BRANCH  20  21
HETATM   21  N6  UNL     1       9.665  39.716  61.384  1.00  0.00    -0.074 N 
ATOM     22  H62 UNL     1      10.314  39.804  62.167  1.00  0.00     0.277 HD
ATOM     23  H61 UNL     1      10.337  39.834  60.626  1.00  0.00     0.277 HD
BRANCH  21  24
HETATM   24  C15 UNL     1       8.641  40.766  61.389  1.00  0.00     0.228 C 
HETATM   25  C16 UNL     1       7.429  40.375  62.157  1.00  0.00     0.034 C 
ENDBRANCH  21  24
ENDBRANCH  20  21
ENDBRANCH  19  20
ENDBRANCH  16  19
ENDBRANCH  15  16
ENDBRANCH  14  15
ENDBRANCH  13  14
ENDBRANCH   9  13
BRANCH   1  26
HETATM   26  N1  UNL     1      17.885  34.821  59.821  1.00  0.00    -0.223 N 
ATOM     27  H1  UNL     1      17.668  34.403  60.725  1.00  0.00     0.178 HD
BRANCH  26  28
HETATM   28  C5  UNL     1      18.694  34.000  58.998  1.00  0.00     0.165 C 
BRANCH  28  29
HETATM   29  C4  UNL     1      17.884  33.613  57.820  1.00  0.00    -0.011 C 
BRANCH  29  30
HETATM   30  C3  UNL     1      18.241  33.813  56.605  1.00  0.00    -0.029 C 
BRANCH  30  31
HETATM   31  C2  UNL     1      17.469  34.507  55.577  1.00  0.00     0.022 C 
HETATM   32  C1  UNL     1      16.003  34.489  56.049  1.00  0.00     0.009 C 
ENDBRANCH  30  31
ENDBRANCH  29  30
ENDBRANCH  28  29
ENDBRANCH  26  28
ENDBRANCH   1  26
BRANCH  10  33
HETATM   33  N7  UNL     1      18.048  38.671  57.250  1.00  0.00    -0.365 N 
HETATM   34  C18 UNL     1      18.650  39.946  57.519  1.00  0.00     0.124 C 
HETATM   35  C19 UNL     1      19.938  40.056  56.743  1.00  0.00     0.020 C 
HETATM   36  C20 UNL     1      20.432  38.698  56.284  1.00  0.00     0.003 C 
HETATM   37  C21 UNL     1      19.443  37.958  55.439  1.00  0.00     0.020 C 
HETATM   38  C22 UNL     1      18.030  38.181  55.884  1.00  0.00     0.124 C 
ENDBRANCH  10  33
TORSDOF 14
ENDMDL
MODEL 4
REMARK VINA RESULT: -7.390233952      2.090      5.311
REMARK  14 active torsions:
REMARK  status: ('A' for Active; 'I' for Inactive)
REMARK    1  A    between atoms: C2_2  and  C3_3 
REMARK    2  A    between atoms: C3_3  and  C4_4 
REMARK    3  A    between atoms: C4_4  and  C5_5 
REMARK    4  A    between atoms: C5_5  and  N1_6 
REMARK    5  A    between atoms: N1_6  and  C6_8 
REMARK    6  A    between atoms: N4_16  and  C10_17 
REMARK    7  A    between atoms: C10_17  and  C11_18 
REMARK    8  A    between atoms: C11_18  and  C12_19 
REMARK    9  A    between atoms: C12_19  and  N5_20 
REMARK   10  A    between atoms: N5_20  and  C13_23 
REMARK   11  A    between atoms: C13_23  and  C14_24 
REMARK   12  A    between atoms: C14_24  and  N6_25 
REMARK   13  A    between atoms: N6_25  and  C15_28 
REMARK   14  A    between atoms: C17_30  and  N7_31 
ROOT
HETATM    1  C6  UNL     1      17.380  36.448  59.183  1.00  0.00     0.681 A 
HETATM    2  N2  UNL     1      16.388  37.181  59.713  1.00  0.00    -0.174 N 
ATOM      3  H2  UNL     1      15.759  36.762  60.397  1.00  0.00     0.186 HD
HETATM    4  C7  UNL     1      16.216  38.476  59.343  1.00  0.00     0.155 A 
HETATM    5  C8  UNL     1      17.091  39.035  58.403  1.00  0.00     0.123 A 
HETATM    6  N3  UNL     1      16.682  40.305  58.261  1.00  0.00    -0.346 N 
ATOM      7  H3  UNL     1      17.114  40.990  57.640  1.00  0.00     0.167 HD
HETATM    8  C9  UNL     1      15.626  40.548  59.047  1.00  0.00     0.185 A 
HETATM    9  N4  UNL     1      15.331  39.422  59.718  1.00  0.00    -0.327 N 
HETATM   10  C17 UNL     1      18.108  38.291  57.858  1.00  0.00     0.150 A 
HETATM   11  N8  UNL     1      18.214  37.029  58.267  1.00  0.00    -0.174 N 
ATOM     12  H8  UNL     1      18.963  36.460  57.874  1.00  0.00     0.186 HD
ENDROOT
BRANCH   9  13
HETATM   13  C10 UNL     1      14.210  39.309  60.623  1.00  0.00     0.133 C 
BRANCH  13  14
HETATM   14  C11 UNL     1      14.641  38.545  61.858  1.00  0.00     0.048 C 
BRANCH  14  15
HETATM   15  C12 UNL     1      13.670  37.488  62.250  1.00  0.00     0.234 C 
BRANCH  15  16
HETATM   16  N5  UNL     1      12.507  37.520  61.422  1.00  0.00    -0.073 N 
ATOM     17  H52 UNL     1      12.285  38.472  61.132  1.00  0.00     0.277 HD
ATOM     18  H51 UNL     1      12.693  37.112  60.506  1.00  0.00     0.277 HD
BRANCH  16  19
HETATM   19  C13 UNL     1      11.377  36.890  62.056  1.00  0.00     0.259 C 
BRANCH  19  20
HETATM   20  C14 UNL     1      10.141  37.776  61.924  1.00  0.00     0.259 C 
BRANCH  20  21
HETATM   21  N6  UNL     1      10.507  38.999  61.277  1.00  0.00    -0.074 N 
ATOM     22  H62 UNL     1      11.387  39.376  61.631  1.00  0.00     0.277 HD
ATOM     23  H61 UNL     1      10.792  38.855  60.309  1.00  0.00     0.277 HD
BRANCH  21  24
HETATM   24  C15 UNL     1       9.403  39.957  61.397  1.00  0.00     0.228 C 
HETATM   25  C16 UNL     1       8.171  39.337  61.954  1.00  0.00     0.034 C 
ENDBRANCH  21  24
ENDBRANCH  20  21
ENDBRANCH  19  20
ENDBRANCH  16  19
ENDBRANCH  15  16
ENDBRANCH  14  15
ENDBRANCH  13  14
ENDBRANCH   9  13
BRANCH   1  26
HETATM   26  N1  UNL     1      17.632  35.249  59.462  1.00  0.00    -0.223 N 
ATOM     27  H1  UNL     1      16.992  34.848  60.147  1.00  0.00     0.178 HD
BRANCH  26  28
HETATM   28  C5  UNL     1      18.623  34.341  59.017  1.00  0.00     0.165 C 
BRANCH  28  29
HETATM   29  C4  UNL     1      17.989  33.433  58.034  1.00  0.00    -0.011 C 
BRANCH  29  30
HETATM   30  C3  UNL     1      17.708  33.763  56.827  1.00  0.00    -0.029 C 
BRANCH  30  31
HETATM   31  C2  UNL     1      16.371  33.936  56.262  1.00  0.00     0.022 C 
HETATM   32  C1  UNL     1      16.323  35.366  55.693  1.00  0.00     0.009 C 
ENDBRANCH  30  31
ENDBRANCH  29  30
ENDBRANCH  28  29
ENDBRANCH  26  28
ENDBRANCH   1  26
BRANCH  10  33
HETATM   33  N7  UNL     1      18.968  38.860  56.886  1.00  0.00    -0.365 N 
HETATM   34  C18 UNL     1      19.964  39.800  57.315  1.00  0.00     0.124 C 
HETATM   35  C19 UNL     1      21.264  39.491  56.618  1.00  0.00     0.020 C 
HETATM   36  C20 UNL     1      21.273  38.087  56.048  1.00  0.00     0.003 C 
HETATM   37  C21 UNL     1      20.158  37.829  55.082  1.00  0.00     0.020 C 
HETATM   38  C22 UNL     1      18.888  38.518  55.477  1.00  0.00     0.124 C 
ENDBRANCH  10  33
TORSDOF 14
ENDMDL
MODEL 5
REMARK VINA RESULT: -7.228415276      3.878      7.641
REMARK  14 active torsions:
REMARK  status: ('A' for Active; 'I' for Inactive)
REMARK    1  A    between atoms: C2_2  and  C3_3 
REMARK    2  A    between atoms: C3_3  and  C4_4 
REMARK    3  A    between atoms: C4_4  and  C5_5 
REMARK    4  A    between atoms: C5_5  and  N1_6 
REMARK    5  A    between atoms: N1_6  and  C6_8 
REMARK    6  A    between atoms: N4_16  and  C10_17 
REMARK    7  A    between atoms: C10_17  and  C11_18 
REMARK    8  A    between atoms: C11_18  and  C12_19 
REMARK    9  A    between atoms: C12_19  and  N5_20 
REMARK   10  A    between atoms: N5_20  and  C13_23 
REMARK   11  A    between atoms: C13_23  and  C14_24 
REMARK   12  A    between atoms: C14_24  and  N6_25 
REMARK   13  A    between atoms: N6_25  and  C15_28 
REMARK   14  A    between atoms: C17_30  and  N7_31 
ROOT
HETATM    1  C6  UNL     1      17.175  37.187  58.702  1.00  0.00     0.681 A 
HETATM    2  N2  UNL     1      16.973  37.176  57.375  1.00  0.00    -0.174 N 
ATOM      3  H2  UNL     1      16.021  37.170  57.008  1.00  0.00     0.186 HD
HETATM    4  C7  UNL     1      18.025  37.172  56.518  1.00  0.00     0.155 A 
HETATM    5  C8  UNL     1      19.325  37.181  57.039  1.00  0.00     0.123 A 
HETATM    6  N3  UNL     1      20.130  37.190  55.966  1.00  0.00    -0.346 N 
ATOM      7  H3  UNL     1      21.149  37.198  56.003  1.00  0.00     0.167 HD
HETATM    8  C9  UNL     1      19.408  37.188  54.839  1.00  0.00     0.185 A 
HETATM    9  N4  UNL     1      18.105  37.174  55.171  1.00  0.00    -0.327 N 
HETATM   10  C17 UNL     1      19.539  37.193  58.396  1.00  0.00     0.150 A 
HETATM   11  N8  UNL     1      18.459  37.195  59.174  1.00  0.00    -0.174 N 
ATOM     12  H8  UNL     1      18.598  37.204  60.184  1.00  0.00     0.186 HD
ENDROOT
BRANCH   9  13
HETATM   13  C10 UNL     1      17.040  37.116  54.198  1.00  0.00     0.133 C 
BRANCH  13  14
HETATM   14  C11 UNL     1      17.344  36.026  53.191  1.00  0.00     0.048 C 
BRANCH  14  15
HETATM   15  C12 UNL     1      16.878  34.684  53.635  1.00  0.00     0.234 C 
BRANCH  15  16
HETATM   16  N5  UNL     1      17.978  33.810  53.885  1.00  0.00    -0.073 N 
ATOM     17  H52 UNL     1      18.032  33.073  53.182  1.00  0.00     0.277 HD
ATOM     18  H51 UNL     1      18.869  34.273  53.701  1.00  0.00     0.277 HD
BRANCH  16  19
HETATM   19  C13 UNL     1      17.939  33.262  55.217  1.00  0.00     0.259 C 
BRANCH  19  20
HETATM   20  C14 UNL     1      16.555  33.466  55.826  1.00  0.00     0.259 C 
BRANCH  20  21
HETATM   21  N6  UNL     1      16.689  33.685  57.233  1.00  0.00    -0.074 N 
ATOM     22  H62 UNL     1      16.188  34.518  57.545  1.00  0.00     0.277 HD
ATOM     23  H61 UNL     1      16.176  32.996  57.784  1.00  0.00     0.277 HD
BRANCH  21  24
HETATM   24  C15 UNL     1      18.113  33.729  57.581  1.00  0.00     0.228 C 
HETATM   25  C16 UNL     1      18.345  33.603  59.045  1.00  0.00     0.034 C 
ENDBRANCH  21  24
ENDBRANCH  20  21
ENDBRANCH  19  20
ENDBRANCH  16  19
ENDBRANCH  15  16
ENDBRANCH  14  15
ENDBRANCH  13  14
ENDBRANCH   9  13
BRANCH   1  26
HETATM   26  N1  UNL     1      16.275  37.201  59.579  1.00  0.00    -0.223 N 
ATOM     27  H1  UNL     1      15.437  37.706  59.292  1.00  0.00     0.178 HD
BRANCH  26  28
HETATM   28  C5  UNL     1      16.189  36.657  60.883  1.00  0.00     0.165 C 
BRANCH  28  29
HETATM   29  C4  UNL     1      15.595  37.692  61.760  1.00  0.00    -0.011 C 
BRANCH  29  30
HETATM   30  C3  UNL     1      14.362  37.716  62.110  1.00  0.00    -0.029 C 
BRANCH  30  31
HETATM   31  C2  UNL     1      13.227  38.080  61.265  1.00  0.00     0.022 C 
HETATM   32  C1  UNL     1      12.032  37.245  61.761  1.00  0.00     0.009 C 
ENDBRANCH  30  31
ENDBRANCH  29  30
ENDBRANCH  28  29
ENDBRANCH  26  28
ENDBRANCH   1  26
BRANCH  10  33
HETATM   33  N7  UNL     1      20.859  37.173  58.910  1.00  0.00    -0.365 N 
HETATM   34  C18 UNL     1      21.452  35.906  59.233  1.00  0.00     0.124 C 
HETATM   35  C19 UNL     1      22.873  35.886  58.733  1.00  0.00     0.020 C 
HETATM   36  C20 UNL     1      23.116  36.963  57.695  1.00  0.00     0.003 C 
HETATM   37  C21 UNL     1      22.818  38.345  58.188  1.00  0.00     0.020 C 
HETATM   38  C22 UNL     1      21.638  38.381  59.111  1.00  0.00     0.124 C 
ENDBRANCH  10  33
TORSDOF 14
ENDMDL
