MODEL 1
REMARK VINA RESULT: -6.434434712      0.000      0.000
REMARK  16 active torsions:
REMARK  status: ('A' for Active; 'I' for Inactive)
REMARK    1  A    between atoms: C2_2  and  C3_3 
REMARK    2  A    between atoms: C3_3  and  C6_6 
REMARK    3  A    between atoms: C6_6  and  C7_7 
REMARK    4  A    between atoms: C7_7  and  O1_8 
REMARK    5  A    between atoms: C7_7  and  C17_33 
REMARK    6  A    between atoms: O1_8  and  C8_9 
REMARK    7  A    between atoms: C9_11  and  C10_12 
REMARK    8  A    between atoms: C10_12  and  N1_13 
REMARK    9  A    between atoms: N1_13  and  N2_15 
REMARK   10  A    between atoms: N2_15  and  N3_16 
REMARK   11  A    between atoms: C11_19  and  O3_20 
REMARK   12  A    between atoms: C12_22  and  O4_23 
REMARK   13  A    between atoms: C13_25  and  O5_26 
REMARK   14  A    between atoms: O5_26  and  C14_27 
REMARK   15  A    between atoms: C14_27  and  C15_28 
REMARK   16  A    between atoms: C15_28  and  N4_29 
ROOT
HETATM    1  C8  UNL     1      18.384  36.608  56.843  1.00  0.00     0.292 C 
HETATM    2  O2  UNL     1      19.199  35.803  56.099  1.00  0.00    -0.349 OA
HETATM    3  C9  UNL     1      18.924  35.345  54.886  1.00  0.00     0.176 C 
HETATM    4  C11 UNL     1      18.195  36.335  53.996  1.00  0.00     0.180 C 
HETATM    5  C12 UNL     1      18.340  37.720  54.667  1.00  0.00     0.183 C 
HETATM    6  C13 UNL     1      17.563  37.500  55.993  1.00  0.00     0.207 C 
ENDROOT
BRANCH   1   7
HETATM    7  O1  UNL     1      17.579  35.864  57.675  1.00  0.00    -0.353 OA
BRANCH   7   8
HETATM    8  C7  UNL     1      17.709  36.084  59.061  1.00  0.00     0.128 C 
BRANCH   8   9
HETATM    9  C6  UNL     1      16.367  36.323  59.562  1.00  0.00     0.041 C 
BRANCH   9  10
HETATM   10  C3  UNL     1      15.887  37.172  60.633  1.00  0.00    -0.046 C 
HETATM   11  C4  UNL     1      16.532  37.177  61.966  1.00  0.00     0.015 C 
HETATM   12  C5  UNL     1      15.673  38.604  60.186  1.00  0.00     0.015 C 
BRANCH  10  13
HETATM   13  C2  UNL     1      14.391  36.690  60.889  1.00  0.00     0.004 C 
HETATM   14  C1  UNL     1      13.520  37.849  61.210  1.00  0.00     0.006 C 
ENDBRANCH  10  13
ENDBRANCH   9  10
ENDBRANCH   8   9
BRANCH   8  15
HETATM   15  C17 UNL     1      18.618  35.095  59.699  1.00  0.00     0.006 C 
HETATM   16  C18 UNL     1      18.401  33.714  58.998  1.00  0.00     0.012 C 
HETATM   17  C19 UNL     1      20.099  35.324  59.463  1.00  0.00     0.012 C 
ENDBRANCH   8  15
ENDBRANCH   7   8
ENDBRANCH   1   7
BRANCH   6  18
HETATM   18  O5  UNL     1      17.295  38.768  56.524  1.00  0.00    -0.377 OA
BRANCH  18  19
HETATM   19  C14 UNL     1      18.336  39.102  57.371  1.00  0.00     0.196 C 
BRANCH  19  20
HETATM   20  C15 UNL     1      18.217  40.534  57.873  1.00  0.00     0.258 C 
BRANCH  20  21
HETATM   21  N4  UNL     1      16.883  40.851  58.313  1.00  0.00    -0.077 N 
HETATM   22  C16 UNL     1      16.693  42.218  58.683  1.00  0.00     0.267 C 
ATOM     23  H42 UNL     1      16.200  40.575  57.608  1.00  0.00     0.276 HD
ATOM     24  H41 UNL     1      16.604  40.234  59.076  1.00  0.00     0.276 HD
ENDBRANCH  20  21
ENDBRANCH  19  20
ENDBRANCH  18  19
ENDBRANCH   6  18
BRANCH   3  25
HETATM   25  C10 UNL     1      18.188  34.052  54.861  1.00  0.00     0.190 C 
BRANCH  25  26
HETATM   26  N1  UNL     1      16.765  34.121  54.923  1.00  0.00    -0.250 N 
ATOM     27  H1  UNL     1      16.274  34.446  54.090  1.00  0.00     0.197 HD
BRANCH  26  28
HETATM   28  N2  UNL     1      16.081  33.819  55.905  1.00  0.00    -0.248 NA
BRANCH  28  29
HETATM   29  N3  UNL     1      15.490  33.560  56.959  1.00  0.00    -0.261 N 
ATOM     30  H32 UNL     1      15.758  32.608  56.712  1.00  0.00     0.193 HD
ATOM     31  H31 UNL     1      14.985  33.450  57.839  1.00  0.00     0.193 HD
ENDBRANCH  28  29
ENDBRANCH  26  28
ENDBRANCH  25  26
ENDBRANCH   3  25
BRANCH   5  32
HETATM   32  O4  UNL     1      17.775  38.669  53.869  1.00  0.00    -0.390 OA
ATOM     33  H4  UNL     1      18.399  39.371  53.726  1.00  0.00     0.210 HD
ENDBRANCH   5  32
BRANCH   4  34
HETATM   34  O3  UNL     1      18.797  36.429  52.761  1.00  0.00    -0.390 OA
ATOM     35  H3  UNL     1      18.160  36.612  52.081  1.00  0.00     0.210 HD
ENDBRANCH   4  34
TORSDOF 16
ENDMDL
MODEL 2
REMARK VINA RESULT: -6.292014609      2.967      5.479
REMARK  16 active torsions:
REMARK  status: ('A' for Active; 'I' for Inactive)
REMARK    1  A    between atoms: C2_2  and  C3_3 
REMARK    2  A    between atoms: C3_3  and  C6_6 
REMARK    3  A    between atoms: C6_6  and  C7_7 
REMARK    4  A    between atoms: C7_7  and  O1_8 
REMARK    5  A    between atoms: C7_7  and  C17_33 
REMARK    6  A    between atoms: O1_8  and  C8_9 
REMARK    7  A    between atoms: C9_11  and  C10_12 
REMARK    8  A    between atoms: C10_12  and  N1_13 
REMARK    9  A    between atoms: N1_13  and  N2_15 
REMARK   10  A    between atoms: N2_15  and  N3_16 
REMARK   11  A    between atoms: C11_19  and  O3_20 
REMARK   12  A    between atoms: C12_22  and  O4_23 
REMARK   13  A    between atoms: C13_25  and  O5_26 
REMARK   14  A    between atoms: O5_26  and  C14_27 
REMARK   15  A    between atoms: C14_27  and  C15_28 
REMARK   16  A    between atoms: C15_28  and  N4_29 
ROOT
HETATM    1  C8  UNL     1      17.352  37.581  57.811  1.00  0.00     0.292 C 
HETATM    2  O2  UNL     1      16.317  37.072  58.542  1.00  0.00    -0.349 OA
HETATM    3  C9  UNL     1      15.975  37.464  59.761  1.00  0.00     0.176 C 
HETATM    4  C11 UNL     1      16.113  38.957  59.998  1.00  0.00     0.180 C 
HETATM    5  C12 UNL     1      16.253  39.614  58.606  1.00  0.00     0.183 C 
HETATM    6  C13 UNL     1      17.596  39.009  58.116  1.00  0.00     0.207 C 
ENDROOT
BRANCH   1   7
HETATM    7  O1  UNL     1      18.501  36.847  58.002  1.00  0.00    -0.353 OA
BRANCH   7   8
HETATM    8  C7  UNL     1      18.478  35.499  57.591  1.00  0.00     0.128 C 
BRANCH   8   9
HETATM    9  C6  UNL     1      18.623  35.514  56.145  1.00  0.00     0.041 C 
BRANCH   9  10
HETATM   10  C3  UNL     1      17.905  34.801  55.109  1.00  0.00    -0.046 C 
HETATM   11  C4  UNL     1      17.947  35.241  53.695  1.00  0.00     0.015 C 
HETATM   12  C5  UNL     1      18.139  33.306  55.164  1.00  0.00     0.015 C 
BRANCH  10  13
HETATM   13  C2  UNL     1      16.374  34.902  55.537  1.00  0.00     0.004 C 
HETATM   14  C1  UNL     1      15.926  33.632  56.161  1.00  0.00     0.006 C 
ENDBRANCH  10  13
ENDBRANCH   9  10
ENDBRANCH   8   9
BRANCH   8  15
HETATM   15  C17 UNL     1      19.329  34.639  58.454  1.00  0.00     0.006 C 
HETATM   16  C18 UNL     1      19.943  35.536  59.579  1.00  0.00     0.012 C 
HETATM   17  C19 UNL     1      18.587  33.597  59.270  1.00  0.00     0.012 C 
ENDBRANCH   8  15
ENDBRANCH   7   8
ENDBRANCH   1   7
BRANCH   6  18
HETATM   18  O5  UNL     1      18.029  39.795  57.040  1.00  0.00    -0.377 OA
BRANCH  18  19
HETATM   19  C14 UNL     1      19.379  40.041  57.209  1.00  0.00     0.196 C 
BRANCH  19  20
HETATM   20  C15 UNL     1      20.221  39.277  56.197  1.00  0.00     0.258 C 
BRANCH  20  21
HETATM   21  N4  UNL     1      21.015  38.246  56.813  1.00  0.00    -0.077 N 
HETATM   22  C16 UNL     1      21.569  38.605  58.081  1.00  0.00     0.267 C 
ATOM     23  H42 UNL     1      20.478  37.382  56.892  1.00  0.00     0.276 HD
ATOM     24  H41 UNL     1      21.751  37.936  56.179  1.00  0.00     0.276 HD
ENDBRANCH  20  21
ENDBRANCH  19  20
ENDBRANCH  18  19
ENDBRANCH   6  18
BRANCH   3  25
HETATM   25  C10 UNL     1      16.664  36.741  60.863  1.00  0.00     0.190 C 
BRANCH  25  26
HETATM   26  N1  UNL     1      16.357  37.154  62.193  1.00  0.00    -0.250 N 
ATOM     27  H1  UNL     1      17.140  37.377  62.808  1.00  0.00     0.197 HD
BRANCH  26  28
HETATM   28  N2  UNL     1      15.219  37.263  62.660  1.00  0.00    -0.248 NA
BRANCH  28  29
HETATM   29  N3  UNL     1      14.077  37.487  63.074  1.00  0.00    -0.261 N 
ATOM     30  H32 UNL     1      14.429  38.445  63.107  1.00  0.00     0.193 HD
ATOM     31  H31 UNL     1      13.116  37.570  63.406  1.00  0.00     0.193 HD
ENDBRANCH  28  29
ENDBRANCH  26  28
ENDBRANCH  25  26
ENDBRANCH   3  25
BRANCH   5  32
HETATM   32  O4  UNL     1      16.297  40.968  58.749  1.00  0.00    -0.390 OA
ATOM     33  H4  UNL     1      15.851  41.376  58.016  1.00  0.00     0.210 HD
ENDBRANCH   5  32
BRANCH   4  34
HETATM   34  O3  UNL     1      14.973  39.478  60.569  1.00  0.00    -0.390 OA
ATOM     35  H3  UNL     1      15.015  40.425  60.617  1.00  0.00     0.210 HD
ENDBRANCH   4  34
TORSDOF 16
ENDMDL
MODEL 3
REMARK VINA RESULT: -6.288082653      3.039      5.602
REMARK  16 active torsions:
REMARK  status: ('A' for Active; 'I' for Inactive)
REMARK    1  A    between atoms: C2_2  and  C3_3 
REMARK    2  A    between atoms: C3_3  and  C6_6 
REMARK    3  A    between atoms: C6_6  and  C7_7 
REMARK    4  A    between atoms: C7_7  and  O1_8 
REMARK    5  A    between atoms: C7_7  and  C17_33 
REMARK    6  A    between atoms: O1_8  and  C8_9 
REMARK    7  A    between atoms: C9_11  and  C10_12 
REMARK    8  A    between atoms: C10_12  and  N1_13 
REMARK    9  A    between atoms: N1_13  and  N2_15 
REMARK   10  A    between atoms: N2_15  and  N3_16 
REMARK   11  A    between atoms: C11_19  and  O3_20 
REMARK   12  A    between atoms: C12_22  and  O4_23 
REMARK   13  A    between atoms: C13_25  and  O5_26 
REMARK   14  A    between atoms: O5_26  and  C14_27 
REMARK   15  A    between atoms: C14_27  and  C15_28 
REMARK   16  A    between atoms: C15_28  and  N4_29 
ROOT
HETATM    1  C8  UNL     1      16.667  37.770  58.601  1.00  0.00     0.292 C 
HETATM    2  O2  UNL     1      15.668  37.202  59.340  1.00  0.00    -0.349 OA
HETATM    3  C9  UNL     1      15.254  37.629  60.525  1.00  0.00     0.176 C 
HETATM    4  C11 UNL     1      15.233  39.140  60.671  1.00  0.00     0.180 C 
HETATM    5  C12 UNL     1      15.344  39.722  59.244  1.00  0.00     0.183 C 
HETATM    6  C13 UNL     1      16.756  39.231  58.823  1.00  0.00     0.207 C 
ENDROOT
BRANCH   1   7
HETATM    7  O1  UNL     1      17.879  37.172  58.864  1.00  0.00    -0.353 OA
BRANCH   7   8
HETATM    8  C7  UNL     1      18.048  35.843  58.423  1.00  0.00     0.128 C 
BRANCH   8   9
HETATM    9  C6  UNL     1      18.414  35.925  57.020  1.00  0.00     0.041 C 
BRANCH   9  10
HETATM   10  C3  UNL     1      17.706  35.513  55.825  1.00  0.00    -0.046 C 
HETATM   11  C4  UNL     1      17.320  36.488  54.779  1.00  0.00     0.015 C 
HETATM   12  C5  UNL     1      18.340  34.307  55.163  1.00  0.00     0.015 C 
BRANCH  10  13
HETATM   13  C2  UNL     1      16.336  34.901  56.359  1.00  0.00     0.004 C 
HETATM   14  C1  UNL     1      16.236  33.464  56.002  1.00  0.00     0.006 C 
ENDBRANCH  10  13
ENDBRANCH   9  10
ENDBRANCH   8   9
BRANCH   8  15
HETATM   15  C17 UNL     1      18.832  35.032  59.391  1.00  0.00     0.006 C 
HETATM   16  C18 UNL     1      18.551  33.521  59.096  1.00  0.00     0.012 C 
HETATM   17  C19 UNL     1      20.338  35.096  59.225  1.00  0.00     0.012 C 
ENDBRANCH   8  15
ENDBRANCH   7   8
ENDBRANCH   1   7
BRANCH   6  18
HETATM   18  O5  UNL     1      17.136  39.992  57.709  1.00  0.00    -0.377 OA
BRANCH  18  19
HETATM   19  C14 UNL     1      18.411  40.474  57.939  1.00  0.00     0.196 C 
BRANCH  19  20
HETATM   20  C15 UNL     1      19.460  39.682  57.172  1.00  0.00     0.258 C 
BRANCH  20  21
HETATM   21  N4  UNL     1      20.297  38.896  58.041  1.00  0.00    -0.077 N 
HETATM   22  C16 UNL     1      21.432  38.313  57.398  1.00  0.00     0.267 C 
ATOM     23  H42 UNL     1      20.589  39.447  58.848  1.00  0.00     0.276 HD
ATOM     24  H41 UNL     1      19.746  38.177  58.511  1.00  0.00     0.276 HD
ENDBRANCH  20  21
ENDBRANCH  19  20
ENDBRANCH  18  19
ENDBRANCH   6  18
BRANCH   3  25
HETATM   25  C10 UNL     1      15.982  37.048  61.685  1.00  0.00     0.190 C 
BRANCH  25  26
HETATM   26  N1  UNL     1      15.191  36.634  62.797  1.00  0.00    -0.250 N 
ATOM     27  H1  UNL     1      15.643  36.058  63.507  1.00  0.00     0.197 HD
BRANCH  26  28
HETATM   28  N2  UNL     1      14.001  36.917  62.969  1.00  0.00    -0.248 NA
BRANCH  28  29
HETATM   29  N3  UNL     1      12.791  37.159  63.021  1.00  0.00    -0.261 N 
ATOM     30  H32 UNL     1      12.782  36.282  63.544  1.00  0.00     0.193 HD
ATOM     31  H31 UNL     1      11.812  37.445  63.010  1.00  0.00     0.193 HD
ENDBRANCH  28  29
ENDBRANCH  26  28
ENDBRANCH  25  26
ENDBRANCH   3  25
BRANCH   5  32
HETATM   32  O4  UNL     1      15.246  41.080  59.303  1.00  0.00    -0.390 OA
ATOM     33  H4  UNL     1      16.104  41.463  59.161  1.00  0.00     0.210 HD
ENDBRANCH   5  32
BRANCH   4  34
HETATM   34  O3  UNL     1      14.030  39.572  61.183  1.00  0.00    -0.390 OA
ATOM     35  H3  UNL     1      14.148  40.330  61.743  1.00  0.00     0.210 HD
ENDBRANCH   4  34
TORSDOF 16
ENDMDL
MODEL 4
REMARK VINA RESULT: -6.246078351      2.403      4.283
REMARK  16 active torsions:
REMARK  status: ('A' for Active; 'I' for Inactive)
REMARK    1  A    between atoms: C2_2  and  C3_3 
REMARK    2  A    between atoms: C3_3  and  C6_6 
REMARK    3  A    between atoms: C6_6  and  C7_7 
REMARK    4  A    between atoms: C7_7  and  O1_8 
REMARK    5  A    between atoms: C7_7  and  C17_33 
REMARK    6  A    between atoms: O1_8  and  C8_9 
REMARK    7  A    between atoms: C9_11  and  C10_12 
REMARK    8  A    between atoms: C10_12  and  N1_13 
REMARK    9  A    between atoms: N1_13  and  N2_15 
REMARK   10  A    between atoms: N2_15  and  N3_16 
REMARK   11  A    between atoms: C11_19  and  O3_20 
REMARK   12  A    between atoms: C12_22  and  O4_23 
REMARK   13  A    between atoms: C13_25  and  O5_26 
REMARK   14  A    between atoms: O5_26  and  C14_27 
REMARK   15  A    between atoms: C14_27  and  C15_28 
REMARK   16  A    between atoms: C15_28  and  N4_29 
ROOT
HETATM    1  C8  UNL     1      17.513  37.524  57.053  1.00  0.00     0.292 C 
HETATM    2  O2  UNL     1      18.441  38.503  57.267  1.00  0.00    -0.349 OA
HETATM    3  C9  UNL     1      19.612  38.596  56.653  1.00  0.00     0.176 C 
HETATM    4  C11 UNL     1      19.581  38.201  55.188  1.00  0.00     0.180 C 
HETATM    5  C12 UNL     1      18.094  38.174  54.770  1.00  0.00     0.183 C 
HETATM    6  C13 UNL     1      17.547  37.024  55.660  1.00  0.00     0.207 C 
ENDROOT
BRANCH   1   7
HETATM    7  O1  UNL     1      17.679  36.483  57.939  1.00  0.00    -0.353 OA
BRANCH   7   8
HETATM    8  C7  UNL     1      17.634  36.795  59.313  1.00  0.00     0.128 C 
BRANCH   8   9
HETATM    9  C6  UNL     1      16.229  36.940  59.650  1.00  0.00     0.041 C 
BRANCH   9  10
HETATM   10  C3  UNL     1      15.582  37.552  60.792  1.00  0.00    -0.046 C 
HETATM   11  C4  UNL     1      16.182  37.496  62.145  1.00  0.00     0.015 C 
HETATM   12  C5  UNL     1      15.134  38.972  60.512  1.00  0.00     0.015 C 
BRANCH  10  13
HETATM   13  C2  UNL     1      14.186  36.796  60.917  1.00  0.00     0.004 C 
HETATM   14  C1  UNL     1      13.111  37.749  61.291  1.00  0.00     0.006 C 
ENDBRANCH  10  13
ENDBRANCH   9  10
ENDBRANCH   8   9
BRANCH   8  15
HETATM   15  C17 UNL     1      18.545  35.932  60.110  1.00  0.00     0.006 C 
HETATM   16  C18 UNL     1      18.628  34.536  59.409  1.00  0.00     0.012 C 
HETATM   17  C19 UNL     1      20.003  36.354  60.115  1.00  0.00     0.012 C 
ENDBRANCH   8  15
ENDBRANCH   7   8
ENDBRANCH   1   7
BRANCH   6  18
HETATM   18  O5  UNL     1      16.311  36.644  55.120  1.00  0.00    -0.377 OA
BRANCH  18  19
HETATM   19  C14 UNL     1      16.342  35.278  54.909  1.00  0.00     0.196 C 
BRANCH  19  20
HETATM   20  C15 UNL     1      15.647  34.519  56.030  1.00  0.00     0.258 C 
BRANCH  20  21
HETATM   21  N4  UNL     1      16.545  33.642  56.736  1.00  0.00    -0.077 N 
HETATM   22  C16 UNL     1      17.719  33.286  56.003  1.00  0.00     0.267 C 
ATOM     23  H42 UNL     1      16.798  34.044  57.639  1.00  0.00     0.276 HD
ATOM     24  H41 UNL     1      16.053  32.806  57.049  1.00  0.00     0.276 HD
ENDBRANCH  20  21
ENDBRANCH  19  20
ENDBRANCH  18  19
ENDBRANCH   6  18
BRANCH   3  25
HETATM   25  C10 UNL     1      20.724  37.867  57.320  1.00  0.00     0.190 C 
BRANCH  25  26
HETATM   26  N1  UNL     1      21.864  38.637  57.695  1.00  0.00    -0.250 N 
ATOM     27  H1  UNL     1      22.242  39.284  57.002  1.00  0.00     0.197 HD
BRANCH  26  28
HETATM   28  N2  UNL     1      22.431  38.583  58.791  1.00  0.00    -0.248 NA
BRANCH  28  29
HETATM   29  N3  UNL     1      22.891  38.580  59.937  1.00  0.00    -0.261 N 
ATOM     30  H32 UNL     1      21.915  38.751  60.179  1.00  0.00     0.193 HD
ATOM     31  H31 UNL     1      23.365  38.559  60.840  1.00  0.00     0.193 HD
ENDBRANCH  28  29
ENDBRANCH  26  28
ENDBRANCH  25  26
ENDBRANCH   3  25
BRANCH   5  32
HETATM   32  O4  UNL     1      18.005  37.905  53.437  1.00  0.00    -0.390 OA
ATOM     33  H4  UNL     1      18.030  36.965  53.304  1.00  0.00     0.210 HD
ENDBRANCH   5  32
BRANCH   4  34
HETATM   34  O3  UNL     1      20.196  39.152  54.404  1.00  0.00    -0.390 OA
ATOM     35  H3  UNL     1      20.743  38.748  53.741  1.00  0.00     0.210 HD
ENDBRANCH   4  34
TORSDOF 16
ENDMDL
MODEL 5
REMARK VINA RESULT: -6.238193282      2.294      4.427
REMARK  16 active torsions:
REMARK  status: ('A' for Active; 'I' for Inactive)
REMARK    1  A    between atoms: C2_2  and  C3_3 
REMARK    2  A    between atoms: C3_3  and  C6_6 
REMARK    3  A    between atoms: C6_6  and  C7_7 
REMARK    4  A    between atoms: C7_7  and  O1_8 
REMARK    5  A    between atoms: C7_7  and  C17_33 
REMARK    6  A    between atoms: O1_8  and  C8_9 
REMARK    7  A    between atoms: C9_11  and  C10_12 
REMARK    8  A    between atoms: C10_12  and  N1_13 
REMARK    9  A    between atoms: N1_13  and  N2_15 
REMARK   10  A    between atoms: N2_15  and  N3_16 
REMARK   11  A    between atoms: C11_19  and  O3_20 
REMARK   12  A    between atoms: C12_22  and  O4_23 
REMARK   13  A    between atoms: C13_25  and  O5_26 
REMARK   14  A    between atoms: O5_26  and  C14_27 
REMARK   15  A    between atoms: C14_27  and  C15_28 
REMARK   16  A    between atoms: C15_28  and  N4_29 
ROOT
HETATM    1  C8  UNL     1      16.903  36.501  56.904  1.00  0.00     0.292 C 
HETATM    2  O2  UNL     1      17.541  37.684  56.663  1.00  0.00    -0.349 OA
HETATM    3  C9  UNL     1      18.464  37.881  55.732  1.00  0.00     0.176 C 
HETATM    4  C11 UNL     1      18.210  37.138  54.433  1.00  0.00     0.180 C 
HETATM    5  C12 UNL     1      16.735  36.676  54.472  1.00  0.00     0.183 C 
HETATM    6  C13 UNL     1      16.754  35.692  55.673  1.00  0.00     0.207 C 
ENDROOT
BRANCH   1   7
HETATM    7  O1  UNL     1      17.554  35.777  57.877  1.00  0.00    -0.353 OA
BRANCH   7   8
HETATM    8  C7  UNL     1      17.636  36.354  59.161  1.00  0.00     0.128 C 
BRANCH   8   9
HETATM    9  C6  UNL     1      16.293  36.303  59.714  1.00  0.00     0.041 C 
BRANCH   9  10
HETATM   10  C3  UNL     1      15.610  37.185  60.637  1.00  0.00    -0.046 C 
HETATM   11  C4  UNL     1      14.158  37.055  60.901  1.00  0.00     0.015 C 
HETATM   12  C5  UNL     1      16.338  37.318  61.958  1.00  0.00     0.015 C 
BRANCH  10  13
HETATM   13  C2  UNL     1      15.799  38.640  60.019  1.00  0.00     0.004 C 
HETATM   14  C1  UNL     1      14.660  39.515  60.395  1.00  0.00     0.006 C 
ENDBRANCH  10  13
ENDBRANCH   9  10
ENDBRANCH   8   9
BRANCH   8  15
HETATM   15  C17 UNL     1      18.814  35.859  59.920  1.00  0.00     0.006 C 
HETATM   16  C18 UNL     1      19.272  34.508  59.279  1.00  0.00     0.012 C 
HETATM   17  C19 UNL     1      20.072  36.697  59.787  1.00  0.00     0.012 C 
ENDBRANCH   8  15
ENDBRANCH   7   8
ENDBRANCH   1   7
BRANCH   6  18
HETATM   18  O5  UNL     1      15.586  34.923  55.588  1.00  0.00    -0.377 OA
BRANCH  18  19
HETATM   19  C14 UNL     1      15.881  33.650  56.039  1.00  0.00     0.196 C 
BRANCH  19  20
HETATM   20  C15 UNL     1      17.001  33.012  55.231  1.00  0.00     0.258 C 
BRANCH  20  21
HETATM   21  N4  UNL     1      16.954  31.573  55.271  1.00  0.00    -0.077 N 
HETATM   22  C16 UNL     1      18.006  30.928  54.552  1.00  0.00     0.267 C 
ATOM     23  H42 UNL     1      16.929  31.244  56.237  1.00  0.00     0.276 HD
ATOM     24  H41 UNL     1      16.045  31.238  54.950  1.00  0.00     0.276 HD
ENDBRANCH  20  21
ENDBRANCH  19  20
ENDBRANCH  18  19
ENDBRANCH   6  18
BRANCH   3  25
HETATM   25  C10 UNL     1      19.859  37.608  56.172  1.00  0.00     0.190 C 
BRANCH  25  26
HETATM   26  N1  UNL     1      20.268  36.242  56.200  1.00  0.00    -0.250 N 
ATOM     27  H1  UNL     1      19.588  35.542  55.904  1.00  0.00     0.197 HD
BRANCH  26  28
HETATM   28  N2  UNL     1      21.380  35.840  56.554  1.00  0.00    -0.248 NA
BRANCH  28  29
HETATM   29  N3  UNL     1      22.542  35.525  56.832  1.00  0.00    -0.261 N 
ATOM     30  H32 UNL     1      22.623  35.477  55.816  1.00  0.00     0.193 HD
ATOM     31  H31 UNL     1      23.475  35.276  57.162  1.00  0.00     0.193 HD
ENDBRANCH  28  29
ENDBRANCH  26  28
ENDBRANCH  25  26
ENDBRANCH   3  25
BRANCH   5  32
HETATM   32  O4  UNL     1      16.421  36.072  53.292  1.00  0.00    -0.390 OA
ATOM     33  H4  UNL     1      16.270  35.146  53.443  1.00  0.00     0.210 HD
ENDBRANCH   5  32
BRANCH   4  34
HETATM   34  O3  UNL     1      18.334  37.977  53.348  1.00  0.00    -0.390 OA
ATOM     35  H3  UNL     1      18.306  38.888  53.614  1.00  0.00     0.210 HD
ENDBRANCH   4  34
TORSDOF 16
ENDMDL
