MODEL 1
REMARK VINA RESULT: -7.872503211      0.000      0.000
REMARK  17 active torsions:
REMARK  status: ('A' for Active; 'I' for Inactive)
REMARK    1  A    between atoms: C2_2  and  C3_3 
REMARK    2  A    between atoms: C3_3  and  C4_4 
REMARK    3  A    between atoms: C4_4  and  C5_5 
REMARK    4  A    between atoms: C5_5  and  C6_6 
REMARK    5  A    between atoms: C6_6  and  C7_7 
REMARK    6  A    between atoms: C7_7  and  C10_10 
REMARK    7  A    between atoms: C10_10  and  O1_11 
REMARK    8  A    between atoms: C10_10  and  C11_13 
REMARK    9  A    between atoms: C11_13  and  C12_14 
REMARK   10  A    between atoms: C11_13  and  O3_21 
REMARK   11  A    between atoms: C12_14  and  C13_15 
REMARK   12  A    between atoms: C14_16  and  C15_17 
REMARK   13  A    between atoms: C15_17  and  O2_19 
REMARK   14  A    between atoms: O3_21  and  C17_22 
REMARK   15  A    between atoms: C20_26  and  O5_27 
REMARK   16  A    between atoms: C21_29  and  C22_30 
REMARK   17  A    between atoms: C22_30  and  O6_31 
ROOT
HETATM    1  C11 UNL     1      16.898  37.120  59.467  1.00  0.00     0.157 C 
ENDROOT
BRANCH   1   2
HETATM    2  C10 UNL     1      15.673  36.795  60.285  1.00  0.00     0.155 C 
BRANCH   2   3
HETATM    3  C7  UNL     1      14.992  37.910  60.986  1.00  0.00    -0.019 C 
HETATM    4  C8  UNL     1      15.326  38.098  62.416  1.00  0.00     0.017 C 
HETATM    5  C9  UNL     1      15.088  39.190  60.168  1.00  0.00     0.017 C 
BRANCH   3   6
HETATM    6  C6  UNL     1      13.479  37.525  60.917  1.00  0.00     0.011 C 
BRANCH   6   7
HETATM    7  C5  UNL     1      12.902  37.399  62.293  1.00  0.00     0.001 C 
BRANCH   7   8
HETATM    8  C4  UNL     1      11.435  37.046  62.119  1.00  0.00     0.004 C 
BRANCH   8   9
HETATM    9  C3  UNL     1      10.613  38.231  61.667  1.00  0.00     0.026 C 
BRANCH   9  10
HETATM   10  C2  UNL     1       9.183  37.837  61.682  1.00  0.00    -0.037 C 
HETATM   11  C1  UNL     1       8.315  38.586  62.389  1.00  0.00     0.007 C 
ENDBRANCH   9  10
ENDBRANCH   8   9
ENDBRANCH   7   8
ENDBRANCH   6   7
ENDBRANCH   3   6
ENDBRANCH   2   3
BRANCH   2  12
HETATM   12  O1  UNL     1      16.165  35.961  61.371  1.00  0.00    -0.392 OA
ATOM     13  H1  UNL     1      15.571  35.220  61.367  1.00  0.00     0.210 HD
ENDBRANCH   2  12
ENDBRANCH   1   2
BRANCH   1  14
HETATM   14  C12 UNL     1      18.048  36.528  60.315  1.00  0.00     0.061 C 
BRANCH  14  15
HETATM   15  C13 UNL     1      18.812  35.473  59.687  1.00  0.00    -0.025 C 
HETATM   16  C14 UNL     1      20.091  35.611  59.417  1.00  0.00     0.000 C 
BRANCH  16  17
HETATM   17  C15 UNL     1      20.785  36.872  59.758  1.00  0.00     0.136 C 
HETATM   18  C16 UNL     1      21.682  37.334  58.611  1.00  0.00     0.043 C 
BRANCH  17  19
HETATM   19  O2  UNL     1      21.582  36.712  60.917  1.00  0.00    -0.392 OA
ATOM     20  H2  UNL     1      21.356  37.359  61.574  1.00  0.00     0.210 HD
ENDBRANCH  17  19
ENDBRANCH  16  17
ENDBRANCH  14  15
ENDBRANCH   1  14
BRANCH   1  21
HETATM   21  O3  UNL     1      16.931  36.781  58.167  1.00  0.00    -0.353 OA
BRANCH  21  22
HETATM   22  C17 UNL     1      17.158  37.803  57.255  1.00  0.00     0.269 C 
HETATM   23  O4  UNL     1      16.958  37.316  55.972  1.00  0.00    -0.353 OA
HETATM   24  C18 UNL     1      17.864  37.976  55.145  1.00  0.00     0.150 C 
HETATM   25  C19 UNL     1      17.959  37.317  53.812  1.00  0.00     0.042 C 
HETATM   26  C20 UNL     1      19.132  37.806  55.978  1.00  0.00     0.157 C 
HETATM   27  C21 UNL     1      18.602  38.210  57.337  1.00  0.00     0.096 C 
BRANCH  26  28
HETATM   28  O5  UNL     1      19.418  36.444  56.000  1.00  0.00    -0.392 OA
ATOM     29  H5  UNL     1      19.952  36.288  56.769  1.00  0.00     0.210 HD
ENDBRANCH  26  28
BRANCH  27  30
HETATM   30  C22 UNL     1      18.764  39.719  57.421  1.00  0.00     0.176 C 
BRANCH  30  31
HETATM   31  O6  UNL     1      17.535  40.206  57.916  1.00  0.00    -0.400 OA
ATOM     32  H6  UNL     1      17.738  40.608  58.752  1.00  0.00     0.209 HD
ENDBRANCH  30  31
ENDBRANCH  27  30
ENDBRANCH  21  22
ENDBRANCH   1  21
TORSDOF 17
ENDMDL
MODEL 2
REMARK VINA RESULT: -7.701493126      1.710      2.602
REMARK  17 active torsions:
REMARK  status: ('A' for Active; 'I' for Inactive)
REMARK    1  A    between atoms: C2_2  and  C3_3 
REMARK    2  A    between atoms: C3_3  and  C4_4 
REMARK    3  A    between atoms: C4_4  and  C5_5 
REMARK    4  A    between atoms: C5_5  and  C6_6 
REMARK    5  A    between atoms: C6_6  and  C7_7 
REMARK    6  A    between atoms: C7_7  and  C10_10 
REMARK    7  A    between atoms: C10_10  and  O1_11 
REMARK    8  A    between atoms: C10_10  and  C11_13 
REMARK    9  A    between atoms: C11_13  and  C12_14 
REMARK   10  A    between atoms: C11_13  and  O3_21 
REMARK   11  A    between atoms: C12_14  and  C13_15 
REMARK   12  A    between atoms: C14_16  and  C15_17 
REMARK   13  A    between atoms: C15_17  and  O2_19 
REMARK   14  A    between atoms: O3_21  and  C17_22 
REMARK   15  A    between atoms: C20_26  and  O5_27 
REMARK   16  A    between atoms: C21_29  and  C22_30 
REMARK   17  A    between atoms: C22_30  and  O6_31 
ROOT
HETATM    1  C11 UNL     1      17.137  37.294  58.762  1.00  0.00     0.157 C 
ENDROOT
BRANCH   1   2
HETATM    2  C10 UNL     1      16.248  36.595  59.760  1.00  0.00     0.155 C 
BRANCH   2   3
HETATM    3  C7  UNL     1      15.601  37.422  60.808  1.00  0.00    -0.019 C 
HETATM    4  C8  UNL     1      16.198  37.365  62.162  1.00  0.00     0.017 C 
HETATM    5  C9  UNL     1      15.377  38.840  60.304  1.00  0.00     0.017 C 
BRANCH   3   6
HETATM    6  C6  UNL     1      14.162  36.823  60.918  1.00  0.00     0.011 C 
BRANCH   6   7
HETATM    7  C5  UNL     1      13.455  37.360  62.124  1.00  0.00     0.001 C 
BRANCH   7   8
HETATM    8  C4  UNL     1      12.079  37.806  61.658  1.00  0.00     0.004 C 
BRANCH   8   9
HETATM    9  C3  UNL     1      11.004  36.808  62.023  1.00  0.00     0.026 C 
BRANCH   9  10
HETATM   10  C2  UNL     1       9.697  37.511  62.012  1.00  0.00    -0.037 C 
HETATM   11  C1  UNL     1       9.664  38.803  61.634  1.00  0.00     0.007 C 
ENDBRANCH   9  10
ENDBRANCH   8   9
ENDBRANCH   7   8
ENDBRANCH   6   7
ENDBRANCH   3   6
ENDBRANCH   2   3
BRANCH   2  12
HETATM   12  O1  UNL     1      17.146  35.734  60.515  1.00  0.00    -0.392 OA
ATOM     13  H1  UNL     1      17.477  35.132  59.859  1.00  0.00     0.210 HD
ENDBRANCH   2  12
ENDBRANCH   1   2
BRANCH   1  14
HETATM   14  C12 UNL     1      18.555  36.842  59.185  1.00  0.00     0.061 C 
BRANCH  14  15
HETATM   15  C13 UNL     1      19.618  37.787  58.922  1.00  0.00    -0.025 C 
HETATM   16  C14 UNL     1      20.823  37.393  58.572  1.00  0.00     0.000 C 
BRANCH  16  17
HETATM   17  C15 UNL     1      21.117  35.950  58.439  1.00  0.00     0.136 C 
HETATM   18  C16 UNL     1      22.507  35.619  58.980  1.00  0.00     0.043 C 
BRANCH  17  19
HETATM   19  O2  UNL     1      21.053  35.546  57.083  1.00  0.00    -0.392 OA
ATOM     20  H2  UNL     1      21.670  34.844  56.910  1.00  0.00     0.210 HD
ENDBRANCH  17  19
ENDBRANCH  16  17
ENDBRANCH  14  15
ENDBRANCH   1  14
BRANCH   1  21
HETATM   21  O3  UNL     1      16.880  37.168  57.449  1.00  0.00    -0.353 OA
BRANCH  21  22
HETATM   22  C17 UNL     1      17.377  36.038  56.814  1.00  0.00     0.269 C 
HETATM   23  O4  UNL     1      18.327  36.425  55.881  1.00  0.00    -0.353 OA
HETATM   24  C18 UNL     1      18.228  35.536  54.814  1.00  0.00     0.150 C 
HETATM   25  C19 UNL     1      18.975  36.034  53.624  1.00  0.00     0.042 C 
HETATM   26  C20 UNL     1      16.715  35.557  54.610  1.00  0.00     0.157 C 
HETATM   27  C21 UNL     1      16.261  35.389  56.044  1.00  0.00     0.096 C 
BRANCH  26  28
HETATM   28  O5  UNL     1      16.386  36.841  54.187  1.00  0.00    -0.392 OA
ATOM     29  H5  UNL     1      16.010  36.756  53.319  1.00  0.00     0.210 HD
ENDBRANCH  26  28
BRANCH  27  30
HETATM   30  C22 UNL     1      16.195  33.891  56.292  1.00  0.00     0.176 C 
BRANCH  30  31
HETATM   31  O6  UNL     1      16.845  33.682  57.529  1.00  0.00    -0.400 OA
ATOM     32  H6  UNL     1      16.191  33.862  58.194  1.00  0.00     0.209 HD
ENDBRANCH  30  31
ENDBRANCH  27  30
ENDBRANCH  21  22
ENDBRANCH   1  21
TORSDOF 17
ENDMDL
MODEL 3
REMARK VINA RESULT: -7.559170508      1.841      3.831
REMARK  17 active torsions:
REMARK  status: ('A' for Active; 'I' for Inactive)
REMARK    1  A    between atoms: C2_2  and  C3_3 
REMARK    2  A    between atoms: C3_3  and  C4_4 
REMARK    3  A    between atoms: C4_4  and  C5_5 
REMARK    4  A    between atoms: C5_5  and  C6_6 
REMARK    5  A    between atoms: C6_6  and  C7_7 
REMARK    6  A    between atoms: C7_7  and  C10_10 
REMARK    7  A    between atoms: C10_10  and  O1_11 
REMARK    8  A    between atoms: C10_10  and  C11_13 
REMARK    9  A    between atoms: C11_13  and  C12_14 
REMARK   10  A    between atoms: C11_13  and  O3_21 
REMARK   11  A    between atoms: C12_14  and  C13_15 
REMARK   12  A    between atoms: C14_16  and  C15_17 
REMARK   13  A    between atoms: C15_17  and  O2_19 
REMARK   14  A    between atoms: O3_21  and  C17_22 
REMARK   15  A    between atoms: C20_26  and  O5_27 
REMARK   16  A    between atoms: C21_29  and  C22_30 
REMARK   17  A    between atoms: C22_30  and  O6_31 
ROOT
HETATM    1  C11 UNL     1      15.376  37.265  60.239  1.00  0.00     0.157 C 
ENDROOT
BRANCH   1   2
HETATM    2  C10 UNL     1      15.424  36.650  61.616  1.00  0.00     0.155 C 
BRANCH   2   3
HETATM    3  C7  UNL     1      14.202  36.726  62.451  1.00  0.00    -0.019 C 
HETATM    4  C8  UNL     1      13.979  35.617  63.405  1.00  0.00     0.017 C 
HETATM    5  C9  UNL     1      14.075  38.104  63.084  1.00  0.00     0.017 C 
BRANCH   3   6
HETATM    6  C6  UNL     1      13.037  36.674  61.410  1.00  0.00     0.011 C 
BRANCH   6   7
HETATM    7  C5  UNL     1      12.023  37.739  61.697  1.00  0.00     0.001 C 
BRANCH   7   8
HETATM    8  C4  UNL     1      10.726  37.024  62.034  1.00  0.00     0.004 C 
BRANCH   8   9
HETATM    9  C3  UNL     1       9.526  37.936  61.915  1.00  0.00     0.026 C 
BRANCH   9  10
HETATM   10  C2  UNL     1       9.973  39.212  61.303  1.00  0.00    -0.037 C 
HETATM   11  C1  UNL     1       9.152  40.278  61.367  1.00  0.00     0.007 C 
ENDBRANCH   9  10
ENDBRANCH   8   9
ENDBRANCH   7   8
ENDBRANCH   6   7
ENDBRANCH   3   6
ENDBRANCH   2   3
BRANCH   2  12
HETATM   12  O1  UNL     1      16.386  37.460  62.348  1.00  0.00    -0.392 OA
ATOM     13  H1  UNL     1      16.297  38.320  61.953  1.00  0.00     0.210 HD
ENDBRANCH   2  12
ENDBRANCH   1   2
BRANCH   1  14
HETATM   14  C12 UNL     1      15.738  38.745  60.507  1.00  0.00     0.061 C 
BRANCH  14  15
HETATM   15  C13 UNL     1      14.858  39.724  59.908  1.00  0.00    -0.025 C 
HETATM   16  C14 UNL     1      15.291  40.592  59.020  1.00  0.00     0.000 C 
BRANCH  16  17
HETATM   17  C15 UNL     1      16.712  40.582  58.611  1.00  0.00     0.136 C 
HETATM   18  C16 UNL     1      17.177  41.978  58.201  1.00  0.00     0.043 C 
BRANCH  17  19
HETATM   19  O2  UNL     1      16.916  39.701  57.522  1.00  0.00    -0.392 OA
ATOM     20  H2  UNL     1      16.189  39.745  56.911  1.00  0.00     0.210 HD
ENDBRANCH  17  19
ENDBRANCH  16  17
ENDBRANCH  14  15
ENDBRANCH   1  14
BRANCH   1  21
HETATM   21  O3  UNL     1      16.066  36.694  59.238  1.00  0.00    -0.353 OA
BRANCH  21  22
HETATM   22  C17 UNL     1      17.416  36.455  59.458  1.00  0.00     0.269 C 
HETATM   23  O4  UNL     1      18.127  37.620  59.213  1.00  0.00    -0.353 OA
HETATM   24  C18 UNL     1      19.356  37.237  58.682  1.00  0.00     0.150 C 
HETATM   25  C19 UNL     1      20.076  38.401  58.092  1.00  0.00     0.042 C 
HETATM   26  C20 UNL     1      18.874  36.246  57.625  1.00  0.00     0.157 C 
HETATM   27  C21 UNL     1      17.895  35.443  58.455  1.00  0.00     0.096 C 
BRANCH  26  28
HETATM   28  O5  UNL     1      18.160  36.981  56.683  1.00  0.00    -0.392 OA
ATOM     29  H5  UNL     1      17.943  37.811  57.090  1.00  0.00     0.210 HD
ENDBRANCH  26  28
BRANCH  27  30
HETATM   30  C22 UNL     1      18.706  34.336  59.107  1.00  0.00     0.176 C 
BRANCH  30  31
HETATM   31  O6  UNL     1      17.951  33.156  58.925  1.00  0.00    -0.400 OA
ATOM     32  H6  UNL     1      17.056  33.444  58.788  1.00  0.00     0.209 HD
ENDBRANCH  30  31
ENDBRANCH  27  30
ENDBRANCH  21  22
ENDBRANCH   1  21
TORSDOF 17
ENDMDL
MODEL 4
REMARK VINA RESULT: -7.373891645      2.389      5.129
REMARK  17 active torsions:
REMARK  status: ('A' for Active; 'I' for Inactive)
REMARK    1  A    between atoms: C2_2  and  C3_3 
REMARK    2  A    between atoms: C3_3  and  C4_4 
REMARK    3  A    between atoms: C4_4  and  C5_5 
REMARK    4  A    between atoms: C5_5  and  C6_6 
REMARK    5  A    between atoms: C6_6  and  C7_7 
REMARK    6  A    between atoms: C7_7  and  C10_10 
REMARK    7  A    between atoms: C10_10  and  O1_11 
REMARK    8  A    between atoms: C10_10  and  C11_13 
REMARK    9  A    between atoms: C11_13  and  C12_14 
REMARK   10  A    between atoms: C11_13  and  O3_21 
REMARK   11  A    between atoms: C12_14  and  C13_15 
REMARK   12  A    between atoms: C14_16  and  C15_17 
REMARK   13  A    between atoms: C15_17  and  O2_19 
REMARK   14  A    between atoms: O3_21  and  C17_22 
REMARK   15  A    between atoms: C20_26  and  O5_27 
REMARK   16  A    between atoms: C21_29  and  C22_30 
REMARK   17  A    between atoms: C22_30  and  O6_31 
ROOT
HETATM    1  C11 UNL     1      17.652  38.001  57.389  1.00  0.00     0.157 C 
ENDROOT
BRANCH   1   2
HETATM    2  C10 UNL     1      19.053  37.606  57.785  1.00  0.00     0.155 C 
BRANCH   2   3
HETATM    3  C7  UNL     1      19.224  36.361  58.572  1.00  0.00    -0.019 C 
HETATM    4  C8  UNL     1      19.692  35.167  57.833  1.00  0.00     0.017 C 
HETATM    5  C9  UNL     1      20.017  36.639  59.840  1.00  0.00     0.017 C 
BRANCH   3   6
HETATM    6  C6  UNL     1      17.782  36.044  59.085  1.00  0.00     0.011 C 
BRANCH   6   7
HETATM    7  C5  UNL     1      17.683  36.275  60.561  1.00  0.00     0.001 C 
BRANCH   7   8
HETATM    8  C4  UNL     1      16.227  36.595  60.855  1.00  0.00     0.004 C 
BRANCH   8   9
HETATM    9  C3  UNL     1      16.065  37.397  62.126  1.00  0.00     0.026 C 
BRANCH   9  10
HETATM   10  C2  UNL     1      14.924  38.328  61.944  1.00  0.00    -0.037 C 
HETATM   11  C1  UNL     1      13.914  37.958  61.132  1.00  0.00     0.007 C 
ENDBRANCH   9  10
ENDBRANCH   8   9
ENDBRANCH   7   8
ENDBRANCH   6   7
ENDBRANCH   3   6
ENDBRANCH   2   3
BRANCH   2  12
HETATM   12  O1  UNL     1      19.486  38.649  58.702  1.00  0.00    -0.392 OA
ATOM     13  H1  UNL     1      19.998  39.229  58.151  1.00  0.00     0.210 HD
ENDBRANCH   2  12
ENDBRANCH   1   2
BRANCH   1  14
HETATM   14  C12 UNL     1      17.441  39.334  58.146  1.00  0.00     0.061 C 
BRANCH  14  15
HETATM   15  C13 UNL     1      16.087  39.602  58.579  1.00  0.00    -0.025 C 
HETATM   16  C14 UNL     1      15.706  40.802  58.957  1.00  0.00     0.000 C 
BRANCH  16  17
HETATM   17  C15 UNL     1      16.673  41.921  58.944  1.00  0.00     0.136 C 
HETATM   18  C16 UNL     1      16.209  43.060  59.850  1.00  0.00     0.043 C 
BRANCH  17  19
HETATM   19  O2  UNL     1      16.841  42.427  57.633  1.00  0.00    -0.392 OA
ATOM     20  H2  UNL     1      16.360  43.239  57.519  1.00  0.00     0.210 HD
ENDBRANCH  17  19
ENDBRANCH  16  17
ENDBRANCH  14  15
ENDBRANCH   1  14
BRANCH   1  21
HETATM   21  O3  UNL     1      17.321  38.041  56.088  1.00  0.00    -0.353 OA
BRANCH  21  22
HETATM   22  C17 UNL     1      17.702  36.957  55.307  1.00  0.00     0.269 C 
HETATM   23  O4  UNL     1      18.371  37.421  54.185  1.00  0.00    -0.353 OA
HETATM   24  C18 UNL     1      18.056  36.554  53.141  1.00  0.00     0.150 C 
HETATM   25  C19 UNL     1      18.459  37.123  51.824  1.00  0.00     0.042 C 
HETATM   26  C20 UNL     1      16.540  36.492  53.316  1.00  0.00     0.157 C 
HETATM   27  C21 UNL     1      16.465  36.263  54.811  1.00  0.00     0.096 C 
BRANCH  26  28
HETATM   28  O5  UNL     1      16.052  37.765  53.037  1.00  0.00    -0.392 OA
ATOM     29  H5  UNL     1      15.484  38.005  53.759  1.00  0.00     0.210 HD
ENDBRANCH  26  28
BRANCH  27  30
HETATM   30  C22 UNL     1      16.538  34.758  55.010  1.00  0.00     0.176 C 
BRANCH  30  31
HETATM   31  O6  UNL     1      16.250  34.542  56.376  1.00  0.00    -0.400 OA
ATOM     32  H6  UNL     1      15.762  33.728  56.409  1.00  0.00     0.209 HD
ENDBRANCH  30  31
ENDBRANCH  27  30
ENDBRANCH  21  22
ENDBRANCH   1  21
TORSDOF 17
ENDMDL
MODEL 5
REMARK VINA RESULT: -7.303001043      1.741      2.578
REMARK  17 active torsions:
REMARK  status: ('A' for Active; 'I' for Inactive)
REMARK    1  A    between atoms: C2_2  and  C3_3 
REMARK    2  A    between atoms: C3_3  and  C4_4 
REMARK    3  A    between atoms: C4_4  and  C5_5 
REMARK    4  A    between atoms: C5_5  and  C6_6 
REMARK    5  A    between atoms: C6_6  and  C7_7 
REMARK    6  A    between atoms: C7_7  and  C10_10 
REMARK    7  A    between atoms: C10_10  and  O1_11 
REMARK    8  A    between atoms: C10_10  and  C11_13 
REMARK    9  A    between atoms: C11_13  and  C12_14 
REMARK   10  A    between atoms: C11_13  and  O3_21 
REMARK   11  A    between atoms: C12_14  and  C13_15 
REMARK   12  A    between atoms: C14_16  and  C15_17 
REMARK   13  A    between atoms: C15_17  and  O2_19 
REMARK   14  A    between atoms: O3_21  and  C17_22 
REMARK   15  A    between atoms: C20_26  and  O5_27 
REMARK   16  A    between atoms: C21_29  and  C22_30 
REMARK   17  A    between atoms: C22_30  and  O6_31 
ROOT
HETATM    1  C11 UNL     1      17.553  36.892  59.950  1.00  0.00     0.157 C 
ENDROOT
BRANCH   1   2
HETATM    2  C10 UNL     1      16.118  37.338  59.823  1.00  0.00     0.155 C 
BRANCH   2   3
HETATM    3  C7  UNL     1      15.423  37.792  61.052  1.00  0.00    -0.019 C 
HETATM    4  C8  UNL     1      16.112  37.538  62.337  1.00  0.00     0.017 C 
HETATM    5  C9  UNL     1      14.947  39.229  60.893  1.00  0.00     0.017 C 
BRANCH   3   6
HETATM    6  C6  UNL     1      14.105  36.952  61.065  1.00  0.00     0.011 C 
BRANCH   6   7
HETATM    7  C5  UNL     1      12.920  37.832  61.322  1.00  0.00     0.001 C 
BRANCH   7   8
HETATM    8  C4  UNL     1      11.819  36.931  61.858  1.00  0.00     0.004 C 
BRANCH   8   9
HETATM    9  C3  UNL     1      10.491  37.647  61.946  1.00  0.00     0.026 C 
BRANCH   9  10
HETATM   10  C2  UNL     1      10.634  38.972  61.292  1.00  0.00    -0.037 C 
HETATM   11  C1  UNL     1       9.578  39.809  61.295  1.00  0.00     0.007 C 
ENDBRANCH   9  10
ENDBRANCH   8   9
ENDBRANCH   7   8
ENDBRANCH   6   7
ENDBRANCH   3   6
ENDBRANCH   2   3
BRANCH   2  12
HETATM   12  O1  UNL     1      15.390  36.136  59.447  1.00  0.00    -0.392 OA
ATOM     13  H1  UNL     1      14.489  36.433  59.384  1.00  0.00     0.210 HD
ENDBRANCH   2  12
ENDBRANCH   1   2
BRANCH   1  14
HETATM   14  C12 UNL     1      17.461  35.363  59.735  1.00  0.00     0.061 C 
BRANCH  14  15
HETATM   15  C13 UNL     1      18.517  34.777  58.939  1.00  0.00    -0.025 C 
HETATM   16  C14 UNL     1      18.288  34.286  57.740  1.00  0.00     0.000 C 
BRANCH  16  17
HETATM   17  C15 UNL     1      16.922  34.326  57.175  1.00  0.00     0.136 C 
HETATM   18  C16 UNL     1      16.785  33.362  55.998  1.00  0.00     0.043 C 
BRANCH  17  19
HETATM   19  O2  UNL     1      16.599  35.630  56.730  1.00  0.00    -0.392 OA
ATOM     20  H2  UNL     1      15.713  35.863  56.980  1.00  0.00     0.210 HD
ENDBRANCH  17  19
ENDBRANCH  16  17
ENDBRANCH  14  15
ENDBRANCH   1  14
BRANCH   1  21
HETATM   21  O3  UNL     1      18.500  37.502  59.219  1.00  0.00    -0.353 OA
BRANCH  21  22
HETATM   22  C17 UNL     1      18.072  38.253  58.132  1.00  0.00     0.269 C 
HETATM   23  O4  UNL     1      18.574  37.691  56.968  1.00  0.00    -0.353 OA
HETATM   24  C18 UNL     1      18.828  38.742  56.090  1.00  0.00     0.150 C 
HETATM   25  C19 UNL     1      19.656  38.294  54.935  1.00  0.00     0.042 C 
HETATM   26  C20 UNL     1      19.586  39.675  57.031  1.00  0.00     0.157 C 
HETATM   27  C21 UNL     1      18.667  39.629  58.233  1.00  0.00     0.096 C 
BRANCH  26  28
HETATM   28  O5  UNL     1      20.777  39.034  57.358  1.00  0.00    -0.392 OA
ATOM     29  H5  UNL     1      20.553  38.320  57.943  1.00  0.00     0.210 HD
ENDBRANCH  26  28
BRANCH  27  30
HETATM   30  C22 UNL     1      17.628  40.716  58.011  1.00  0.00     0.176 C 
BRANCH  30  31
HETATM   31  O6  UNL     1      16.404  40.038  57.823  1.00  0.00    -0.400 OA
ATOM     32  H6  UNL     1      16.552  39.438  57.102  1.00  0.00     0.209 HD
ENDBRANCH  30  31
ENDBRANCH  27  30
ENDBRANCH  21  22
ENDBRANCH   1  21
TORSDOF 17
ENDMDL
