MODEL 1
REMARK VINA RESULT: -8.593974240      0.000      0.000
REMARK  4 active torsions:
REMARK  status: ('A' for Active; 'I' for Inactive)
REMARK    1  A    between atoms: N2_6  and  C5_7 
REMARK    2  A    between atoms: C5_7  and  C6_8 
REMARK    3  A    between atoms: N3_26  and  C22_27 
REMARK       I    between atoms: C24_33  and  N5_34 
REMARK    4  A    between atoms: C27_39  and  N7_40 
ROOT
HETATM    1  C1  UNL     1      38.577 -48.237  71.721  1.00  0.00     0.315 C 
HETATM    2  N1  UNL     1      39.217 -47.503  70.673  1.00  0.00     0.135 N 
HETATM    3  C2  UNL     1      38.557 -47.608  69.400  1.00  0.00     0.278 C 
HETATM    4  C3  UNL     1      39.382 -48.540  68.538  1.00  0.00     0.060 C 
HETATM    5  C4  UNL     1      39.652 -47.948  67.181  1.00  0.00     0.274 C 
HETATM    6  N2  UNL     1      41.043 -47.941  66.834  1.00  0.00     0.094 N 
HETATM    7  C16 UNL     1      41.624 -49.231  66.658  1.00  0.00     0.299 C 
HETATM    8  C17 UNL     1      43.132 -49.144  66.692  1.00  0.00     0.198 C 
HETATM    9  O1  UNL     1      43.579 -48.146  67.551  1.00  0.00    -0.387 OA
HETATM   10  C18 UNL     1      44.941 -47.954  67.315  1.00  0.00     0.193 C 
HETATM   11  C19 UNL     1      45.747 -48.186  68.592  1.00  0.00     0.193 C 
HETATM   12  O2  UNL     1      44.952 -48.746  69.571  1.00  0.00    -0.387 OA
HETATM   13  C20 UNL     1      44.397 -47.745  70.367  1.00  0.00     0.187 C 
HETATM   14  C21 UNL     1      43.674 -48.381  71.530  1.00  0.00     0.153 C 
HETATM   15  N3  UNL     1      42.807 -47.478  72.226  1.00  0.00    -0.334 N 
HETATM   16  C23 UNL     1      41.381 -47.537  71.983  1.00  0.00     0.363 C 
HETATM   17  N4  UNL     1      40.791 -46.227  71.868  1.00  0.00    -0.009 N 
ATOM     18  H41 UNL     1      41.485 -45.547  71.556  1.00  0.00     0.283 HD
ATOM     19  H42 UNL     1      40.581 -45.846  72.791  1.00  0.00     0.283 HD
HETATM   20  C24 UNL     1      39.618 -46.183  71.020  1.00  0.00     0.532 C 
HETATM   21  N5  UNL     1      38.564 -45.369  71.589  1.00  0.00    -0.273 N 
HETATM   22  C25 UNL     1      37.243 -45.528  71.593  1.00  0.00     0.189 A 
HETATM   23  N6  UNL     1      36.700 -44.482  72.263  1.00  0.00    -0.346 N 
ATOM     24  H6  UNL     1      35.703 -44.338  72.424  1.00  0.00     0.167 HD
HETATM   25  C26 UNL     1      37.681 -43.665  72.682  1.00  0.00     0.122 A 
HETATM   26  C27 UNL     1      37.738 -42.481  73.390  1.00  0.00     0.131 A 
HETATM   27  N8  UNL     1      38.921 -41.892  73.657  1.00  0.00    -0.337 N 
ATOM     28  H8  UNL     1      38.940 -41.018  74.183  1.00  0.00     0.168 HD
HETATM   29  C28 UNL     1      40.071 -42.436  73.243  1.00  0.00     0.183 A 
HETATM   30  N9  UNL     1      40.025 -43.586  72.554  1.00  0.00    -0.336 N 
ATOM     31  H9  UNL     1      40.901 -44.003  72.238  1.00  0.00     0.168 HD
HETATM   32  C29 UNL     1      38.859 -44.218  72.260  1.00  0.00     0.143 A 
ENDROOT
BRANCH  15  33
HETATM   33  C22 UNL     1      43.333 -46.541  73.141  1.00  0.00     0.352 C 
HETATM   34  O3  UNL     1      43.411 -45.337  72.827  1.00  0.00    -0.283 OA
ENDBRANCH  15  33
BRANCH  26  35
HETATM   35  N7  UNL     1      36.610 -41.973  73.780  1.00  0.00    -0.383 N 
ATOM     36  H72 UNL     1      35.856 -41.758  73.128  1.00  0.00     0.157 HD
ATOM     37  H71 UNL     1      36.503 -41.795  74.779  1.00  0.00     0.157 HD
ENDBRANCH  26  35
BRANCH   6  38
HETATM   38  C5  UNL     1      41.327 -47.050  65.753  1.00  0.00     0.311 C 
BRANCH  38  39
HETATM   39  C6  UNL     1      40.199 -46.877  64.805  1.00  0.00    -0.029 A 
HETATM   40  C7  UNL     1      39.522 -45.677  64.699  1.00  0.00     0.010 A 
HETATM   41  C8  UNL     1      38.475 -45.526  63.814  1.00  0.00     0.013 A 
HETATM   42  C9  UNL     1      38.041 -46.556  62.987  1.00  0.00    -0.026 A 
HETATM   43  C10 UNL     1      36.996 -46.394  62.110  1.00  0.00     0.012 A 
HETATM   44  C14 UNL     1      38.726 -47.757  63.101  1.00  0.00    -0.025 A 
HETATM   45  C11 UNL     1      36.583 -47.422  61.302  1.00  0.00     0.001 A 
HETATM   46  C12 UNL     1      37.253 -48.622  61.402  1.00  0.00     0.001 A 
HETATM   47  C13 UNL     1      38.304 -48.791  62.282  1.00  0.00     0.012 A 
HETATM   48  C15 UNL     1      39.772 -47.902  63.986  1.00  0.00     0.021 A 
ENDBRANCH  38  39
ENDBRANCH   6  38
TORSDOF 4
ENDMDL
MODEL 2
REMARK VINA RESULT: -8.569103017      3.298      6.886
REMARK  4 active torsions:
REMARK  status: ('A' for Active; 'I' for Inactive)
REMARK    1  A    between atoms: N2_6  and  C5_7 
REMARK    2  A    between atoms: C5_7  and  C6_8 
REMARK    3  A    between atoms: N3_26  and  C22_27 
REMARK       I    between atoms: C24_33  and  N5_34 
REMARK    4  A    between atoms: C27_39  and  N7_40 
ROOT
HETATM    1  C1  UNL     1      39.641 -49.186  67.187  1.00  0.00     0.315 C 
HETATM    2  N1  UNL     1      40.772 -48.434  66.741  1.00  0.00     0.135 N 
HETATM    3  C2  UNL     1      41.846 -49.243  66.231  1.00  0.00     0.278 C 
HETATM    4  C3  UNL     1      42.935 -49.265  67.282  1.00  0.00     0.060 C 
HETATM    5  C4  UNL     1      44.283 -48.944  66.693  1.00  0.00     0.274 C 
HETATM    6  N2  UNL     1      44.962 -47.885  67.380  1.00  0.00     0.094 N 
HETATM    7  C16 UNL     1      45.347 -48.190  68.719  1.00  0.00     0.299 C 
HETATM    8  C17 UNL     1      45.684 -46.926  69.476  1.00  0.00     0.198 C 
HETATM    9  O1  UNL     1      44.909 -45.847  69.063  1.00  0.00    -0.387 OA
HETATM   10  C18 UNL     1      45.464 -44.688  69.604  1.00  0.00     0.193 C 
HETATM   11  C19 UNL     1      44.442 -43.954  70.469  1.00  0.00     0.193 C 
HETATM   12  O2  UNL     1      43.328 -44.742  70.677  1.00  0.00    -0.387 OA
HETATM   13  C20 UNL     1      42.366 -44.475  69.704  1.00  0.00     0.187 C 
HETATM   14  C21 UNL     1      41.096 -45.218  70.046  1.00  0.00     0.153 C 
HETATM   15  N3  UNL     1      40.159 -45.275  68.965  1.00  0.00    -0.334 N 
HETATM   16  C23 UNL     1      40.044 -46.493  68.191  1.00  0.00     0.363 C 
HETATM   17  N4  UNL     1      39.937 -46.235  66.777  1.00  0.00    -0.009 N 
ATOM     18  H41 UNL     1      40.373 -45.344  66.541  1.00  0.00     0.283 HD
ATOM     19  H42 UNL     1      38.972 -46.026  66.523  1.00  0.00     0.283 HD
HETATM   20  C24 UNL     1      40.464 -47.296  65.944  1.00  0.00     0.532 C 
HETATM   21  N5  UNL     1      39.608 -47.575  64.810  1.00  0.00    -0.273 N 
HETATM   22  C25 UNL     1      39.285 -48.724  64.221  1.00  0.00     0.189 A 
HETATM   23  N6  UNL     1      38.445 -48.444  63.195  1.00  0.00    -0.346 N 
ATOM     24  H6  UNL     1      38.035 -49.132  62.564  1.00  0.00     0.167 HD
HETATM   25  C26 UNL     1      38.239 -47.118  63.139  1.00  0.00     0.122 A 
HETATM   26  C27 UNL     1      37.503 -46.271  62.334  1.00  0.00     0.131 A 
HETATM   27  N8  UNL     1      37.506 -44.939  62.546  1.00  0.00    -0.337 N 
ATOM     28  H8  UNL     1      36.954 -44.333  61.940  1.00  0.00     0.168 HD
HETATM   29  C28 UNL     1      38.221 -44.402  63.540  1.00  0.00     0.183 A 
HETATM   30  N9  UNL     1      38.939 -45.217  64.328  1.00  0.00    -0.336 N 
ATOM     31  H9  UNL     1      39.485 -44.809  65.087  1.00  0.00     0.168 HD
HETATM   32  C29 UNL     1      38.969 -46.564  64.155  1.00  0.00     0.143 A 
ENDROOT
BRANCH  15  33
HETATM   33  C22 UNL     1      39.354 -44.158  68.656  1.00  0.00     0.352 C 
HETATM   34  O3  UNL     1      38.699 -43.591  69.553  1.00  0.00    -0.283 OA
ENDBRANCH  15  33
BRANCH  26  35
HETATM   35  N7  UNL     1      36.818 -46.817  61.376  1.00  0.00    -0.383 N 
ATOM     36  H72 UNL     1      36.969 -47.782  61.082  1.00  0.00     0.157 HD
ATOM     37  H71 UNL     1      36.113 -46.236  60.922  1.00  0.00     0.157 HD
ENDBRANCH  26  35
BRANCH   6  38
HETATM   38  C5  UNL     1      46.030 -47.335  66.606  1.00  0.00     0.311 C 
BRANCH  38  39
HETATM   39  C6  UNL     1      45.579 -46.449  65.505  1.00  0.00    -0.029 A 
HETATM   40  C7  UNL     1      46.320 -46.300  64.347  1.00  0.00     0.010 A 
HETATM   41  C8  UNL     1      45.891 -45.473  63.330  1.00  0.00     0.013 A 
HETATM   42  C9  UNL     1      44.706 -44.749  63.403  1.00  0.00    -0.026 A 
HETATM   43  C10 UNL     1      44.290 -43.928  62.383  1.00  0.00     0.012 A 
HETATM   44  C14 UNL     1      43.971 -44.904  64.569  1.00  0.00    -0.025 A 
HETATM   45  C11 UNL     1      43.119 -43.223  62.475  1.00  0.00     0.001 A 
HETATM   46  C12 UNL     1      42.375 -43.365  63.626  1.00  0.00     0.001 A 
HETATM   47  C13 UNL     1      42.788 -44.188  64.654  1.00  0.00     0.012 A 
HETATM   48  C15 UNL     1      44.403 -45.732  65.583  1.00  0.00     0.021 A 
ENDBRANCH  38  39
ENDBRANCH   6  38
TORSDOF 4
ENDMDL
MODEL 3
REMARK VINA RESULT: -8.541262041      1.909      2.641
REMARK  4 active torsions:
REMARK  status: ('A' for Active; 'I' for Inactive)
REMARK    1  A    between atoms: N2_6  and  C5_7 
REMARK    2  A    between atoms: C5_7  and  C6_8 
REMARK    3  A    between atoms: N3_26  and  C22_27 
REMARK       I    between atoms: C24_33  and  N5_34 
REMARK    4  A    between atoms: C27_39  and  N7_40 
ROOT
HETATM    1  C1  UNL     1      39.214 -47.987  72.094  1.00  0.00     0.315 C 
HETATM    2  N1  UNL     1      39.259 -47.508  70.747  1.00  0.00     0.135 N 
HETATM    3  C2  UNL     1      38.257 -48.082  69.890  1.00  0.00     0.278 C 
HETATM    4  C3  UNL     1      38.947 -49.094  69.001  1.00  0.00     0.060 C 
HETATM    5  C4  UNL     1      38.587 -48.896  67.552  1.00  0.00     0.274 C 
HETATM    6  N2  UNL     1      39.732 -48.785  66.696  1.00  0.00     0.094 N 
HETATM    7  C16 UNL     1      40.520 -49.969  66.593  1.00  0.00     0.299 C 
HETATM    8  C17 UNL     1      41.879 -49.653  66.013  1.00  0.00     0.198 C 
HETATM    9  O1  UNL     1      42.327 -48.391  66.388  1.00  0.00    -0.387 OA
HETATM   10  C18 UNL     1      43.436 -48.078  65.602  1.00  0.00     0.193 C 
HETATM   11  C19 UNL     1      44.656 -47.799  66.477  1.00  0.00     0.193 C 
HETATM   12  O2  UNL     1      44.404 -48.156  67.787  1.00  0.00    -0.387 OA
HETATM   13  C20 UNL     1      43.920 -47.058  68.497  1.00  0.00     0.187 C 
HETATM   14  C21 UNL     1      43.814 -47.422  69.959  1.00  0.00     0.153 C 
HETATM   15  N3  UNL     1      43.037 -46.493  70.723  1.00  0.00    -0.334 N 
HETATM   16  C23 UNL     1      41.674 -46.832  71.077  1.00  0.00     0.363 C 
HETATM   17  N4  UNL     1      40.775 -45.717  70.920  1.00  0.00    -0.009 N 
ATOM     18  H41 UNL     1      41.131 -45.065  70.221  1.00  0.00     0.283 HD
ATOM     19  H42 UNL     1      40.800 -45.117  71.743  1.00  0.00     0.283 HD
HETATM   20  C24 UNL     1      39.412 -46.100  70.611  1.00  0.00     0.532 C 
HETATM   21  N5  UNL     1      38.446 -45.320  71.355  1.00  0.00    -0.273 N 
HETATM   22  C25 UNL     1      37.286 -45.665  71.911  1.00  0.00     0.189 A 
HETATM   23  N6  UNL     1      36.759 -44.561  72.494  1.00  0.00    -0.346 N 
ATOM     24  H6  UNL     1      35.873 -44.525  72.997  1.00  0.00     0.167 HD
HETATM   25  C26 UNL     1      37.589 -43.521  72.306  1.00  0.00     0.122 A 
HETATM   26  C27 UNL     1      37.586 -42.186  72.658  1.00  0.00     0.131 A 
HETATM   27  N8  UNL     1      38.604 -41.375  72.304  1.00  0.00    -0.337 N 
ATOM     28  H8  UNL     1      38.581 -40.392  72.576  1.00  0.00     0.168 HD
HETATM   29  C28 UNL     1      39.643 -41.840  71.602  1.00  0.00     0.183 A 
HETATM   30  N9  UNL     1      39.654 -43.136  71.256  1.00  0.00    -0.336 N 
ATOM     31  H9  UNL     1      40.447 -43.493  70.722  1.00  0.00     0.168 HD
HETATM   32  C29 UNL     1      38.654 -43.992  71.588  1.00  0.00     0.143 A 
ENDROOT
BRANCH  15  33
HETATM   33  C22 UNL     1      43.591 -45.261  71.130  1.00  0.00     0.352 C 
HETATM   34  O3  UNL     1      43.287 -44.210  70.529  1.00  0.00    -0.283 OA
ENDBRANCH  15  33
BRANCH  26  35
HETATM   35  N7  UNL     1      36.566 -41.758  73.338  1.00  0.00    -0.383 N 
ATOM     36  H72 UNL     1      36.607 -40.910  73.902  1.00  0.00     0.157 HD
ATOM     37  H71 UNL     1      35.710 -42.311  73.286  1.00  0.00     0.157 HD
ENDBRANCH  26  35
BRANCH   6  38
HETATM   38  C5  UNL     1      39.403 -48.223  65.423  1.00  0.00     0.311 C 
BRANCH  38  39
HETATM   39  C6  UNL     1      39.856 -46.821  65.251  1.00  0.00    -0.029 A 
HETATM   40  C7  UNL     1      39.643 -45.867  66.228  1.00  0.00     0.010 A 
HETATM   41  C8  UNL     1      40.069 -44.566  66.058  1.00  0.00     0.013 A 
HETATM   42  C9  UNL     1      40.729 -44.139  64.911  1.00  0.00    -0.026 A 
HETATM   43  C10 UNL     1      41.148 -42.841  64.753  1.00  0.00     0.012 A 
HETATM   44  C14 UNL     1      40.938 -45.103  63.936  1.00  0.00    -0.025 A 
HETATM   45  C11 UNL     1      41.797 -42.440  63.614  1.00  0.00     0.001 A 
HETATM   46  C12 UNL     1      42.014 -43.384  62.635  1.00  0.00     0.001 A 
HETATM   47  C13 UNL     1      41.595 -44.691  62.789  1.00  0.00     0.012 A 
HETATM   48  C15 UNL     1      40.511 -46.402  64.111  1.00  0.00     0.021 A 
ENDBRANCH  38  39
ENDBRANCH   6  38
TORSDOF 4
ENDMDL
MODEL 4
REMARK VINA RESULT: -8.510998930      2.273      3.687
REMARK  4 active torsions:
REMARK  status: ('A' for Active; 'I' for Inactive)
REMARK    1  A    between atoms: N2_6  and  C5_7 
REMARK    2  A    between atoms: C5_7  and  C6_8 
REMARK    3  A    between atoms: N3_26  and  C22_27 
REMARK       I    between atoms: C24_33  and  N5_34 
REMARK    4  A    between atoms: C27_39  and  N7_40 
ROOT
HETATM    1  C1  UNL     1      40.867 -50.102  67.719  1.00  0.00     0.315 C 
HETATM    2  N1  UNL     1      41.017 -48.771  67.217  1.00  0.00     0.135 N 
HETATM    3  C2  UNL     1      40.282 -48.518  66.007  1.00  0.00     0.278 C 
HETATM    4  C3  UNL     1      41.279 -48.500  64.868  1.00  0.00     0.060 C 
HETATM    5  C4  UNL     1      41.105 -47.283  63.998  1.00  0.00     0.274 C 
HETATM    6  N2  UNL     1      42.320 -46.545  63.810  1.00  0.00     0.094 N 
HETATM    7  C16 UNL     1      43.329 -47.231  63.072  1.00  0.00     0.299 C 
HETATM    8  C17 UNL     1      44.671 -46.563  63.262  1.00  0.00     0.198 C 
HETATM    9  O1  UNL     1      44.806 -46.011  64.531  1.00  0.00    -0.387 OA
HETATM   10  C18 UNL     1      45.936 -45.193  64.526  1.00  0.00     0.193 C 
HETATM   11  C19 UNL     1      46.936 -45.651  65.586  1.00  0.00     0.193 C 
HETATM   12  O2  UNL     1      46.569 -46.877  66.102  1.00  0.00    -0.387 OA
HETATM   13  C20 UNL     1      45.781 -46.700  67.239  1.00  0.00     0.187 C 
HETATM   14  C21 UNL     1      45.534 -48.044  67.883  1.00  0.00     0.153 C 
HETATM   15  N3  UNL     1      44.487 -48.024  68.861  1.00  0.00    -0.334 N 
HETATM   16  C23 UNL     1      43.179 -48.536  68.508  1.00  0.00     0.363 C 
HETATM   17  N4  UNL     1      42.114 -47.701  69.002  1.00  0.00    -0.009 N 
ATOM     18  H41 UNL     1      42.435 -46.740  69.117  1.00  0.00     0.283 HD
ATOM     19  H42 UNL     1      41.900 -47.928  69.973  1.00  0.00     0.283 HD
HETATM   20  C24 UNL     1      40.912 -47.743  68.194  1.00  0.00     0.532 C 
HETATM   21  N5  UNL     1      39.713 -47.808  69.004  1.00  0.00    -0.273 N 
HETATM   22  C25 UNL     1      38.574 -48.473  68.826  1.00  0.00     0.189 A 
HETATM   23  N6  UNL     1      37.763 -48.197  69.876  1.00  0.00    -0.346 N 
ATOM     24  H6  UNL     1      36.822 -48.568  70.008  1.00  0.00     0.167 HD
HETATM   25  C26 UNL     1      38.393 -47.359  70.716  1.00  0.00     0.122 A 
HETATM   26  C27 UNL     1      38.079 -46.748  71.914  1.00  0.00     0.131 A 
HETATM   27  N8  UNL     1      38.961 -45.932  72.526  1.00  0.00    -0.337 N 
ATOM     28  H8  UNL     1      38.708 -45.493  73.412  1.00  0.00     0.168 HD
HETATM   29  C28 UNL     1      40.162 -45.691  71.991  1.00  0.00     0.183 A 
HETATM   30  N9  UNL     1      40.476 -46.280  70.827  1.00  0.00    -0.336 N 
ATOM     31  H9  UNL     1      41.393 -46.098  70.418  1.00  0.00     0.168 HD
HETATM   32  C29 UNL     1      39.623 -47.109  70.172  1.00  0.00     0.143 A 
ENDROOT
BRANCH  15  33
HETATM   33  C22 UNL     1      44.725 -47.513  70.154  1.00  0.00     0.352 C 
HETATM   34  O3  UNL     1      44.266 -46.400  70.481  1.00  0.00    -0.283 OA
ENDBRANCH  15  33
BRANCH  26  35
HETATM   35  N7  UNL     1      36.907 -46.998  72.413  1.00  0.00    -0.383 N 
ATOM     36  H72 UNL     1      36.525 -47.942  72.454  1.00  0.00     0.157 HD
ATOM     37  H71 UNL     1      36.375 -46.203  72.767  1.00  0.00     0.157 HD
ENDBRANCH  26  35
BRANCH   6  38
HETATM   38  C5  UNL     1      42.079 -45.221  63.326  1.00  0.00     0.311 C 
BRANCH  38  39
HETATM   39  C6  UNL     1      40.647 -44.918  63.091  1.00  0.00    -0.029 A 
HETATM   40  C7  UNL     1      40.222 -43.646  62.759  1.00  0.00     0.010 A 
HETATM   41  C8  UNL     1      38.887 -43.375  62.542  1.00  0.00     0.013 A 
HETATM   42  C9  UNL     1      37.900 -44.349  62.642  1.00  0.00    -0.026 A 
HETATM   43  C10 UNL     1      36.574 -44.067  62.425  1.00  0.00     0.012 A 
HETATM   44  C14 UNL     1      38.336 -45.623  62.977  1.00  0.00    -0.025 A 
HETATM   45  C11 UNL     1      35.616 -45.042  62.529  1.00  0.00     0.001 A 
HETATM   46  C12 UNL     1      36.030 -46.313  62.860  1.00  0.00     0.001 A 
HETATM   47  C13 UNL     1      37.362 -46.603  63.080  1.00  0.00     0.012 A 
HETATM   48  C15 UNL     1      39.671 -45.889  63.193  1.00  0.00     0.021 A 
ENDBRANCH  38  39
ENDBRANCH   6  38
TORSDOF 4
ENDMDL
MODEL 5
REMARK VINA RESULT: -8.464149021      0.777      1.417
REMARK  4 active torsions:
REMARK  status: ('A' for Active; 'I' for Inactive)
REMARK    1  A    between atoms: N2_6  and  C5_7 
REMARK    2  A    between atoms: C5_7  and  C6_8 
REMARK    3  A    between atoms: N3_26  and  C22_27 
REMARK       I    between atoms: C24_33  and  N5_34 
REMARK    4  A    between atoms: C27_39  and  N7_40 
ROOT
HETATM    1  C1  UNL     1      38.798 -48.083  71.651  1.00  0.00     0.315 C 
HETATM    2  N1  UNL     1      39.362 -47.476  70.485  1.00  0.00     0.135 N 
HETATM    3  C2  UNL     1      38.609 -47.713  69.283  1.00  0.00     0.278 C 
HETATM    4  C3  UNL     1      39.365 -48.744  68.471  1.00  0.00     0.060 C 
HETATM    5  C4  UNL     1      39.535 -48.308  67.041  1.00  0.00     0.274 C 
HETATM    6  N2  UNL     1      40.897 -48.355  66.595  1.00  0.00     0.094 N 
HETATM    7  C16 UNL     1      41.459 -49.663  66.520  1.00  0.00     0.299 C 
HETATM    8  C17 UNL     1      42.966 -49.591  66.433  1.00  0.00     0.198 C 
HETATM    9  O1  UNL     1      43.479 -48.510  67.142  1.00  0.00    -0.387 OA
HETATM   10  C18 UNL     1      44.820 -48.361  66.787  1.00  0.00     0.193 C 
HETATM   11  C19 UNL     1      45.717 -48.459  68.019  1.00  0.00     0.193 C 
HETATM   12  O2  UNL     1      44.995 -48.900  69.110  1.00  0.00    -0.387 OA
HETATM   13  C20 UNL     1      44.504 -47.810  69.829  1.00  0.00     0.187 C 
HETATM   14  C21 UNL     1      43.867 -48.306  71.105  1.00  0.00     0.153 C 
HETATM   15  N3  UNL     1      43.057 -47.322  71.759  1.00  0.00    -0.334 N 
HETATM   16  C23 UNL     1      41.617 -47.391  71.628  1.00  0.00     0.363 C 
HETATM   17  N4  UNL     1      41.025 -46.095  71.413  1.00  0.00    -0.009 N 
ATOM     18  H41 UNL     1      41.696 -45.462  70.978  1.00  0.00     0.283 HD
ATOM     19  H42 UNL     1      40.884 -45.613  72.301  1.00  0.00     0.283 HD
HETATM   20  C24 UNL     1      39.792 -46.131  70.653  1.00  0.00     0.532 C 
HETATM   21  N5  UNL     1      38.786 -45.247  71.205  1.00  0.00    -0.273 N 
HETATM   22  C25 UNL     1      37.468 -45.389  71.322  1.00  0.00     0.189 A 
HETATM   23  N6  UNL     1      36.980 -44.270  71.911  1.00  0.00    -0.346 N 
ATOM     24  H6  UNL     1      35.998 -44.097  72.127  1.00  0.00     0.167 HD
HETATM   25  C26 UNL     1      37.992 -43.423  72.164  1.00  0.00     0.122 A 
HETATM   26  C27 UNL     1      38.106 -42.170  72.731  1.00  0.00     0.131 A 
HETATM   27  N8  UNL     1      39.307 -41.568  72.844  1.00  0.00    -0.337 N 
ATOM     28  H8  UNL     1      39.368 -40.642  73.267  1.00  0.00     0.168 HD
HETATM   29  C28 UNL     1      40.421 -42.167  72.409  1.00  0.00     0.183 A 
HETATM   30  N9  UNL     1      40.320 -43.386  71.857  1.00  0.00    -0.336 N 
ATOM     31  H9  UNL     1      41.169 -43.845  71.526  1.00  0.00     0.168 HD
HETATM   32  C29 UNL     1      39.134 -44.033  71.720  1.00  0.00     0.143 A 
ENDROOT
BRANCH  15  33
HETATM   33  C22 UNL     1      43.653 -46.297  72.523  1.00  0.00     0.352 C 
HETATM   34  O3  UNL     1      43.694 -45.131  72.081  1.00  0.00    -0.283 OA
ENDBRANCH  15  33
BRANCH  26  35
HETATM   35  N7  UNL     1      37.011 -41.609  73.144  1.00  0.00    -0.383 N 
ATOM     36  H72 UNL     1      36.802 -41.489  74.135  1.00  0.00     0.157 HD
ATOM     37  H71 UNL     1      36.357 -41.287  72.430  1.00  0.00     0.157 HD
ENDBRANCH  26  35
BRANCH   6  38
HETATM   38  C5  UNL     1      41.103 -47.592  65.403  1.00  0.00     0.311 C 
BRANCH  38  39
HETATM   39  C6  UNL     1      39.857 -47.302  64.652  1.00  0.00    -0.029 A 
HETATM   40  C7  UNL     1      39.000 -48.311  64.258  1.00  0.00     0.010 A 
HETATM   41  C8  UNL     1      37.844 -48.030  63.560  1.00  0.00     0.013 A 
HETATM   42  C9  UNL     1      37.474 -46.735  63.215  1.00  0.00    -0.026 A 
HETATM   43  C10 UNL     1      36.320 -46.467  62.520  1.00  0.00     0.012 A 
HETATM   44  C14 UNL     1      38.341 -45.729  63.615  1.00  0.00    -0.025 A 
HETATM   45  C11 UNL     1      35.973 -45.183  62.190  1.00  0.00     0.001 A 
HETATM   46  C12 UNL     1      36.823 -44.171  62.580  1.00  0.00     0.001 A 
HETATM   47  C13 UNL     1      37.984 -44.433  63.279  1.00  0.00     0.012 A 
HETATM   48  C15 UNL     1      39.495 -46.015  64.313  1.00  0.00     0.021 A 
ENDBRANCH  38  39
ENDBRANCH   6  38
TORSDOF 4
ENDMDL
