MODEL 1
REMARK VINA RESULT: -9.328539957      0.000      0.000
REMARK  6 active torsions:
REMARK  status: ('A' for Active; 'I' for Inactive)
REMARK    1  A    between atoms: C4_5  and  N2_6 
REMARK    2  A    between atoms: N2_6  and  C5_8 
REMARK    3  A    between atoms: C6_11  and  N4_12 
REMARK    4  A    between atoms: N4_12  and  C7_14 
REMARK    5  A    between atoms: N6_24  and  C14_25 
REMARK    6  A    between atoms: C15_28  and  N8_29 
ROOT
HETATM    1  C5  UNL     1      39.624 -47.384  70.853  1.00  0.00     0.718 A 
HETATM    2  N3  UNL     1      39.103 -46.747  71.909  1.00  0.00    -0.021 N 
ATOM      3  H3  UNL     1      39.755 -46.318  72.565  1.00  0.00     0.203 HD
HETATM    4  C6  UNL     1      37.784 -46.626  72.175  1.00  0.00     0.697 A 
HETATM    5  N5  UNL     1      36.930 -47.193  71.309  1.00  0.00    -0.139 N 
ATOM      6  H5  UNL     1      35.926 -47.125  71.472  1.00  0.00     0.189 HD
HETATM    7  C13 UNL     1      37.390 -47.851  70.223  1.00  0.00     0.376 A 
HETATM    8  O1  UNL     1      36.581 -48.392  69.395  1.00  0.00    -0.244 OA
HETATM    9  N6  UNL     1      38.705 -47.946  69.996  1.00  0.00     0.077 N 
ENDROOT
BRANCH   9  10
HETATM   10  C14 UNL     1      39.169 -48.639  68.854  1.00  0.00     0.711 A 
HETATM   11  N7  UNL     1      39.524 -48.011  67.733  1.00  0.00    -0.174 N 
HETATM   12  C15 UNL     1      39.968 -48.644  66.636  1.00  0.00     0.134 A 
ATOM     13  H7  UNL     1      39.454 -46.994  67.707  1.00  0.00     0.186 HD
HETATM   14  C24 UNL     1      40.052 -50.022  66.699  1.00  0.00     0.054 A 
HETATM   15  C25 UNL     1      40.442 -51.008  65.826  1.00  0.00     0.036 A 
HETATM   16  C27 UNL     1      39.692 -50.712  67.850  1.00  0.00     0.135 A 
HETATM   17  C26 UNL     1      40.315 -52.230  66.441  1.00  0.00     0.091 A 
HETATM   18  N9  UNL     1      39.855 -52.031  67.679  1.00  0.00    -0.351 N 
ATOM     19  H9  UNL     1      39.662 -52.754  68.371  1.00  0.00     0.166 HD
HETATM   20  N10 UNL     1      39.259 -49.976  68.893  1.00  0.00    -0.174 N 
ATOM     21  H10 UNL     1      38.988 -50.458  69.750  1.00  0.00     0.186 HD
BRANCH  12  22
HETATM   22  N8  UNL     1      40.348 -47.972  65.466  1.00  0.00    -0.352 N 
HETATM   23  C16 UNL     1      41.708 -47.410  65.430  1.00  0.00     0.151 C 
HETATM   24  C17 UNL     1      42.272 -47.522  64.051  1.00  0.00     0.187 C 
HETATM   25  O2  UNL     1      41.621 -48.529  63.303  1.00  0.00    -0.387 OA
HETATM   26  C18 UNL     1      40.312 -48.136  63.063  1.00  0.00     0.198 C 
HETATM   27  C19 UNL     1      39.549 -47.776  64.304  1.00  0.00     0.055 C 
HETATM   28  C20 UNL     1      38.191 -48.437  64.345  1.00  0.00     0.033 C 
HETATM   29  C23 UNL     1      39.125 -46.304  64.232  1.00  0.00     0.033 C 
HETATM   30  C21 UNL     1      37.553 -47.786  63.102  1.00  0.00     0.003 C 
HETATM   31  C22 UNL     1      38.080 -46.357  63.123  1.00  0.00     0.003 C 
ENDBRANCH  12  22
ENDBRANCH   9  10
BRANCH   1  32
HETATM   32  N2  UNL     1      40.815 -47.542  70.535  1.00  0.00    -0.220 N 
ATOM     33  H2  UNL     1      41.044 -48.536  70.572  1.00  0.00     0.178 HD
BRANCH  32  34
HETATM   34  C4  UNL     1      41.933 -46.832  70.148  1.00  0.00     0.102 C 
HETATM   35  C3  UNL     1      42.867 -47.734  69.340  1.00  0.00     0.045 C 
HETATM   36  C2  UNL     1      43.784 -46.890  68.475  1.00  0.00     0.118 C 
HETATM   37  N1  UNL     1      44.130 -45.632  69.059  1.00  0.00    -0.416 N 
HETATM   38  C1  UNL     1      45.184 -45.692  70.034  1.00  0.00     0.143 C 
HETATM   39  C29 UNL     1      43.037 -44.782  69.407  1.00  0.00     0.118 C 
HETATM   40  C28 UNL     1      41.741 -45.599  69.292  1.00  0.00     0.045 C 
ENDBRANCH  32  34
ENDBRANCH   1  32
BRANCH   4  41
HETATM   41  N4  UNL     1      37.387 -45.979  73.239  1.00  0.00    -0.221 N 
ATOM     42  H4  UNL     1      37.886 -46.159  74.110  1.00  0.00     0.178 HD
BRANCH  41  43
HETATM   43  C7  UNL     1      36.316 -45.043  73.280  1.00  0.00     0.099 C 
HETATM   44  C8  UNL     1      35.315 -45.306  74.384  1.00  0.00     0.026 C 
HETATM   45  C9  UNL     1      35.956 -45.227  75.754  1.00  0.00     0.002 C 
HETATM   46  C10 UNL     1      37.035 -44.169  75.804  1.00  0.00     0.000 C 
HETATM   47  C11 UNL     1      36.670 -43.090  74.797  1.00  0.00     0.002 C 
HETATM   48  C12 UNL     1      36.931 -43.655  73.430  1.00  0.00     0.026 C 
ENDBRANCH  41  43
ENDBRANCH   4  41
TORSDOF 6
ENDMDL
MODEL 2
REMARK VINA RESULT: -9.165057939      0.875      2.035
REMARK  6 active torsions:
REMARK  status: ('A' for Active; 'I' for Inactive)
REMARK    1  A    between atoms: C4_5  and  N2_6 
REMARK    2  A    between atoms: N2_6  and  C5_8 
REMARK    3  A    between atoms: C6_11  and  N4_12 
REMARK    4  A    between atoms: N4_12  and  C7_14 
REMARK    5  A    between atoms: N6_24  and  C14_25 
REMARK    6  A    between atoms: C15_28  and  N8_29 
ROOT
HETATM    1  C5  UNL     1      39.581 -47.396  70.768  1.00  0.00     0.718 A 
HETATM    2  N3  UNL     1      39.091 -46.766  71.842  1.00  0.00    -0.021 N 
ATOM      3  H3  UNL     1      39.762 -46.345  72.484  1.00  0.00     0.203 HD
HETATM    4  C6  UNL     1      37.780 -46.643  72.145  1.00  0.00     0.697 A 
HETATM    5  N5  UNL     1      36.901 -47.200  71.298  1.00  0.00    -0.139 N 
ATOM      6  H5  UNL     1      35.902 -47.131  71.489  1.00  0.00     0.189 HD
HETATM    7  C13 UNL     1      37.329 -47.852  70.196  1.00  0.00     0.376 A 
HETATM    8  O1  UNL     1      36.496 -48.384  69.386  1.00  0.00    -0.244 OA
HETATM    9  N6  UNL     1      38.637 -47.950  69.932  1.00  0.00     0.077 N 
ENDROOT
BRANCH   9  10
HETATM   10  C14 UNL     1      39.068 -48.635  68.773  1.00  0.00     0.711 A 
HETATM   11  N7  UNL     1      39.263 -48.016  67.608  1.00  0.00    -0.174 N 
HETATM   12  C15 UNL     1      39.672 -48.643  66.494  1.00  0.00     0.134 A 
ATOM     13  H7  UNL     1      39.092 -47.012  67.560  1.00  0.00     0.186 HD
HETATM   14  C24 UNL     1      39.896 -50.003  66.586  1.00  0.00     0.054 A 
HETATM   15  C25 UNL     1      40.304 -50.978  65.709  1.00  0.00     0.036 A 
HETATM   16  C27 UNL     1      39.704 -50.683  67.782  1.00  0.00     0.135 A 
HETATM   17  C26 UNL     1      40.350 -52.183  66.366  1.00  0.00     0.091 A 
HETATM   18  N9  UNL     1      39.980 -51.985  67.634  1.00  0.00    -0.351 N 
ATOM     19  H9  UNL     1      39.919 -52.699  68.360  1.00  0.00     0.166 HD
HETATM   20  N10 UNL     1      39.292 -49.955  68.839  1.00  0.00    -0.174 N 
ATOM     21  H10 UNL     1      39.143 -50.430  69.730  1.00  0.00     0.186 HD
BRANCH  12  22
HETATM   22  N8  UNL     1      39.883 -47.979  65.278  1.00  0.00    -0.352 N 
HETATM   23  C16 UNL     1      38.758 -47.951  64.328  1.00  0.00     0.151 C 
HETATM   24  C17 UNL     1      38.740 -46.649  63.594  1.00  0.00     0.187 C 
HETATM   25  O2  UNL     1      39.433 -45.643  64.303  1.00  0.00    -0.387 OA
HETATM   26  C18 UNL     1      40.784 -45.958  64.327  1.00  0.00     0.198 C 
HETATM   27  C19 UNL     1      41.080 -47.327  64.863  1.00  0.00     0.055 C 
HETATM   28  C20 UNL     1      42.183 -47.305  65.895  1.00  0.00     0.033 C 
HETATM   29  C23 UNL     1      41.754 -48.167  63.772  1.00  0.00     0.033 C 
HETATM   30  C21 UNL     1      43.344 -46.800  65.016  1.00  0.00     0.003 C 
HETATM   31  C22 UNL     1      43.110 -47.478  63.671  1.00  0.00     0.003 C 
ENDBRANCH  12  22
ENDBRANCH   9  10
BRANCH   1  32
HETATM   32  N2  UNL     1      40.762 -47.556  70.417  1.00  0.00    -0.220 N 
ATOM     33  H2  UNL     1      40.948 -48.553  70.301  1.00  0.00     0.178 HD
BRANCH  32  34
HETATM   34  C4  UNL     1      41.909 -46.844  70.129  1.00  0.00     0.102 C 
HETATM   35  C3  UNL     1      41.566 -45.644  69.245  1.00  0.00     0.045 C 
HETATM   36  C2  UNL     1      42.648 -44.587  69.362  1.00  0.00     0.118 C 
HETATM   37  N1  UNL     1      43.955 -45.123  69.580  1.00  0.00    -0.416 N 
HETATM   38  C1  UNL     1      44.615 -45.598  68.396  1.00  0.00     0.143 C 
HETATM   39  C29 UNL     1      44.106 -45.958  70.728  1.00  0.00     0.118 C 
HETATM   40  C28 UNL     1      42.706 -46.270  71.280  1.00  0.00     0.045 C 
ENDBRANCH  32  34
ENDBRANCH   1  32
BRANCH   4  41
HETATM   41  N4  UNL     1      37.414 -46.003  73.224  1.00  0.00    -0.221 N 
ATOM     42  H4  UNL     1      37.933 -46.194  74.081  1.00  0.00     0.178 HD
BRANCH  41  43
HETATM   43  C7  UNL     1      36.351 -45.061  73.301  1.00  0.00     0.099 C 
HETATM   44  C8  UNL     1      35.384 -45.320  74.436  1.00  0.00     0.026 C 
HETATM   45  C9  UNL     1      36.068 -45.246  75.784  1.00  0.00     0.002 C 
HETATM   46  C10 UNL     1      37.155 -44.194  75.802  1.00  0.00     0.000 C 
HETATM   47  C11 UNL     1      36.764 -43.112  74.808  1.00  0.00     0.002 C 
HETATM   48  C12 UNL     1      36.979 -43.677  73.432  1.00  0.00     0.026 C 
ENDBRANCH  41  43
ENDBRANCH   4  41
TORSDOF 6
ENDMDL
MODEL 3
REMARK VINA RESULT: -8.270334602      1.881      2.483
REMARK  6 active torsions:
REMARK  status: ('A' for Active; 'I' for Inactive)
REMARK    1  A    between atoms: C4_5  and  N2_6 
REMARK    2  A    between atoms: N2_6  and  C5_8 
REMARK    3  A    between atoms: C6_11  and  N4_12 
REMARK    4  A    between atoms: N4_12  and  C7_14 
REMARK    5  A    between atoms: N6_24  and  C14_25 
REMARK    6  A    between atoms: C15_28  and  N8_29 
ROOT
HETATM    1  C5  UNL     1      39.314 -45.948  70.474  1.00  0.00     0.718 A 
HETATM    2  N3  UNL     1      38.542 -45.723  71.543  1.00  0.00    -0.021 N 
ATOM      3  H3  UNL     1      38.692 -44.855  72.056  1.00  0.00     0.203 HD
HETATM    4  C6  UNL     1      37.578 -46.554  71.999  1.00  0.00     0.697 A 
HETATM    5  N5  UNL     1      37.384 -47.696  71.321  1.00  0.00    -0.139 N 
ATOM      6  H5  UNL     1      36.667 -48.352  71.632  1.00  0.00     0.189 HD
HETATM    7  C13 UNL     1      38.130 -47.984  70.234  1.00  0.00     0.376 A 
HETATM    8  O1  UNL     1      37.949 -49.070  69.586  1.00  0.00    -0.244 OA
HETATM    9  N6  UNL     1      39.074 -47.133  69.816  1.00  0.00     0.077 N 
ENDROOT
BRANCH   9  10
HETATM   10  C14 UNL     1      39.846 -47.450  68.674  1.00  0.00     0.711 A 
HETATM   11  N7  UNL     1      39.400 -47.253  67.432  1.00  0.00    -0.174 N 
HETATM   12  C15 UNL     1      40.112 -47.544  66.333  1.00  0.00     0.134 A 
ATOM     13  H7  UNL     1      38.467 -46.859  67.312  1.00  0.00     0.186 HD
HETATM   14  C24 UNL     1      41.373 -48.077  66.526  1.00  0.00     0.054 A 
HETATM   15  C25 UNL     1      42.383 -48.497  65.696  1.00  0.00     0.036 A 
HETATM   16  C27 UNL     1      41.872 -48.297  67.804  1.00  0.00     0.135 A 
HETATM   17  C26 UNL     1      43.434 -48.946  66.457  1.00  0.00     0.091 A 
HETATM   18  N9  UNL     1      43.105 -48.817  67.745  1.00  0.00    -0.351 N 
ATOM     19  H9  UNL     1      43.690 -49.068  68.542  1.00  0.00     0.166 HD
HETATM   20  N10 UNL     1      41.072 -47.968  68.837  1.00  0.00    -0.174 N 
ATOM     21  H10 UNL     1      41.414 -48.119  69.786  1.00  0.00     0.186 HD
BRANCH  12  22
HETATM   22  N8  UNL     1      39.637 -47.323  65.034  1.00  0.00    -0.352 N 
HETATM   23  C16 UNL     1      39.216 -48.507  64.266  1.00  0.00     0.151 C 
HETATM   24  C17 UNL     1      38.043 -48.169  63.404  1.00  0.00     0.187 C 
HETATM   25  O2  UNL     1      37.354 -47.033  63.887  1.00  0.00    -0.387 OA
HETATM   26  C18 UNL     1      38.167 -45.918  63.743  1.00  0.00     0.198 C 
HETATM   27  C19 UNL     1      39.519 -46.066  64.376  1.00  0.00     0.055 C 
HETATM   28  C20 UNL     1      39.881 -44.867  65.222  1.00  0.00     0.033 C 
HETATM   29  C23 UNL     1      40.602 -45.964  63.295  1.00  0.00     0.033 C 
HETATM   30  C21 UNL     1      39.905 -43.781  64.130  1.00  0.00     0.003 C 
HETATM   31  C22 UNL     1      40.498 -44.490  62.918  1.00  0.00     0.003 C 
ENDBRANCH  12  22
ENDBRANCH   9  10
BRANCH   1  32
HETATM   32  N2  UNL     1      40.217 -45.244  69.989  1.00  0.00    -0.220 N 
ATOM     33  H2  UNL     1      39.933 -44.922  69.064  1.00  0.00     0.178 HD
BRANCH  32  34
HETATM   34  C4  UNL     1      41.473 -44.749  70.278  1.00  0.00     0.102 C 
HETATM   35  C3  UNL     1      42.103 -45.562  71.410  1.00  0.00     0.045 C 
HETATM   36  C2  UNL     1      43.612 -45.414  71.378  1.00  0.00     0.118 C 
HETATM   37  N1  UNL     1      44.055 -44.136  70.915  1.00  0.00    -0.416 N 
HETATM   38  C1  UNL     1      44.022 -43.095  71.903  1.00  0.00     0.143 C 
HETATM   39  C29 UNL     1      43.602 -43.748  69.618  1.00  0.00     0.118 C 
HETATM   40  C28 UNL     1      42.511 -44.737  69.178  1.00  0.00     0.045 C 
ENDBRANCH  32  34
ENDBRANCH   1  32
BRANCH   4  41
HETATM   41  N4  UNL     1      36.882 -46.231  73.057  1.00  0.00    -0.221 N 
ATOM     42  H4  UNL     1      36.905 -46.875  73.847  1.00  0.00     0.178 HD
BRANCH  41  43
HETATM   43  C7  UNL     1      36.094 -45.055  73.195  1.00  0.00     0.099 C 
HETATM   44  C8  UNL     1      35.026 -45.155  74.263  1.00  0.00     0.026 C 
HETATM   45  C9  UNL     1      35.624 -45.387  75.634  1.00  0.00     0.002 C 
HETATM   46  C10 UNL     1      36.942 -44.663  75.799  1.00  0.00     0.000 C 
HETATM   47  C11 UNL     1      36.903 -43.429  74.911  1.00  0.00     0.002 C 
HETATM   48  C12 UNL     1      37.047 -43.902  73.492  1.00  0.00     0.026 C 
ENDBRANCH  41  43
ENDBRANCH   4  41
TORSDOF 6
ENDMDL
MODEL 4
REMARK VINA RESULT: -8.211487060      3.873      9.246
REMARK  6 active torsions:
REMARK  status: ('A' for Active; 'I' for Inactive)
REMARK    1  A    between atoms: C4_5  and  N2_6 
REMARK    2  A    between atoms: N2_6  and  C5_8 
REMARK    3  A    between atoms: C6_11  and  N4_12 
REMARK    4  A    between atoms: N4_12  and  C7_14 
REMARK    5  A    between atoms: N6_24  and  C14_25 
REMARK    6  A    between atoms: C15_28  and  N8_29 
ROOT
HETATM    1  C5  UNL     1      41.785 -44.755  64.928  1.00  0.00     0.718 A 
HETATM    2  N3  UNL     1      42.657 -44.176  64.095  1.00  0.00    -0.021 N 
ATOM      3  H3  UNL     1      42.277 -43.583  63.358  1.00  0.00     0.203 HD
HETATM    4  C6  UNL     1      44.000 -44.313  64.151  1.00  0.00     0.697 A 
HETATM    5  N5  UNL     1      44.495 -45.095  65.123  1.00  0.00    -0.139 N 
ATOM      6  H5  UNL     1      45.504 -45.226  65.202  1.00  0.00     0.189 HD
HETATM    7  C13 UNL     1      43.670 -45.710  65.997  1.00  0.00     0.376 A 
HETATM    8  O1  UNL     1      44.136 -46.455  66.924  1.00  0.00    -0.244 OA
HETATM    9  N6  UNL     1      42.345 -45.546  65.906  1.00  0.00     0.077 N 
ENDROOT
BRANCH   9  10
HETATM   10  C14 UNL     1      41.495 -46.197  66.829  1.00  0.00     0.711 A 
HETATM   11  N7  UNL     1      41.411 -45.826  68.108  1.00  0.00    -0.174 N 
HETATM   12  C15 UNL     1      40.611 -46.426  69.004  1.00  0.00     0.134 A 
ATOM     13  H7  UNL     1      41.985 -45.043  68.422  1.00  0.00     0.186 HD
HETATM   14  C24 UNL     1      39.846 -47.483  68.551  1.00  0.00     0.054 A 
HETATM   15  C25 UNL     1      38.934 -48.333  69.128  1.00  0.00     0.036 A 
HETATM   16  C27 UNL     1      39.906 -47.899  67.227  1.00  0.00     0.135 A 
HETATM   17  C26 UNL     1      38.477 -49.214  68.178  1.00  0.00     0.091 A 
HETATM   18  N9  UNL     1      39.081 -48.934  67.021  1.00  0.00    -0.351 N 
ATOM     19  H9  UNL     1      38.940 -49.423  66.136  1.00  0.00     0.166 HD
HETATM   20  N10 UNL     1      40.742 -47.225  66.413  1.00  0.00    -0.174 N 
ATOM     21  H10 UNL     1      40.805 -47.510  65.435  1.00  0.00     0.186 HD
BRANCH  12  22
HETATM   22  N8  UNL     1      40.524 -46.020  70.342  1.00  0.00    -0.352 N 
HETATM   23  C16 UNL     1      41.324 -46.774  71.322  1.00  0.00     0.151 C 
HETATM   24  C17 UNL     1      41.831 -45.854  72.386  1.00  0.00     0.187 C 
HETATM   25  O2  UNL     1      41.855 -44.512  71.944  1.00  0.00    -0.387 OA
HETATM   26  C18 UNL     1      40.551 -44.074  71.762  1.00  0.00     0.198 C 
HETATM   27  C19 UNL     1      39.738 -44.949  70.855  1.00  0.00     0.055 C 
HETATM   28  C20 UNL     1      38.995 -44.147  69.811  1.00  0.00     0.033 C 
HETATM   29  C23 UNL     1      38.552 -45.530  71.635  1.00  0.00     0.033 C 
HETATM   30  C21 UNL     1      38.082 -43.315  70.731  1.00  0.00     0.003 C 
HETATM   31  C22 UNL     1      37.704 -44.280  71.848  1.00  0.00     0.003 C 
ENDBRANCH  12  22
ENDBRANCH   9  10
BRANCH   1  32
HETATM   32  N2  UNL     1      40.544 -44.684  64.947  1.00  0.00    -0.220 N 
ATOM     33  H2  UNL     1      40.229 -44.534  65.906  1.00  0.00     0.178 HD
BRANCH  32  34
HETATM   34  C4  UNL     1      39.446 -44.740  64.112  1.00  0.00     0.102 C 
HETATM   35  C3  UNL     1      39.529 -43.620  63.073  1.00  0.00     0.045 C 
HETATM   36  C2  UNL     1      38.679 -43.970  61.865  1.00  0.00     0.118 C 
HETATM   37  N1  UNL     1      37.515 -44.737  62.182  1.00  0.00    -0.416 N 
HETATM   38  C1  UNL     1      36.408 -43.970  62.680  1.00  0.00     0.143 C 
HETATM   39  C29 UNL     1      37.745 -45.971  62.863  1.00  0.00     0.118 C 
HETATM   40  C28 UNL     1      39.215 -46.003  63.312  1.00  0.00     0.045 C 
ENDBRANCH  32  34
ENDBRANCH   1  32
BRANCH   4  41
HETATM   41  N4  UNL     1      44.758 -43.698  63.283  1.00  0.00    -0.221 N 
ATOM     42  H4  UNL     1      44.294 -43.128  62.576  1.00  0.00     0.178 HD
BRANCH  41  43
HETATM   43  C7  UNL     1      46.179 -43.758  63.244  1.00  0.00     0.099 C 
HETATM   44  C8  UNL     1      46.762 -43.595  61.856  1.00  0.00     0.026 C 
HETATM   45  C9  UNL     1      46.411 -42.250  61.255  1.00  0.00     0.002 C 
HETATM   46  C10 UNL     1      46.370 -41.163  62.305  1.00  0.00     0.000 C 
HETATM   47  C11 UNL     1      47.341 -41.552  63.408  1.00  0.00     0.002 C 
HETATM   48  C12 UNL     1      46.705 -42.674  64.180  1.00  0.00     0.026 C 
ENDBRANCH  41  43
ENDBRANCH   4  41
TORSDOF 6
ENDMDL
MODEL 5
REMARK VINA RESULT: -8.187050878      3.702      9.351
REMARK  6 active torsions:
REMARK  status: ('A' for Active; 'I' for Inactive)
REMARK    1  A    between atoms: C4_5  and  N2_6 
REMARK    2  A    between atoms: N2_6  and  C5_8 
REMARK    3  A    between atoms: C6_11  and  N4_12 
REMARK    4  A    between atoms: N4_12  and  C7_14 
REMARK    5  A    between atoms: N6_24  and  C14_25 
REMARK    6  A    between atoms: C15_28  and  N8_29 
ROOT
HETATM    1  C5  UNL     1      41.605 -44.710  64.994  1.00  0.00     0.718 A 
HETATM    2  N3  UNL     1      42.467 -44.109  64.165  1.00  0.00    -0.021 N 
ATOM      3  H3  UNL     1      42.078 -43.510  63.438  1.00  0.00     0.203 HD
HETATM    4  C6  UNL     1      43.812 -44.232  64.214  1.00  0.00     0.697 A 
HETATM    5  N5  UNL     1      44.320 -45.023  65.172  1.00  0.00    -0.139 N 
ATOM      6  H5  UNL     1      45.330 -45.144  65.244  1.00  0.00     0.189 HD
HETATM    7  C13 UNL     1      43.506 -45.659  66.040  1.00  0.00     0.376 A 
HETATM    8  O1  UNL     1      43.984 -46.412  66.954  1.00  0.00    -0.244 OA
HETATM    9  N6  UNL     1      42.179 -45.509  65.957  1.00  0.00     0.077 N 
ENDROOT
BRANCH   9  10
HETATM   10  C14 UNL     1      41.340 -46.183  66.875  1.00  0.00     0.711 A 
HETATM   11  N7  UNL     1      41.114 -45.723  68.107  1.00  0.00    -0.174 N 
HETATM   12  C15 UNL     1      40.322 -46.342  68.996  1.00  0.00     0.134 A 
ATOM     13  H7  UNL     1      41.567 -44.854  68.389  1.00  0.00     0.186 HD
HETATM   14  C24 UNL     1      39.721 -47.518  68.588  1.00  0.00     0.054 A 
HETATM   15  C25 UNL     1      38.872 -48.424  69.175  1.00  0.00     0.036 A 
HETATM   16  C27 UNL     1      39.932 -48.028  67.314  1.00  0.00     0.135 A 
HETATM   17  C26 UNL     1      38.595 -49.427  68.278  1.00  0.00     0.091 A 
HETATM   18  N9  UNL     1      39.252 -49.170  67.145  1.00  0.00    -0.351 N 
ATOM     19  H9  UNL     1      39.238 -49.741  66.300  1.00  0.00     0.166 HD
HETATM   20  N10 UNL     1      40.746 -47.325  66.502  1.00  0.00    -0.174 N 
ATOM     21  H10 UNL     1      40.918 -47.678  65.560  1.00  0.00     0.186 HD
BRANCH  12  22
HETATM   22  N8  UNL     1      40.084 -45.845  70.284  1.00  0.00    -0.352 N 
HETATM   23  C16 UNL     1      39.016 -44.842  70.427  1.00  0.00     0.151 C 
HETATM   24  C17 UNL     1      38.307 -45.029  71.729  1.00  0.00     0.187 C 
HETATM   25  O2  UNL     1      38.476 -46.340  72.229  1.00  0.00    -0.387 OA
HETATM   26  C18 UNL     1      39.806 -46.520  72.580  1.00  0.00     0.198 C 
HETATM   27  C19 UNL     1      40.774 -46.211  71.476  1.00  0.00     0.055 C 
HETATM   28  C20 UNL     1      41.805 -47.302  71.306  1.00  0.00     0.033 C 
HETATM   29  C23 UNL     1      41.682 -45.052  71.904  1.00  0.00     0.033 C 
HETATM   30  C21 UNL     1      42.498 -47.215  72.679  1.00  0.00     0.003 C 
HETATM   31  C22 UNL     1      42.517 -45.722  72.989  1.00  0.00     0.003 C 
ENDBRANCH  12  22
ENDBRANCH   9  10
BRANCH   1  32
HETATM   32  N2  UNL     1      40.364 -44.654  65.019  1.00  0.00    -0.220 N 
ATOM     33  H2  UNL     1      40.055 -44.459  65.972  1.00  0.00     0.178 HD
BRANCH  32  34
HETATM   34  C4  UNL     1      39.261 -44.765  64.197  1.00  0.00     0.102 C 
HETATM   35  C3  UNL     1      39.373 -43.769  63.042  1.00  0.00     0.045 C 
HETATM   36  C2  UNL     1      38.506 -44.221  61.881  1.00  0.00     0.118 C 
HETATM   37  N1  UNL     1      37.321 -44.912  62.282  1.00  0.00    -0.416 N 
HETATM   38  C1  UNL     1      36.240 -44.061  62.694  1.00  0.00     0.143 C 
HETATM   39  C29 UNL     1      37.516 -46.071  63.092  1.00  0.00     0.118 C 
HETATM   40  C28 UNL     1      38.986 -46.100  63.540  1.00  0.00     0.045 C 
ENDBRANCH  32  34
ENDBRANCH   1  32
BRANCH   4  41
HETATM   41  N4  UNL     1      44.560 -43.596  63.351  1.00  0.00    -0.221 N 
ATOM     42  H4  UNL     1      44.100 -42.918  62.744  1.00  0.00     0.178 HD
BRANCH  41  43
HETATM   43  C7  UNL     1      45.962 -43.773  63.191  1.00  0.00     0.099 C 
HETATM   44  C8  UNL     1      46.447 -43.563  61.772  1.00  0.00     0.026 C 
HETATM   45  C9  UNL     1      46.174 -42.154  61.289  1.00  0.00     0.002 C 
HETATM   46  C10 UNL     1      46.312 -41.144  62.405  1.00  0.00     0.000 C 
HETATM   47  C11 UNL     1      47.326 -41.690  63.397  1.00  0.00     0.002 C 
HETATM   48  C12 UNL     1      46.654 -42.806  64.146  1.00  0.00     0.026 C 
ENDBRANCH  41  43
ENDBRANCH   4  41
TORSDOF 6
ENDMDL
