MODEL 1
REMARK VINA RESULT: -8.856870975      0.000      0.000
REMARK  7 active torsions:
REMARK  status: ('A' for Active; 'I' for Inactive)
REMARK    1  A    between atoms: C2_2  and  C5_5 
REMARK    2  A    between atoms: C6_6  and  C7_7 
REMARK    3  A    between atoms: C8_10  and  N2_11 
REMARK    4  A    between atoms: N4_19  and  C12_20 
REMARK    5  A    between atoms: C13_23  and  N6_24 
REMARK    6  A    between atoms: C19_33  and  C20_34 
REMARK    7  A    between atoms: N9_40  and  C24_42 
ROOT
HETATM    1  C12 UNL     1      40.107 -45.468  63.361  1.00  0.00     0.132 A 
HETATM    2  N5  UNL     1      38.814 -45.952  63.199  1.00  0.00    -0.176 N 
ATOM      3  H5  UNL     1      38.565 -46.843  63.628  1.00  0.00     0.186 HD
HETATM    4  C13 UNL     1      37.889 -45.296  62.505  1.00  0.00     0.681 A 
HETATM    5  N7  UNL     1      38.197 -44.115  61.929  1.00  0.00    -0.201 N 
ATOM      6  H7  UNL     1      37.488 -43.610  61.396  1.00  0.00     0.183 HD
HETATM    7  C18 UNL     1      39.431 -43.598  62.055  1.00  0.00     0.122 A 
HETATM    8  C19 UNL     1      40.414 -44.290  62.791  1.00  0.00     0.035 A 
ENDROOT
BRANCH   1   9
HETATM    9  N4  UNL     1      41.036 -46.268  64.047  1.00  0.00    -0.356 N 
HETATM   10  C11 UNL     1      41.239 -46.108  65.515  1.00  0.00     0.168 C 
HETATM   11  C10 UNL     1      41.216 -47.545  65.908  1.00  0.00     0.021 A 
HETATM   12  C7  UNL     1      40.854 -48.093  67.132  1.00  0.00     0.113 A 
HETATM   13  C9  UNL     1      41.607 -48.325  64.848  1.00  0.00     0.055 A 
HETATM   14  N1  UNL     1      40.919 -49.435  67.200  1.00  0.00    -0.183 N 
HETATM   15  C8  UNL     1      41.303 -50.195  66.159  1.00  0.00     0.677 A 
ATOM     16  H1  UNL     1      40.666 -49.894  68.075  1.00  0.00     0.185 HD
HETATM   17  N3  UNL     1      41.648 -49.645  64.985  1.00  0.00    -0.193 N 
ATOM     18  H3  UNL     1      41.940 -50.235  64.206  1.00  0.00     0.184 HD
HETATM   19  C30 UNL     1      41.918 -47.350  63.734  1.00  0.00     0.183 C 
BRANCH  12  20
HETATM   20  C6  UNL     1      40.445 -47.296  68.251  1.00  0.00    -0.047 C 
HETATM   21  C5  UNL     1      40.120 -46.618  69.198  1.00  0.00    -0.091 C 
BRANCH  21  22
HETATM   22  C2  UNL     1      39.748 -45.780  70.353  1.00  0.00     0.013 C 
HETATM   23  C1  UNL     1      38.606 -46.385  71.125  1.00  0.00     0.028 C 
HETATM   24  C3  UNL     1      40.937 -45.675  71.321  1.00  0.00     0.028 C 
HETATM   25  C4  UNL     1      39.453 -44.395  69.872  1.00  0.00     0.028 C 
ENDBRANCH  21  22
ENDBRANCH  12  20
BRANCH  15  26
HETATM   26  N2  UNL     1      41.325 -51.484  66.345  1.00  0.00    -0.234 N 
ATOM     27  H22 UNL     1      42.087 -52.064  65.991  1.00  0.00     0.174 HD
ATOM     28  H21 UNL     1      40.547 -51.891  66.864  1.00  0.00     0.174 HD
ENDBRANCH  15  26
ENDBRANCH   1   9
BRANCH   8  29
HETATM   29  C20 UNL     1      41.702 -43.633  62.947  1.00  0.00    -0.016 A 
HETATM   30  C21 UNL     1      41.812 -42.603  63.855  1.00  0.00     0.029 A 
HETATM   31  C22 UNL     1      43.022 -42.008  64.056  1.00  0.00     0.090 A 
HETATM   32  N8  UNL     1      44.114 -42.428  63.368  1.00  0.00    -0.353 N 
HETATM   33  C23 UNL     1      44.065 -43.424  62.472  1.00  0.00     0.101 A 
ATOM     34  H8  UNL     1      45.007 -41.966  63.538  1.00  0.00     0.166 HD
HETATM   35  N9  UNL     1      45.079 -43.851  61.800  1.00  0.00    -0.371 N 
HETATM   36  C29 UNL     1      42.825 -44.031  62.268  1.00  0.00     0.060 A 
ATOM     37  H9  UNL     1      44.957 -44.617  61.137  1.00  0.00     0.161 HD
BRANCH  35  38
HETATM   38  C24 UNL     1      46.368 -43.266  61.970  1.00  0.00     0.087 C 
HETATM   39  C25 UNL     1      47.427 -44.325  62.283  1.00  0.00     0.051 C 
HETATM   40  C26 UNL     1      48.730 -43.581  62.466  1.00  0.00     0.169 C 
HETATM   41  O2  UNL     1      49.090 -42.811  61.388  1.00  0.00    -0.391 OA
HETATM   42  C27 UNL     1      48.125 -41.843  61.083  1.00  0.00     0.169 C 
HETATM   43  C28 UNL     1      46.863 -42.559  60.707  1.00  0.00     0.051 C 
ENDBRANCH  35  38
ENDBRANCH   8  29
BRANCH   4  44
HETATM   44  N6  UNL     1      36.563 -45.770  62.322  1.00  0.00    -0.214 N 
HETATM   45  C14 UNL     1      36.335 -47.196  62.337  1.00  0.00     0.167 C 
HETATM   46  C15 UNL     1      35.071 -47.442  63.150  1.00  0.00     0.188 C 
HETATM   47  O1  UNL     1      34.747 -46.311  63.907  1.00  0.00    -0.388 OA
HETATM   48  C16 UNL     1      34.338 -45.268  63.099  1.00  0.00     0.188 C 
HETATM   49  C17 UNL     1      35.431 -44.896  62.124  1.00  0.00     0.167 C 
ENDBRANCH   4  44
TORSDOF 7
ENDMDL
MODEL 2
REMARK VINA RESULT: -8.623356913      3.317      6.665
REMARK  7 active torsions:
REMARK  status: ('A' for Active; 'I' for Inactive)
REMARK    1  A    between atoms: C2_2  and  C5_5 
REMARK    2  A    between atoms: C6_6  and  C7_7 
REMARK    3  A    between atoms: C8_10  and  N2_11 
REMARK    4  A    between atoms: N4_19  and  C12_20 
REMARK    5  A    between atoms: C13_23  and  N6_24 
REMARK    6  A    between atoms: C19_33  and  C20_34 
REMARK    7  A    between atoms: N9_40  and  C24_42 
ROOT
HETATM    1  C12 UNL     1      39.498 -46.252  69.587  1.00  0.00     0.132 A 
HETATM    2  N5  UNL     1      38.889 -46.137  70.831  1.00  0.00    -0.176 N 
ATOM      3  H5  UNL     1      38.685 -46.986  71.358  1.00  0.00     0.186 HD
HETATM    4  C13 UNL     1      38.563 -44.962  71.359  1.00  0.00     0.681 A 
HETATM    5  N7  UNL     1      38.826 -43.826  70.679  1.00  0.00    -0.201 N 
ATOM      6  H7  UNL     1      38.576 -42.924  71.083  1.00  0.00     0.183 HD
HETATM    7  C18 UNL     1      39.415 -43.877  69.473  1.00  0.00     0.122 A 
HETATM    8  C19 UNL     1      39.763 -45.122  68.909  1.00  0.00     0.035 A 
ENDROOT
BRANCH   1   9
HETATM    9  N4  UNL     1      39.736 -47.539  69.077  1.00  0.00    -0.356 N 
HETATM   10  C11 UNL     1      39.043 -48.009  67.843  1.00  0.00     0.168 C 
HETATM   11  C10 UNL     1      40.213 -48.597  67.133  1.00  0.00     0.021 A 
HETATM   12  C7  UNL     1      40.395 -48.754  65.765  1.00  0.00     0.113 A 
HETATM   13  C9  UNL     1      41.167 -48.983  68.044  1.00  0.00     0.055 A 
HETATM   14  N1  UNL     1      41.565 -49.311  65.403  1.00  0.00    -0.183 N 
HETATM   15  C8  UNL     1      42.495 -49.687  66.298  1.00  0.00     0.677 A 
ATOM     16  H1  UNL     1      41.754 -49.452  64.410  1.00  0.00     0.185 HD
HETATM   17  N3  UNL     1      42.299 -49.527  67.616  1.00  0.00    -0.193 N 
ATOM     18  H3  UNL     1      43.014 -49.820  68.282  1.00  0.00     0.184 HD
HETATM   19  C30 UNL     1      40.577 -48.652  69.397  1.00  0.00     0.183 C 
BRANCH  12  20
HETATM   20  C6  UNL     1      39.412 -48.359  64.799  1.00  0.00    -0.047 C 
HETATM   21  C5  UNL     1      38.599 -48.018  63.972  1.00  0.00    -0.091 C 
BRANCH  21  22
HETATM   22  C2  UNL     1      37.627 -47.595  62.946  1.00  0.00     0.013 C 
HETATM   23  C1  UNL     1      36.238 -47.492  63.516  1.00  0.00     0.028 C 
HETATM   24  C3  UNL     1      38.002 -46.200  62.423  1.00  0.00     0.028 C 
HETATM   25  C4  UNL     1      37.710 -48.534  61.785  1.00  0.00     0.028 C 
ENDBRANCH  21  22
ENDBRANCH  12  20
BRANCH  15  26
HETATM   26  N2  UNL     1      43.589 -50.215  65.827  1.00  0.00    -0.234 N 
ATOM     27  H22 UNL     1      43.678 -51.220  65.675  1.00  0.00     0.174 HD
ATOM     28  H21 UNL     1      44.356 -49.577  65.614  1.00  0.00     0.174 HD
ENDBRANCH  15  26
ENDBRANCH   1   9
BRANCH   8  29
HETATM   29  C20 UNL     1      40.466 -45.093  67.636  1.00  0.00    -0.016 A 
HETATM   30  C21 UNL     1      39.802 -44.622  66.525  1.00  0.00     0.029 A 
HETATM   31  C22 UNL     1      40.458 -44.536  65.334  1.00  0.00     0.090 A 
HETATM   32  N8  UNL     1      41.759 -44.912  65.240  1.00  0.00    -0.353 N 
HETATM   33  C23 UNL     1      42.454 -45.378  66.287  1.00  0.00     0.101 A 
ATOM     34  H8  UNL     1      42.226 -44.836  64.336  1.00  0.00     0.166 HD
HETATM   35  N9  UNL     1      43.689 -45.744  66.238  1.00  0.00    -0.371 N 
HETATM   36  C29 UNL     1      41.779 -45.465  67.505  1.00  0.00     0.060 A 
ATOM     37  H9  UNL     1      44.146 -46.087  67.083  1.00  0.00     0.161 HD
BRANCH  35  38
HETATM   38  C24 UNL     1      44.424 -45.675  65.018  1.00  0.00     0.087 C 
HETATM   39  C25 UNL     1      45.919 -45.475  65.275  1.00  0.00     0.051 C 
HETATM   40  C26 UNL     1      46.576 -45.393  63.917  1.00  0.00     0.169 C 
HETATM   41  O2  UNL     1      46.344 -46.484  63.116  1.00  0.00    -0.391 OA
HETATM   42  C27 UNL     1      44.979 -46.686  62.880  1.00  0.00     0.169 C 
HETATM   43  C28 UNL     1      44.323 -46.964  64.199  1.00  0.00     0.051 C 
ENDBRANCH  35  38
ENDBRANCH   8  29
BRANCH   4  44
HETATM   44  N6  UNL     1      37.938 -44.818  72.627  1.00  0.00    -0.214 N 
HETATM   45  C14 UNL     1      38.327 -43.706  73.462  1.00  0.00     0.167 C 
HETATM   46  C15 UNL     1      37.053 -43.130  74.067  1.00  0.00     0.188 C 
HETATM   47  O1  UNL     1      35.929 -43.589  73.371  1.00  0.00    -0.388 OA
HETATM   48  C16 UNL     1      35.729 -44.940  73.580  1.00  0.00     0.188 C 
HETATM   49  C17 UNL     1      36.933 -45.729  73.120  1.00  0.00     0.167 C 
ENDBRANCH   4  44
TORSDOF 7
ENDMDL
MODEL 3
REMARK VINA RESULT: -8.620991339      3.420      7.180
REMARK  7 active torsions:
REMARK  status: ('A' for Active; 'I' for Inactive)
REMARK    1  A    between atoms: C2_2  and  C5_5 
REMARK    2  A    between atoms: C6_6  and  C7_7 
REMARK    3  A    between atoms: C8_10  and  N2_11 
REMARK    4  A    between atoms: N4_19  and  C12_20 
REMARK    5  A    between atoms: C13_23  and  N6_24 
REMARK    6  A    between atoms: C19_33  and  C20_34 
REMARK    7  A    between atoms: N9_40  and  C24_42 
ROOT
HETATM    1  C12 UNL     1      39.418 -46.339  69.899  1.00  0.00     0.132 A 
HETATM    2  N5  UNL     1      38.779 -46.368  71.133  1.00  0.00    -0.176 N 
ATOM      3  H5  UNL     1      38.618 -47.270  71.581  1.00  0.00     0.186 HD
HETATM    4  C13 UNL     1      38.369 -45.264  71.750  1.00  0.00     0.681 A 
HETATM    5  N7  UNL     1      38.573 -44.061  71.174  1.00  0.00    -0.201 N 
ATOM      6  H7  UNL     1      38.259 -43.213  71.646  1.00  0.00     0.183 HD
HETATM    7  C18 UNL     1      39.189 -43.973  69.983  1.00  0.00     0.122 A 
HETATM    8  C19 UNL     1      39.625 -45.141  69.326  1.00  0.00     0.035 A 
ENDROOT
BRANCH   1   9
HETATM    9  N4  UNL     1      39.747 -47.561  69.290  1.00  0.00    -0.356 N 
HETATM   10  C11 UNL     1      39.041 -48.010  68.056  1.00  0.00     0.168 C 
HETATM   11  C10 UNL     1      40.223 -48.436  67.256  1.00  0.00     0.021 A 
HETATM   12  C7  UNL     1      40.352 -48.484  65.874  1.00  0.00     0.113 A 
HETATM   13  C9  UNL     1      41.251 -48.792  68.096  1.00  0.00     0.055 A 
HETATM   14  N1  UNL     1      41.548 -48.902  65.424  1.00  0.00    -0.183 N 
HETATM   15  C8  UNL     1      42.551 -49.249  66.250  1.00  0.00     0.677 A 
ATOM     16  H1  UNL     1      41.701 -48.959  64.417  1.00  0.00     0.185 HD
HETATM   17  N3  UNL     1      42.406 -49.196  67.583  1.00  0.00    -0.193 N 
ATOM     18  H3  UNL     1      43.176 -49.465  68.196  1.00  0.00     0.184 HD
HETATM   19  C30 UNL     1      40.700 -48.608  69.493  1.00  0.00     0.183 C 
BRANCH  12  20
HETATM   20  C6  UNL     1      39.292 -48.119  64.981  1.00  0.00    -0.047 C 
HETATM   21  C5  UNL     1      38.407 -47.823  64.212  1.00  0.00    -0.091 C 
BRANCH  21  22
HETATM   22  C2  UNL     1      37.337 -47.480  63.257  1.00  0.00     0.013 C 
HETATM   23  C1  UNL     1      35.974 -47.720  63.849  1.00  0.00     0.028 C 
HETATM   24  C3  UNL     1      37.416 -45.986  62.906  1.00  0.00     0.028 C 
HETATM   25  C4  UNL     1      37.559 -48.240  61.988  1.00  0.00     0.028 C 
ENDBRANCH  21  22
ENDBRANCH  12  20
BRANCH  15  26
HETATM   26  N2  UNL     1      43.665 -49.639  65.697  1.00  0.00    -0.234 N 
ATOM     27  H22 UNL     1      43.706 -49.925  64.718  1.00  0.00     0.174 HD
ATOM     28  H21 UNL     1      44.497 -49.644  66.286  1.00  0.00     0.174 HD
ENDBRANCH  15  26
ENDBRANCH   1   9
BRANCH   8  29
HETATM   29  C20 UNL     1      40.350 -44.961  68.078  1.00  0.00    -0.016 A 
HETATM   30  C21 UNL     1      41.693 -45.264  68.044  1.00  0.00     0.029 A 
HETATM   31  C22 UNL     1      42.380 -45.153  66.872  1.00  0.00     0.090 A 
HETATM   32  N8  UNL     1      41.746 -44.748  65.743  1.00  0.00    -0.353 N 
HETATM   33  C23 UNL     1      40.442 -44.439  65.717  1.00  0.00     0.101 A 
ATOM     34  H8  UNL     1      42.283 -44.675  64.879  1.00  0.00     0.166 HD
HETATM   35  N9  UNL     1      39.805 -44.051  64.666  1.00  0.00    -0.371 N 
HETATM   36  C29 UNL     1      39.741 -44.553  66.919  1.00  0.00     0.060 A 
ATOM     37  H9  UNL     1      38.809 -43.836  64.731  1.00  0.00     0.161 HD
BRANCH  35  38
HETATM   38  C24 UNL     1      40.473 -43.918  63.413  1.00  0.00     0.087 C 
HETATM   39  C25 UNL     1      39.517 -43.444  62.317  1.00  0.00     0.051 C 
HETATM   40  C26 UNL     1      40.333 -43.369  61.046  1.00  0.00     0.169 C 
HETATM   41  O2  UNL     1      41.438 -42.558  61.138  1.00  0.00    -0.391 OA
HETATM   42  C27 UNL     1      42.317 -42.974  62.145  1.00  0.00     0.169 C 
HETATM   43  C28 UNL     1      41.593 -42.876  63.454  1.00  0.00     0.051 C 
ENDBRANCH  35  38
ENDBRANCH   8  29
BRANCH   4  44
HETATM   44  N6  UNL     1      37.712 -45.268  73.009  1.00  0.00    -0.214 N 
HETATM   45  C14 UNL     1      38.512 -45.128  74.203  1.00  0.00     0.167 C 
HETATM   46  C15 UNL     1      37.776 -44.167  75.128  1.00  0.00     0.188 C 
HETATM   47  O1  UNL     1      36.795 -43.462  74.422  1.00  0.00    -0.388 OA
HETATM   48  C16 UNL     1      35.762 -44.293  74.035  1.00  0.00     0.188 C 
HETATM   49  C17 UNL     1      36.282 -45.405  73.154  1.00  0.00     0.167 C 
ENDBRANCH   4  44
TORSDOF 7
ENDMDL
MODEL 4
REMARK VINA RESULT: -8.459506398      1.092      1.247
REMARK  7 active torsions:
REMARK  status: ('A' for Active; 'I' for Inactive)
REMARK    1  A    between atoms: C2_2  and  C5_5 
REMARK    2  A    between atoms: C6_6  and  C7_7 
REMARK    3  A    between atoms: C8_10  and  N2_11 
REMARK    4  A    between atoms: N4_19  and  C12_20 
REMARK    5  A    between atoms: C13_23  and  N6_24 
REMARK    6  A    between atoms: C19_33  and  C20_34 
REMARK    7  A    between atoms: N9_40  and  C24_42 
ROOT
HETATM    1  C12 UNL     1      40.332 -45.945  63.614  1.00  0.00     0.132 A 
HETATM    2  N5  UNL     1      38.998 -46.244  63.363  1.00  0.00    -0.176 N 
ATOM      3  H5  UNL     1      38.615 -47.118  63.722  1.00  0.00     0.186 HD
HETATM    4  C13 UNL     1      38.204 -45.432  62.673  1.00  0.00     0.681 A 
HETATM    5  N7  UNL     1      38.691 -44.270  62.190  1.00  0.00    -0.201 N 
ATOM      6  H7  UNL     1      38.082 -43.647  61.659  1.00  0.00     0.183 HD
HETATM    7  C18 UNL     1      39.972 -43.929  62.404  1.00  0.00     0.122 A 
HETATM    8  C19 UNL     1      40.818 -44.786  63.137  1.00  0.00     0.035 A 
ENDROOT
BRANCH   1   9
HETATM    9  N4  UNL     1      41.113 -46.898  64.288  1.00  0.00    -0.356 N 
HETATM   10  C11 UNL     1      41.221 -46.880  65.775  1.00  0.00     0.168 C 
HETATM   11  C10 UNL     1      41.010 -48.331  66.039  1.00  0.00     0.021 A 
HETATM   12  C7  UNL     1      40.499 -48.928  67.184  1.00  0.00     0.113 A 
HETATM   13  C9  UNL     1      41.392 -49.065  64.942  1.00  0.00     0.055 A 
HETATM   14  N1  UNL     1      40.410 -50.270  67.138  1.00  0.00    -0.183 N 
HETATM   15  C8  UNL     1      40.786 -50.984  66.063  1.00  0.00     0.677 A 
ATOM     16  H1  UNL     1      40.042 -50.765  67.952  1.00  0.00     0.185 HD
HETATM   17  N3  UNL     1      41.277 -50.387  64.967  1.00  0.00    -0.193 N 
ATOM     18  H3  UNL     1      41.560 -50.944  64.160  1.00  0.00     0.184 HD
HETATM   19  C30 UNL     1      41.891 -48.047  63.941  1.00  0.00     0.183 C 
BRANCH  12  20
HETATM   20  C6  UNL     1      40.096 -48.181  68.338  1.00  0.00    -0.047 C 
HETATM   21  C5  UNL     1      39.775 -47.557  69.323  1.00  0.00    -0.091 C 
BRANCH  21  22
HETATM   22  C2  UNL     1      39.406 -46.801  70.534  1.00  0.00     0.013 C 
HETATM   23  C1  UNL     1      38.083 -47.259  71.085  1.00  0.00     0.028 C 
HETATM   24  C3  UNL     1      40.455 -47.037  71.631  1.00  0.00     0.028 C 
HETATM   25  C4  UNL     1      39.426 -45.339  70.217  1.00  0.00     0.028 C 
ENDBRANCH  21  22
ENDBRANCH  12  20
BRANCH  15  26
HETATM   26  N2  UNL     1      40.652 -52.279  66.137  1.00  0.00    -0.234 N 
ATOM     27  H22 UNL     1      41.412 -52.879  66.459  1.00  0.00     0.174 HD
ATOM     28  H21 UNL     1      39.750 -52.667  65.860  1.00  0.00     0.174 HD
ENDBRANCH  15  26
ENDBRANCH   1   9
BRANCH   8  29
HETATM   29  C20 UNL     1      42.169 -44.315  63.394  1.00  0.00    -0.016 A 
HETATM   30  C21 UNL     1      42.722 -44.536  64.636  1.00  0.00     0.029 A 
HETATM   31  C22 UNL     1      44.006 -44.150  64.880  1.00  0.00     0.090 A 
HETATM   32  N8  UNL     1      44.739 -43.551  63.908  1.00  0.00    -0.353 N 
HETATM   33  C23 UNL     1      44.252 -43.309  62.682  1.00  0.00     0.101 A 
ATOM     34  H8  UNL     1      45.697 -43.273  64.117  1.00  0.00     0.166 HD
HETATM   35  N9  UNL     1      44.916 -42.744  61.732  1.00  0.00    -0.371 N 
HETATM   36  C29 UNL     1      42.937 -43.705  62.434  1.00  0.00     0.060 A 
ATOM     37  H9  UNL     1      44.471 -42.597  60.826  1.00  0.00     0.161 HD
BRANCH  35  38
HETATM   38  C24 UNL     1      46.262 -42.319  61.933  1.00  0.00     0.087 C 
HETATM   39  C25 UNL     1      47.015 -42.200  60.607  1.00  0.00     0.051 C 
HETATM   40  C26 UNL     1      48.423 -41.773  60.955  1.00  0.00     0.169 C 
HETATM   41  O2  UNL     1      48.491 -40.610  61.681  1.00  0.00    -0.391 OA
HETATM   42  C27 UNL     1      47.798 -40.701  62.893  1.00  0.00     0.169 C 
HETATM   43  C28 UNL     1      46.351 -40.934  62.576  1.00  0.00     0.051 C 
ENDBRANCH  35  38
ENDBRANCH   8  29
BRANCH   4  44
HETATM   44  N6  UNL     1      36.839 -45.716  62.400  1.00  0.00    -0.214 N 
HETATM   45  C14 UNL     1      36.408 -47.095  62.412  1.00  0.00     0.167 C 
HETATM   46  C15 UNL     1      35.068 -47.142  63.135  1.00  0.00     0.188 C 
HETATM   47  O1  UNL     1      34.859 -45.962  63.856  1.00  0.00    -0.388 OA
HETATM   48  C16 UNL     1      34.661 -44.888  63.010  1.00  0.00     0.188 C 
HETATM   49  C17 UNL     1      35.860 -44.694  62.113  1.00  0.00     0.167 C 
ENDBRANCH   4  44
TORSDOF 7
ENDMDL
MODEL 5
REMARK VINA RESULT: -8.418545789      2.848      6.421
REMARK  7 active torsions:
REMARK  status: ('A' for Active; 'I' for Inactive)
REMARK    1  A    between atoms: C2_2  and  C5_5 
REMARK    2  A    between atoms: C6_6  and  C7_7 
REMARK    3  A    between atoms: C8_10  and  N2_11 
REMARK    4  A    between atoms: N4_19  and  C12_20 
REMARK    5  A    between atoms: C13_23  and  N6_24 
REMARK    6  A    between atoms: C19_33  and  C20_34 
REMARK    7  A    between atoms: N9_40  and  C24_42 
ROOT
HETATM    1  C12 UNL     1      39.918 -46.722  68.585  1.00  0.00     0.132 A 
HETATM    2  N5  UNL     1      39.459 -46.942  69.879  1.00  0.00    -0.176 N 
ATOM      3  H5  UNL     1      39.318 -47.901  70.194  1.00  0.00     0.186 HD
HETATM    4  C13 UNL     1      39.197 -45.946  70.720  1.00  0.00     0.681 A 
HETATM    5  N7  UNL     1      39.377 -44.669  70.323  1.00  0.00    -0.201 N 
ATOM      6  H7  UNL     1      39.176 -43.905  70.967  1.00  0.00     0.183 HD
HETATM    7  C18 UNL     1      39.821 -44.399  69.084  1.00  0.00     0.122 A 
HETATM    8  C19 UNL     1      40.102 -45.451  68.189  1.00  0.00     0.035 A 
ENDROOT
BRANCH   1   9
HETATM    9  N4  UNL     1      40.095 -47.834  67.744  1.00  0.00    -0.356 N 
HETATM   10  C11 UNL     1      39.098 -48.151  66.683  1.00  0.00     0.168 C 
HETATM   11  C10 UNL     1      40.035 -48.403  65.554  1.00  0.00     0.021 A 
HETATM   12  C7  UNL     1      39.796 -48.260  64.193  1.00  0.00     0.113 A 
HETATM   13  C9  UNL     1      41.253 -48.812  66.040  1.00  0.00     0.055 A 
HETATM   14  N1  UNL     1      40.840 -48.550  63.395  1.00  0.00    -0.183 N 
HETATM   15  C8  UNL     1      42.030 -48.950  63.876  1.00  0.00     0.677 A 
ATOM     16  H1  UNL     1      40.723 -48.464  62.385  1.00  0.00     0.185 HD
HETATM   17  N3  UNL     1      42.240 -49.083  65.194  1.00  0.00    -0.193 N 
ATOM     18  H3  UNL     1      43.148 -49.389  65.543  1.00  0.00     0.184 HD
HETATM   19  C30 UNL     1      41.086 -48.846  67.544  1.00  0.00     0.183 C 
BRANCH  12  20
HETATM   20  C6  UNL     1      38.533 -47.837  63.665  1.00  0.00    -0.047 C 
HETATM   21  C5  UNL     1      37.477 -47.475  63.200  1.00  0.00    -0.091 C 
BRANCH  21  22
HETATM   22  C2  UNL     1      36.200 -47.032  62.611  1.00  0.00     0.013 C 
HETATM   23  C1  UNL     1      35.055 -47.232  63.566  1.00  0.00     0.028 C 
HETATM   24  C3  UNL     1      36.268 -45.528  62.300  1.00  0.00     0.028 C 
HETATM   25  C4  UNL     1      35.998 -47.738  61.308  1.00  0.00     0.028 C 
ENDBRANCH  21  22
ENDBRANCH  12  20
BRANCH  15  26
HETATM   26  N2  UNL     1      42.965 -49.203  63.004  1.00  0.00    -0.234 N 
ATOM     27  H22 UNL     1      43.043 -48.677  62.133  1.00  0.00     0.174 HD
ATOM     28  H21 UNL     1      43.621 -49.950  63.233  1.00  0.00     0.174 HD
ENDBRANCH  15  26
ENDBRANCH   1   9
BRANCH   8  29
HETATM   29  C20 UNL     1      40.651 -45.084  66.894  1.00  0.00    -0.016 A 
HETATM   30  C21 UNL     1      39.817 -44.503  65.964  1.00  0.00     0.029 A 
HETATM   31  C22 UNL     1      40.323 -44.102  64.763  1.00  0.00     0.090 A 
HETATM   32  N8  UNL     1      41.640 -44.272  64.483  1.00  0.00    -0.353 N 
HETATM   33  C23 UNL     1      42.496 -44.831  65.350  1.00  0.00     0.101 A 
ATOM     34  H8  UNL     1      41.992 -43.961  63.578  1.00  0.00     0.166 HD
HETATM   35  N9  UNL     1      43.753 -45.009  65.122  1.00  0.00    -0.371 N 
HETATM   36  C29 UNL     1      41.976 -45.241  66.578  1.00  0.00     0.060 A 
ATOM     37  H9  UNL     1      44.338 -45.442  65.836  1.00  0.00     0.161 HD
BRANCH  35  38
HETATM   38  C24 UNL     1      44.335 -44.608  63.883  1.00  0.00     0.087 C 
HETATM   39  C25 UNL     1      45.405 -43.534  64.089  1.00  0.00     0.051 C 
HETATM   40  C26 UNL     1      45.920 -43.180  62.713  1.00  0.00     0.169 C 
HETATM   41  O2  UNL     1      46.409 -44.250  62.006  1.00  0.00    -0.391 OA
HETATM   42  C27 UNL     1      45.443 -45.246  61.818  1.00  0.00     0.169 C 
HETATM   43  C28 UNL     1      45.047 -45.759  63.170  1.00  0.00     0.051 C 
ENDBRANCH  35  38
ENDBRANCH   8  29
BRANCH   4  44
HETATM   44  N6  UNL     1      38.724 -46.144  72.045  1.00  0.00    -0.214 N 
HETATM   45  C14 UNL     1      39.660 -46.003  73.136  1.00  0.00     0.167 C 
HETATM   46  C15 UNL     1      38.950 -45.229  74.240  1.00  0.00     0.188 C 
HETATM   47  O1  UNL     1      37.805 -44.600  73.740  1.00  0.00    -0.388 OA
HETATM   48  C16 UNL     1      36.834 -45.524  73.404  1.00  0.00     0.188 C 
HETATM   49  C17 UNL     1      37.354 -46.478  72.354  1.00  0.00     0.167 C 
ENDBRANCH   4  44
TORSDOF 7
ENDMDL
