MODEL 1
REMARK VINA RESULT: -7.252933892      0.000      0.000
REMARK  7 active torsions:
REMARK  status: ('A' for Active; 'I' for Inactive)
REMARK    1  A    between atoms: N4_6  and  C2_7 
REMARK    2  A    between atoms: C5_10  and  N5_11 
REMARK    3  A    between atoms: N5_11  and  O1_12 
REMARK    4  A    between atoms: C6_15  and  C7_16 
REMARK    5  A    between atoms: C7_16  and  N6_17 
REMARK    6  A    between atoms: N6_17  and  N7_18 
REMARK    7  A    between atoms: N7_18  and  N8_19 
REMARK       I    between atoms: N8_19  and  C8_21 
REMARK       I    between atoms: C8_21  and  N9_23 
ROOT
HETATM    1  N1  UNL     1      42.914  35.111  55.422  1.00  0.00    -0.079 NA
HETATM    2  C1  UNL     1      41.855  34.862  56.363  1.00  0.00     0.160 A 
HETATM    3  N2  UNL     1      40.562  34.757  56.257  1.00  0.00    -0.269 N 
ATOM      4  H2  UNL     1      40.037  34.836  55.386  1.00  0.00     0.185 HD
HETATM    5  N3  UNL     1      40.019  34.530  57.466  1.00  0.00    -0.016 NA
HETATM    6  N4  UNL     1      41.027  34.495  58.399  1.00  0.00    -0.241 N 
HETATM    7  C6  UNL     1      42.145  34.696  57.719  1.00  0.00     0.126 A 
ENDROOT
BRANCH   7   8
HETATM    8  C7  UNL     1      43.468  34.580  58.298  1.00  0.00     0.261 C 
BRANCH   8   9
HETATM    9  N6  UNL     1      44.083  35.422  58.848  1.00  0.00    -0.239 NA
BRANCH   9  10
HETATM   10  N7  UNL     1      44.728  36.347  59.452  1.00  0.00    -0.151 NA
BRANCH  10  11
HETATM   11  N8  UNL     1      45.393  37.297  60.067  1.00  0.00    -0.152 N 
HETATM   12  C8  UNL     1      46.037  38.489  59.820  1.00  0.00     0.349 C 
HETATM   13  O3  UNL     1      46.102  38.984  58.679  1.00  0.00    -0.244 OA
HETATM   14  N9  UNL     1      46.647  39.164  60.962  1.00  0.00    -0.328 N 
HETATM   15  C9  UNL     1      46.502  38.573  62.253  1.00  0.00     0.153 C 
HETATM   16  C12 UNL     1      47.374  40.356  60.752  1.00  0.00     0.153 C 
HETATM   17  C10 UNL     1      46.829  39.481  63.399  1.00  0.00     0.187 C 
HETATM   18  O4  UNL     1      46.607  40.784  63.006  1.00  0.00    -0.388 OA
HETATM   19  C11 UNL     1      47.630  41.079  62.080  1.00  0.00     0.187 C 
ATOM     20  H8  UNL     1      45.453  37.078  61.062  1.00  0.00     0.210 HD
ENDBRANCH  10  11
ENDBRANCH   9  10
ENDBRANCH   8   9
ENDBRANCH   7   8
BRANCH   6  21
HETATM   21  C2  UNL     1      40.721  34.258  59.745  1.00  0.00     0.245 C 
HETATM   22  C3  UNL     1      39.428  33.707  60.202  1.00  0.00     0.059 C 
HETATM   23  C4  UNL     1      39.904  33.429  61.675  1.00  0.00     0.056 C 
HETATM   24  C5  UNL     1      40.725  34.663  61.858  1.00  0.00     0.244 C 
HETATM   25  O2  UNL     1      40.862  35.312  60.629  1.00  0.00    -0.342 OA
BRANCH  24  26
HETATM   26  N5  UNL     1      40.011  35.527  62.802  1.00  0.00    -0.071 NA
BRANCH  26  27
HETATM   27  O1  UNL     1      40.691  36.684  62.949  1.00  0.00    -0.294 OA
ATOM     28  H1  UNL     1      40.140  37.409  62.676  1.00  0.00     0.238 HD
ENDBRANCH  26  27
ENDBRANCH  24  26
ENDBRANCH   6  21
TORSDOF 7
ENDMDL
MODEL 2
REMARK VINA RESULT: -7.110458147      4.299      6.722
REMARK  7 active torsions:
REMARK  status: ('A' for Active; 'I' for Inactive)
REMARK    1  A    between atoms: N4_6  and  C2_7 
REMARK    2  A    between atoms: C5_10  and  N5_11 
REMARK    3  A    between atoms: N5_11  and  O1_12 
REMARK    4  A    between atoms: C6_15  and  C7_16 
REMARK    5  A    between atoms: C7_16  and  N6_17 
REMARK    6  A    between atoms: N6_17  and  N7_18 
REMARK    7  A    between atoms: N7_18  and  N8_19 
REMARK       I    between atoms: N8_19  and  C8_21 
REMARK       I    between atoms: C8_21  and  N9_23 
ROOT
HETATM    1  N1  UNL     1      43.959  36.532  62.464  1.00  0.00    -0.079 NA
HETATM    2  C1  UNL     1      42.955  36.219  61.484  1.00  0.00     0.160 A 
HETATM    3  N2  UNL     1      41.695  35.899  61.554  1.00  0.00    -0.269 N 
ATOM      4  H2  UNL     1      41.159  35.820  62.419  1.00  0.00     0.185 HD
HETATM    5  N3  UNL     1      41.205  35.687  60.321  1.00  0.00    -0.016 NA
HETATM    6  N4  UNL     1      42.216  35.876  59.409  1.00  0.00    -0.241 N 
HETATM    7  C6  UNL     1      43.280  36.202  60.125  1.00  0.00     0.126 A 
ENDROOT
BRANCH   7   8
HETATM    8  C7  UNL     1      44.533  36.642  59.546  1.00  0.00     0.261 C 
BRANCH   8   9
HETATM    9  N6  UNL     1      45.249  36.027  58.839  1.00  0.00    -0.239 NA
BRANCH   9  10
HETATM   10  N7  UNL     1      46.012  35.369  58.052  1.00  0.00    -0.151 NA
BRANCH  10  11
HETATM   11  N8  UNL     1      46.794  34.689  57.247  1.00  0.00    -0.152 N 
HETATM   12  C8  UNL     1      46.760  33.658  56.335  1.00  0.00     0.349 C 
HETATM   13  O3  UNL     1      45.707  33.056  56.052  1.00  0.00    -0.244 OA
HETATM   14  N9  UNL     1      48.022  33.292  55.697  1.00  0.00    -0.328 N 
HETATM   15  C9  UNL     1      49.188  34.045  56.025  1.00  0.00     0.153 C 
HETATM   16  C12 UNL     1      48.053  32.200  54.803  1.00  0.00     0.153 C 
HETATM   17  C10 UNL     1      50.341  33.857  55.087  1.00  0.00     0.187 C 
HETATM   18  O4  UNL     1      49.848  33.509  53.848  1.00  0.00    -0.388 OA
HETATM   19  C11 UNL     1      49.355  32.195  53.993  1.00  0.00     0.187 C 
ATOM     20  H8  UNL     1      47.749  35.043  57.324  1.00  0.00     0.210 HD
ENDBRANCH  10  11
ENDBRANCH   9  10
ENDBRANCH   8   9
ENDBRANCH   7   8
BRANCH   6  21
HETATM   21  C2  UNL     1      41.956  35.726  58.042  1.00  0.00     0.245 C 
HETATM   22  C3  UNL     1      40.596  35.587  57.481  1.00  0.00     0.059 C 
HETATM   23  C4  UNL     1      41.038  35.784  55.984  1.00  0.00     0.056 C 
HETATM   24  C5  UNL     1      42.311  35.006  56.045  1.00  0.00     0.244 C 
HETATM   25  O2  UNL     1      42.600  34.698  57.376  1.00  0.00    -0.342 OA
BRANCH  24  26
HETATM   26  N5  UNL     1      42.108  33.772  55.281  1.00  0.00    -0.071 NA
BRANCH  26  27
HETATM   27  O1  UNL     1      42.872  32.791  55.804  1.00  0.00    -0.294 OA
ATOM     28  H1  UNL     1      42.716  31.984  55.329  1.00  0.00     0.238 HD
ENDBRANCH  26  27
ENDBRANCH  24  26
ENDBRANCH   6  21
TORSDOF 7
ENDMDL
MODEL 3
REMARK VINA RESULT: -7.027070593      3.865      5.956
REMARK  7 active torsions:
REMARK  status: ('A' for Active; 'I' for Inactive)
REMARK    1  A    between atoms: N4_6  and  C2_7 
REMARK    2  A    between atoms: C5_10  and  N5_11 
REMARK    3  A    between atoms: N5_11  and  O1_12 
REMARK    4  A    between atoms: C6_15  and  C7_16 
REMARK    5  A    between atoms: C7_16  and  N6_17 
REMARK    6  A    between atoms: N6_17  and  N7_18 
REMARK    7  A    between atoms: N7_18  and  N8_19 
REMARK       I    between atoms: N8_19  and  C8_21 
REMARK       I    between atoms: C8_21  and  N9_23 
ROOT
HETATM    1  N1  UNL     1      39.758  36.174  56.679  1.00  0.00    -0.079 NA
HETATM    2  C1  UNL     1      41.057  35.649  56.358  1.00  0.00     0.160 A 
HETATM    3  N2  UNL     1      41.948  35.940  55.454  1.00  0.00    -0.269 N 
ATOM      4  H2  UNL     1      41.855  36.679  54.756  1.00  0.00     0.185 HD
HETATM    5  N3  UNL     1      43.009  35.124  55.575  1.00  0.00    -0.016 NA
HETATM    6  N4  UNL     1      42.776  34.255  56.614  1.00  0.00    -0.241 N 
HETATM    7  C6  UNL     1      41.585  34.583  57.089  1.00  0.00     0.126 A 
ENDROOT
BRANCH   7   8
HETATM    8  C7  UNL     1      41.019  34.017  58.297  1.00  0.00     0.261 C 
BRANCH   8   9
HETATM    9  N6  UNL     1      41.214  34.363  59.407  1.00  0.00    -0.239 NA
BRANCH   9  10
HETATM   10  N7  UNL     1      41.447  34.723  60.611  1.00  0.00    -0.151 NA
BRANCH  10  11
HETATM   11  N8  UNL     1      41.689  35.097  61.846  1.00  0.00    -0.152 N 
HETATM   12  C8  UNL     1      42.050  36.205  62.580  1.00  0.00     0.349 C 
HETATM   13  O3  UNL     1      42.250  37.315  62.052  1.00  0.00    -0.244 OA
HETATM   14  N9  UNL     1      42.188  36.030  64.023  1.00  0.00    -0.328 N 
HETATM   15  C9  UNL     1      41.902  34.747  64.579  1.00  0.00     0.153 C 
HETATM   16  C12 UNL     1      42.619  37.118  64.813  1.00  0.00     0.153 C 
HETATM   17  C10 UNL     1      41.716  34.734  66.065  1.00  0.00     0.187 C 
HETATM   18  O4  UNL     1      41.269  35.977  66.463  1.00  0.00    -0.388 OA
HETATM   19  C11 UNL     1      42.370  36.844  66.301  1.00  0.00     0.187 C 
ATOM     20  H8  UNL     1      41.570  34.300  62.471  1.00  0.00     0.210 HD
ENDBRANCH  10  11
ENDBRANCH   9  10
ENDBRANCH   8   9
ENDBRANCH   7   8
BRANCH   6  21
HETATM   21  C2  UNL     1      43.745  33.303  56.955  1.00  0.00     0.245 C 
HETATM   22  C3  UNL     1      45.155  33.641  57.240  1.00  0.00     0.059 C 
HETATM   23  C4  UNL     1      45.525  32.228  57.824  1.00  0.00     0.056 C 
HETATM   24  C5  UNL     1      44.744  31.400  56.858  1.00  0.00     0.244 C 
HETATM   25  O2  UNL     1      43.921  32.232  56.097  1.00  0.00    -0.342 OA
BRANCH  24  26
HETATM   26  N5  UNL     1      45.706  30.718  55.988  1.00  0.00    -0.071 NA
BRANCH  26  27
HETATM   27  O1  UNL     1      45.045  29.875  55.167  1.00  0.00    -0.294 OA
ATOM     28  H1  UNL     1      45.509  29.047  55.128  1.00  0.00     0.238 HD
ENDBRANCH  26  27
ENDBRANCH  24  26
ENDBRANCH   6  21
TORSDOF 7
ENDMDL
MODEL 4
REMARK VINA RESULT: -6.999378139      2.044      3.921
REMARK  7 active torsions:
REMARK  status: ('A' for Active; 'I' for Inactive)
REMARK    1  A    between atoms: N4_6  and  C2_7 
REMARK    2  A    between atoms: C5_10  and  N5_11 
REMARK    3  A    between atoms: N5_11  and  O1_12 
REMARK    4  A    between atoms: C6_15  and  C7_16 
REMARK    5  A    between atoms: C7_16  and  N6_17 
REMARK    6  A    between atoms: N6_17  and  N7_18 
REMARK    7  A    between atoms: N7_18  and  N8_19 
REMARK       I    between atoms: N8_19  and  C8_21 
REMARK       I    between atoms: C8_21  and  N9_23 
ROOT
HETATM    1  N1  UNL     1      41.295  32.266  62.570  1.00  0.00    -0.079 NA
HETATM    2  C1  UNL     1      40.757  32.954  61.428  1.00  0.00     0.160 A 
HETATM    3  N2  UNL     1      39.548  33.218  61.021  1.00  0.00    -0.269 N 
ATOM      4  H2  UNL     1      38.694  32.953  61.513  1.00  0.00     0.185 HD
HETATM    5  N3  UNL     1      39.590  33.890  59.858  1.00  0.00    -0.016 NA
HETATM    6  N4  UNL     1      40.906  34.059  59.498  1.00  0.00    -0.241 N 
HETATM    7  C6  UNL     1      41.612  33.488  60.461  1.00  0.00     0.126 A 
ENDROOT
BRANCH   7   8
HETATM    8  C7  UNL     1      43.055  33.574  60.557  1.00  0.00     0.261 C 
BRANCH   8   9
HETATM    9  N6  UNL     1      43.705  34.549  60.683  1.00  0.00    -0.239 NA
BRANCH   9  10
HETATM   10  N7  UNL     1      44.391  35.618  60.834  1.00  0.00    -0.151 NA
BRANCH  10  11
HETATM   11  N8  UNL     1      45.098  36.712  60.992  1.00  0.00    -0.152 N 
HETATM   12  C8  UNL     1      45.791  37.657  60.268  1.00  0.00     0.349 C 
HETATM   13  O3  UNL     1      45.871  37.614  59.025  1.00  0.00    -0.244 OA
HETATM   14  N9  UNL     1      46.435  38.731  61.019  1.00  0.00    -0.328 N 
HETATM   15  C9  UNL     1      46.272  38.755  62.436  1.00  0.00     0.153 C 
HETATM   16  C12 UNL     1      47.211  39.687  60.329  1.00  0.00     0.153 C 
HETATM   17  C10 UNL     1      46.645  40.052  63.088  1.00  0.00     0.187 C 
HETATM   18  O4  UNL     1      46.476  41.069  62.173  1.00  0.00    -0.388 OA
HETATM   19  C11 UNL     1      47.505  40.897  61.224  1.00  0.00     0.187 C 
ATOM     20  H8  UNL     1      45.154  36.938  61.986  1.00  0.00     0.210 HD
ENDBRANCH  10  11
ENDBRANCH   9  10
ENDBRANCH   8   9
ENDBRANCH   7   8
BRANCH   6  21
HETATM   21  C2  UNL     1      41.221  34.747  58.319  1.00  0.00     0.245 C 
HETATM   22  C3  UNL     1      40.243  35.013  57.245  1.00  0.00     0.059 C 
HETATM   23  C4  UNL     1      41.157  36.031  56.469  1.00  0.00     0.056 C 
HETATM   24  C5  UNL     1      42.455  35.317  56.651  1.00  0.00     0.244 C 
HETATM   25  O2  UNL     1      42.285  34.278  57.569  1.00  0.00    -0.342 OA
BRANCH  24  26
HETATM   26  N5  UNL     1      42.843  34.772  55.347  1.00  0.00    -0.071 NA
BRANCH  26  27
HETATM   27  O1  UNL     1      42.436  33.488  55.261  1.00  0.00    -0.294 OA
ATOM     28  H1  UNL     1      41.533  33.424  55.550  1.00  0.00     0.238 HD
ENDBRANCH  26  27
ENDBRANCH  24  26
ENDBRANCH   6  21
TORSDOF 7
ENDMDL
MODEL 5
REMARK VINA RESULT: -6.965592301      4.758      6.753
REMARK  7 active torsions:
REMARK  status: ('A' for Active; 'I' for Inactive)
REMARK    1  A    between atoms: N4_6  and  C2_7 
REMARK    2  A    between atoms: C5_10  and  N5_11 
REMARK    3  A    between atoms: N5_11  and  O1_12 
REMARK    4  A    between atoms: C6_15  and  C7_16 
REMARK    5  A    between atoms: C7_16  and  N6_17 
REMARK    6  A    between atoms: N6_17  and  N7_18 
REMARK    7  A    between atoms: N7_18  and  N8_19 
REMARK       I    between atoms: N8_19  and  C8_21 
REMARK       I    between atoms: C8_21  and  N9_23 
ROOT
HETATM    1  N1  UNL     1      41.965  32.580  62.703  1.00  0.00    -0.079 NA
HETATM    2  C1  UNL     1      41.633  33.716  61.887  1.00  0.00     0.160 A 
HETATM    3  N2  UNL     1      41.260  34.936  62.150  1.00  0.00    -0.269 N 
ATOM      4  H2  UNL     1      41.139  35.322  63.086  1.00  0.00     0.185 HD
HETATM    5  N3  UNL     1      41.057  35.611  61.005  1.00  0.00    -0.016 NA
HETATM    6  N4  UNL     1      41.310  34.768  59.949  1.00  0.00    -0.241 N 
HETATM    7  C6  UNL     1      41.663  33.615  60.495  1.00  0.00     0.126 A 
ENDROOT
BRANCH   7   8
HETATM    8  C7  UNL     1      42.168  32.489  59.735  1.00  0.00     0.261 C 
BRANCH   8   9
HETATM    9  N6  UNL     1      43.104  32.474  59.018  1.00  0.00    -0.239 NA
BRANCH   9  10
HETATM   10  N7  UNL     1      44.121  32.484  58.242  1.00  0.00    -0.151 NA
BRANCH  10  11
HETATM   11  N8  UNL     1      45.167  32.498  57.450  1.00  0.00    -0.152 N 
HETATM   12  C8  UNL     1      45.622  31.968  56.264  1.00  0.00     0.349 C 
HETATM   13  O3  UNL     1      44.931  31.195  55.573  1.00  0.00    -0.244 OA
HETATM   14  N9  UNL     1      46.964  32.353  55.834  1.00  0.00    -0.328 N 
HETATM   15  C9  UNL     1      47.692  33.277  56.642  1.00  0.00     0.153 C 
HETATM   16  C12 UNL     1      47.502  31.787  54.659  1.00  0.00     0.153 C 
HETATM   17  C10 UNL     1      48.883  33.893  55.973  1.00  0.00     0.187 C 
HETATM   18  O4  UNL     1      48.663  33.908  54.612  1.00  0.00    -0.388 OA
HETATM   19  C11 UNL     1      48.744  32.561  54.201  1.00  0.00     0.187 C 
ATOM     20  H8  UNL     1      45.884  33.106  57.848  1.00  0.00     0.210 HD
ENDBRANCH  10  11
ENDBRANCH   9  10
ENDBRANCH   8   9
ENDBRANCH   7   8
BRANCH   6  21
HETATM   21  C2  UNL     1      41.181  35.239  58.637  1.00  0.00     0.245 C 
HETATM   22  C3  UNL     1      40.254  34.652  57.647  1.00  0.00     0.059 C 
HETATM   23  C4  UNL     1      40.406  35.817  56.601  1.00  0.00     0.056 C 
HETATM   24  C5  UNL     1      41.873  36.047  56.766  1.00  0.00     0.244 C 
HETATM   25  O2  UNL     1      42.330  35.327  57.872  1.00  0.00    -0.342 OA
BRANCH  24  26
HETATM   26  N5  UNL     1      42.531  35.564  55.549  1.00  0.00    -0.071 NA
BRANCH  26  27
HETATM   27  O1  UNL     1      43.575  34.780  55.888  1.00  0.00    -0.294 OA
ATOM     28  H1  UNL     1      43.262  34.041  56.396  1.00  0.00     0.238 HD
ENDBRANCH  26  27
ENDBRANCH  24  26
ENDBRANCH   6  21
TORSDOF 7
ENDMDL
