MODEL 1
REMARK VINA RESULT: -7.651795809      0.000      0.000
REMARK  6 active torsions:
REMARK  status: ('A' for Active; 'I' for Inactive)
REMARK       I    between atoms: N1_2  and  C2_4 
REMARK    1  A    between atoms: C2_4  and  C3_6 
REMARK    2  A    between atoms: C6_11  and  C7_12 
REMARK    3  A    between atoms: C7_12  and  N3_13 
REMARK    4  A    between atoms: C7_12  and  C8_17 
REMARK    5  A    between atoms: C9_20  and  C10_21 
REMARK    6  A    between atoms: C12_32  and  N10_33 
ROOT
HETATM    1  C8  UNL     1      42.264  35.583  58.692  1.00  0.00     0.085 A 
HETATM    2  N4  UNL     1      43.324  34.864  58.240  1.00  0.00    -0.349 N 
ATOM      3  H4  UNL     1      44.155  34.841  58.831  1.00  0.00     0.166 HD
HETATM    4  C9  UNL     1      43.376  34.191  57.104  1.00  0.00     0.121 A 
HETATM    5  C11 UNL     1      42.244  34.216  56.303  1.00  0.00     0.148 A 
HETATM    6  N8  UNL     1      42.271  33.493  55.092  1.00  0.00    -0.080 NA
HETATM    7  N9  UNL     1      41.168  34.907  56.694  1.00  0.00    -0.328 N 
ATOM      8  H9  UNL     1      40.339  34.923  56.102  1.00  0.00     0.168 HD
HETATM    9  C12 UNL     1      41.163  35.597  57.885  1.00  0.00     0.125 A 
ENDROOT
BRANCH   1  10
HETATM   10  C7  UNL     1      42.420  36.503  59.886  1.00  0.00     0.242 C 
BRANCH  10  11
HETATM   11  C6  UNL     1      42.210  35.858  61.190  1.00  0.00     0.040 C 
HETATM   12  C5  UNL     1      41.252  34.777  61.399  1.00  0.00     0.120 C 
HETATM   13  N2  UNL     1      41.067  34.549  62.838  1.00  0.00    -0.420 N 
HETATM   14  C4  UNL     1      42.219  34.746  63.632  1.00  0.00     0.127 C 
ATOM     15  H2  UNL     1      40.170  34.269  63.236  1.00  0.00     0.153 HD
HETATM   16  C3  UNL     1      42.929  36.060  63.482  1.00  0.00     0.095 C 
HETATM   17  C13 UNL     1      42.371  36.875  62.328  1.00  0.00     0.024 C 
BRANCH  16  18
HETATM   18  C2  UNL     1      42.984  36.791  64.746  1.00  0.00     0.223 C 
HETATM   19  N1  UNL     1      42.976  38.211  64.763  1.00  0.00    -0.365 N 
HETATM   20  C1  UNL     1      43.046  38.934  66.012  1.00  0.00     0.149 C 
ATOM     21  H1  UNL     1      42.921  38.726  63.884  1.00  0.00     0.161 HD
HETATM   22  O1  UNL     1      43.046  36.200  65.855  1.00  0.00    -0.273 OA
ENDBRANCH  16  18
ENDBRANCH  10  11
BRANCH  10  23
HETATM   23  N3  UNL     1      44.016  36.522  59.849  1.00  0.00    -0.069 N 
ATOM     24  H33 UNL     1      44.475  35.612  59.880  1.00  0.00     0.275 HD
ATOM     25  H32 UNL     1      44.440  36.794  58.961  1.00  0.00     0.275 HD
ATOM     26  H31 UNL     1      44.198  37.142  60.639  1.00  0.00     0.275 HD
ENDBRANCH  10  23
ENDBRANCH   1  10
BRANCH   9  27
HETATM   27  N10 UNL     1      40.147  36.234  58.244  1.00  0.00    -0.384 N 
ATOM     28 2H10 UNL     1      39.910  37.122  57.801  1.00  0.00     0.157 HD
ATOM     29 1H10 UNL     1      39.552  35.852  58.979  1.00  0.00     0.157 HD
ENDBRANCH   9  27
BRANCH   4  30
HETATM   30  C10 UNL     1      44.617  33.562  56.628  1.00  0.00     0.171 A 
HETATM   31  N5  UNL     1      44.902  32.289  56.406  1.00  0.00    -0.258 N 
HETATM   32  N6  UNL     1      46.143  32.255  55.931  1.00  0.00     0.049 NA
ATOM     33  H5  UNL     1      44.290  31.490  56.568  1.00  0.00     0.186 HD
HETATM   34  O2  UNL     1      46.640  33.432  55.850  1.00  0.00    -0.141 OA
HETATM   35  N7  UNL     1      45.733  34.259  56.268  1.00  0.00    -0.224 N 
ATOM     36  H7  UNL     1      45.838  35.272  56.321  1.00  0.00     0.198 HD
ENDBRANCH   4  30
TORSDOF 6
ENDMDL
MODEL 2
REMARK VINA RESULT: -7.534617271      1.636      1.736
REMARK  6 active torsions:
REMARK  status: ('A' for Active; 'I' for Inactive)
REMARK       I    between atoms: N1_2  and  C2_4 
REMARK    1  A    between atoms: C2_4  and  C3_6 
REMARK    2  A    between atoms: C6_11  and  C7_12 
REMARK    3  A    between atoms: C7_12  and  N3_13 
REMARK    4  A    between atoms: C7_12  and  C8_17 
REMARK    5  A    between atoms: C9_20  and  C10_21 
REMARK    6  A    between atoms: C12_32  and  N10_33 
ROOT
HETATM    1  C8  UNL     1      42.220  34.937  59.202  1.00  0.00     0.085 A 
HETATM    2  N4  UNL     1      43.065  34.065  58.592  1.00  0.00    -0.349 N 
ATOM      3  H4  UNL     1      43.798  33.650  59.166  1.00  0.00     0.166 HD
HETATM    4  C9  UNL     1      43.022  33.706  57.320  1.00  0.00     0.121 A 
HETATM    5  C11 UNL     1      42.020  34.264  56.541  1.00  0.00     0.148 A 
HETATM    6  N8  UNL     1      41.946  33.885  55.184  1.00  0.00    -0.080 NA
HETATM    7  N9  UNL     1      41.158  35.129  57.085  1.00  0.00    -0.328 N 
ATOM      8  H9  UNL     1      40.424  35.538  56.507  1.00  0.00     0.168 HD
HETATM    9  C12 UNL     1      41.246  35.477  58.413  1.00  0.00     0.125 A 
ENDROOT
BRANCH   1  10
HETATM   10  C7  UNL     1      42.527  35.447  60.595  1.00  0.00     0.242 C 
BRANCH  10  11
HETATM   11  C6  UNL     1      41.931  34.659  61.683  1.00  0.00     0.040 C 
HETATM   12  C5  UNL     1      40.928  33.622  61.459  1.00  0.00     0.120 C 
HETATM   13  N2  UNL     1      40.325  33.230  62.739  1.00  0.00    -0.420 N 
HETATM   14  C4  UNL     1      41.198  33.255  63.849  1.00  0.00     0.127 C 
ATOM     15  H2  UNL     1      39.345  32.958  62.821  1.00  0.00     0.153 HD
HETATM   16  C3  UNL     1      41.951  34.531  64.091  1.00  0.00     0.095 C 
HETATM   17  C13 UNL     1      41.774  35.516  62.948  1.00  0.00     0.024 C 
BRANCH  16  18
HETATM   18  C2  UNL     1      41.650  35.095  65.405  1.00  0.00     0.223 C 
HETATM   19  N1  UNL     1      42.327  34.630  66.564  1.00  0.00    -0.365 N 
HETATM   20  C1  UNL     1      42.019  35.177  67.866  1.00  0.00     0.149 C 
ATOM     21  H1  UNL     1      43.036  33.903  66.477  1.00  0.00     0.161 HD
HETATM   22  O1  UNL     1      40.788  35.997  65.561  1.00  0.00    -0.273 OA
ENDBRANCH  16  18
ENDBRANCH  10  11
BRANCH  10  23
HETATM   23  N3  UNL     1      44.018  34.875  60.636  1.00  0.00    -0.069 N 
ATOM     24  H33 UNL     1      44.106  33.868  60.772  1.00  0.00     0.275 HD
ATOM     25  H32 UNL     1      44.523  34.879  59.750  1.00  0.00     0.275 HD
ATOM     26  H31 UNL     1      44.406  35.462  61.375  1.00  0.00     0.275 HD
ENDBRANCH  10  23
ENDBRANCH   1  10
BRANCH   9  27
HETATM   27  N10 UNL     1      40.428  36.282  58.914  1.00  0.00    -0.384 N 
ATOM     28 2H10 UNL     1      40.712  36.905  59.669  1.00  0.00     0.157 HD
ATOM     29 1H10 UNL     1      39.475  36.316  58.552  1.00  0.00     0.157 HD
ENDBRANCH   9  27
BRANCH   4  30
HETATM   30  C10 UNL     1      44.067  32.869  56.712  1.00  0.00     0.171 A 
HETATM   31  N5  UNL     1      43.992  31.666  56.166  1.00  0.00    -0.258 N 
HETATM   32  N6  UNL     1      45.208  31.377  55.716  1.00  0.00     0.049 NA
ATOM     33  H5  UNL     1      43.163  31.077  56.103  1.00  0.00     0.186 HD
HETATM   34  O2  UNL     1      46.030  32.330  55.955  1.00  0.00    -0.141 OA
HETATM   35  N7  UNL     1      45.365  33.261  56.565  1.00  0.00    -0.224 N 
ATOM     36  H7  UNL     1      45.752  34.149  56.885  1.00  0.00     0.198 HD
ENDBRANCH   4  30
TORSDOF 6
ENDMDL
MODEL 3
REMARK VINA RESULT: -7.501686454      3.170      4.251
REMARK  6 active torsions:
REMARK  status: ('A' for Active; 'I' for Inactive)
REMARK       I    between atoms: N1_2  and  C2_4 
REMARK    1  A    between atoms: C2_4  and  C3_6 
REMARK    2  A    between atoms: C6_11  and  C7_12 
REMARK    3  A    between atoms: C7_12  and  N3_13 
REMARK    4  A    between atoms: C7_12  and  C8_17 
REMARK    5  A    between atoms: C9_20  and  C10_21 
REMARK    6  A    between atoms: C12_32  and  N10_33 
ROOT
HETATM    1  C8  UNL     1      41.746  35.214  61.083  1.00  0.00     0.085 A 
HETATM    2  N4  UNL     1      42.148  35.316  59.789  1.00  0.00    -0.349 N 
ATOM      3  H4  UNL     1      43.085  35.680  59.622  1.00  0.00     0.166 HD
HETATM    4  C9  UNL     1      41.432  34.987  58.727  1.00  0.00     0.121 A 
HETATM    5  C11 UNL     1      40.159  34.486  58.955  1.00  0.00     0.148 A 
HETATM    6  N8  UNL     1      39.382  34.115  57.838  1.00  0.00    -0.080 NA
HETATM    7  N9  UNL     1      39.708  34.362  60.208  1.00  0.00    -0.328 N 
ATOM      8  H9  UNL     1      38.771  33.994  60.370  1.00  0.00     0.168 HD
HETATM    9  C12 UNL     1      40.488  34.723  61.282  1.00  0.00     0.125 A 
ENDROOT
BRANCH   1  10
HETATM   10  C7  UNL     1      42.564  35.851  62.187  1.00  0.00     0.242 C 
BRANCH  10  11
HETATM   11  C6  UNL     1      43.988  36.033  61.871  1.00  0.00     0.040 C 
HETATM   12  C5  UNL     1      45.032  35.134  62.353  1.00  0.00     0.120 C 
HETATM   13  N2  UNL     1      46.352  35.735  62.118  1.00  0.00    -0.420 N 
HETATM   14  C4  UNL     1      46.460  36.509  60.942  1.00  0.00     0.127 C 
ATOM     15  H2  UNL     1      47.135  35.602  62.759  1.00  0.00     0.153 HD
HETATM   16  C3  UNL     1      45.442  37.595  60.749  1.00  0.00     0.095 C 
HETATM   17  C13 UNL     1      44.338  37.525  61.790  1.00  0.00     0.024 C 
BRANCH  16  18
HETATM   18  C2  UNL     1      46.069  38.910  60.643  1.00  0.00     0.223 C 
HETATM   19  N1  UNL     1      46.159  39.763  61.775  1.00  0.00    -0.365 N 
HETATM   20  C1  UNL     1      46.766  41.070  61.667  1.00  0.00     0.149 C 
ATOM     21  H1  UNL     1      45.791  39.450  62.673  1.00  0.00     0.161 HD
HETATM   22  O1  UNL     1      46.543  39.336  59.558  1.00  0.00    -0.273 OA
ENDBRANCH  16  18
ENDBRANCH  10  11
BRANCH  10  23
HETATM   23  N3  UNL     1      42.039  37.336  61.922  1.00  0.00    -0.069 N 
ATOM     24  H33 UNL     1      41.620  37.505  61.008  1.00  0.00     0.275 HD
ATOM     25  H32 UNL     1      41.207  37.615  62.443  1.00  0.00     0.275 HD
ATOM     26  H31 UNL     1      42.891  37.858  62.127  1.00  0.00     0.275 HD
ENDBRANCH  10  23
ENDBRANCH   1  10
BRANCH   9  27
HETATM   27  N10 UNL     1      40.058  34.594  62.451  1.00  0.00    -0.384 N 
ATOM     28 2H10 UNL     1      39.353  33.890  62.667  1.00  0.00     0.157 HD
ATOM     29 1H10 UNL     1      40.426  35.195  63.188  1.00  0.00     0.157 HD
ENDBRANCH   9  27
BRANCH   4  30
HETATM   30  C10 UNL     1      41.893  35.270  57.360  1.00  0.00     0.171 A 
HETATM   31  N5  UNL     1      42.894  34.750  56.669  1.00  0.00    -0.258 N 
HETATM   32  N6  UNL     1      42.853  35.308  55.463  1.00  0.00     0.049 NA
ATOM     33  H5  UNL     1      43.567  34.058  56.998  1.00  0.00     0.186 HD
HETATM   34  O2  UNL     1      41.886  36.142  55.371  1.00  0.00    -0.141 OA
HETATM   35  N7  UNL     1      41.276  36.145  56.515  1.00  0.00    -0.224 N 
ATOM     36  H7  UNL     1      40.461  36.713  56.747  1.00  0.00     0.198 HD
ENDBRANCH   4  30
TORSDOF 6
ENDMDL
MODEL 4
REMARK VINA RESULT: -7.403719486      2.220      3.406
REMARK  6 active torsions:
REMARK  status: ('A' for Active; 'I' for Inactive)
REMARK       I    between atoms: N1_2  and  C2_4 
REMARK    1  A    between atoms: C2_4  and  C3_6 
REMARK    2  A    between atoms: C6_11  and  C7_12 
REMARK    3  A    between atoms: C7_12  and  N3_13 
REMARK    4  A    between atoms: C7_12  and  C8_17 
REMARK    5  A    between atoms: C9_20  and  C10_21 
REMARK    6  A    between atoms: C12_32  and  N10_33 
ROOT
HETATM    1  C8  UNL     1      42.327  35.024  59.181  1.00  0.00     0.085 A 
HETATM    2  N4  UNL     1      43.163  34.147  58.566  1.00  0.00    -0.349 N 
ATOM      3  H4  UNL     1      43.930  33.769  59.121  1.00  0.00     0.166 HD
HETATM    4  C9  UNL     1      43.071  33.739  57.311  1.00  0.00     0.121 A 
HETATM    5  C11 UNL     1      42.023  34.247  56.558  1.00  0.00     0.148 A 
HETATM    6  N8  UNL     1      41.896  33.816  55.221  1.00  0.00    -0.080 NA
HETATM    7  N9  UNL     1      41.167  35.115  57.109  1.00  0.00    -0.328 N 
ATOM      8  H9  UNL     1      40.399  35.486  56.550  1.00  0.00     0.168 HD
HETATM    9  C12 UNL     1      41.307  35.514  58.418  1.00  0.00     0.125 A 
ENDROOT
BRANCH   1  10
HETATM   10  C7  UNL     1      42.685  35.592  60.539  1.00  0.00     0.242 C 
BRANCH  10  11
HETATM   11  C6  UNL     1      41.996  34.958  61.672  1.00  0.00     0.040 C 
HETATM   12  C5  UNL     1      41.508  35.705  62.827  1.00  0.00     0.120 C 
HETATM   13  N2  UNL     1      41.136  34.774  63.900  1.00  0.00    -0.420 N 
HETATM   14  C4  UNL     1      40.589  33.545  63.467  1.00  0.00     0.127 C 
ATOM     15  H2  UNL     1      41.264  34.998  64.887  1.00  0.00     0.153 HD
HETATM   16  C3  UNL     1      41.385  32.764  62.463  1.00  0.00     0.095 C 
HETATM   17  C13 UNL     1      42.569  33.559  61.939  1.00  0.00     0.024 C 
BRANCH  16  18
HETATM   18  C2  UNL     1      41.743  31.441  62.970  1.00  0.00     0.223 C 
HETATM   19  N1  UNL     1      42.101  30.396  62.077  1.00  0.00    -0.365 N 
HETATM   20  C1  UNL     1      42.440  29.083  62.576  1.00  0.00     0.149 C 
ATOM     21  H1  UNL     1      42.119  30.574  61.073  1.00  0.00     0.161 HD
HETATM   22  O1  UNL     1      41.742  31.176  64.199  1.00  0.00    -0.273 OA
ENDBRANCH  16  18
ENDBRANCH  10  11
BRANCH  10  23
HETATM   23  N3  UNL     1      44.099  34.856  60.639  1.00  0.00    -0.069 N 
ATOM     24  H33 UNL     1      44.096  33.855  60.440  1.00  0.00     0.275 HD
ATOM     25  H32 UNL     1      44.772  35.080  59.907  1.00  0.00     0.275 HD
ATOM     26  H31 UNL     1      44.363  35.121  61.588  1.00  0.00     0.275 HD
ENDBRANCH  10  23
ENDBRANCH   1  10
BRANCH   9  27
HETATM   27  N10 UNL     1      40.495  36.321  58.926  1.00  0.00    -0.384 N 
ATOM     28 2H10 UNL     1      40.738  36.836  59.772  1.00  0.00     0.157 HD
ATOM     29 1H10 UNL     1      39.590  36.466  58.479  1.00  0.00     0.157 HD
ENDBRANCH   9  27
BRANCH   4  30
HETATM   30  C10 UNL     1      44.105  32.901  56.688  1.00  0.00     0.171 A 
HETATM   31  N5  UNL     1      44.022  31.696  56.147  1.00  0.00    -0.258 N 
HETATM   32  N6  UNL     1      45.230  31.407  55.676  1.00  0.00     0.049 NA
ATOM     33  H5  UNL     1      43.192  31.105  56.102  1.00  0.00     0.186 HD
HETATM   34  O2  UNL     1      46.054  32.362  55.896  1.00  0.00    -0.141 OA
HETATM   35  N7  UNL     1      45.400  33.295  56.514  1.00  0.00    -0.224 N 
ATOM     36  H7  UNL     1      45.791  34.184  56.823  1.00  0.00     0.198 HD
ENDBRANCH   4  30
TORSDOF 6
ENDMDL
MODEL 5
REMARK VINA RESULT: -7.393510149      3.304      5.070
REMARK  6 active torsions:
REMARK  status: ('A' for Active; 'I' for Inactive)
REMARK       I    between atoms: N1_2  and  C2_4 
REMARK    1  A    between atoms: C2_4  and  C3_6 
REMARK    2  A    between atoms: C6_11  and  C7_12 
REMARK    3  A    between atoms: C7_12  and  N3_13 
REMARK    4  A    between atoms: C7_12  and  C8_17 
REMARK    5  A    between atoms: C9_20  and  C10_21 
REMARK    6  A    between atoms: C12_32  and  N10_33 
ROOT
HETATM    1  C8  UNL     1      44.916  30.564  59.144  1.00  0.00     0.085 A 
HETATM    2  N4  UNL     1      44.378  31.600  58.448  1.00  0.00    -0.349 N 
ATOM      3  H4  UNL     1      43.656  32.147  58.916  1.00  0.00     0.166 HD
HETATM    4  C9  UNL     1      44.706  31.961  57.220  1.00  0.00     0.121 A 
HETATM    5  C11 UNL     1      45.693  31.221  56.587  1.00  0.00     0.148 A 
HETATM    6  N8  UNL     1      46.070  31.598  55.281  1.00  0.00    -0.080 NA
HETATM    7  N9  UNL     1      46.261  30.189  57.221  1.00  0.00    -0.328 N 
ATOM      8  H9  UNL     1      46.985  29.648  56.750  1.00  0.00     0.168 HD
HETATM    9  C12 UNL     1      45.881  29.847  58.498  1.00  0.00     0.125 A 
ENDROOT
BRANCH   1  10
HETATM   10  C7  UNL     1      44.282  30.107  60.442  1.00  0.00     0.242 C 
BRANCH  10  11
HETATM   11  C6  UNL     1      44.114  31.164  61.449  1.00  0.00     0.040 C 
HETATM   12  C5  UNL     1      44.985  31.303  62.612  1.00  0.00     0.120 C 
HETATM   13  N2  UNL     1      44.394  32.252  63.565  1.00  0.00    -0.420 N 
HETATM   14  C4  UNL     1      43.678  33.322  62.983  1.00  0.00     0.127 C 
ATOM     15  H2  UNL     1      44.493  32.145  64.575  1.00  0.00     0.153 HD
HETATM   16  C3  UNL     1      42.605  32.963  61.997  1.00  0.00     0.095 C 
HETATM   17  C13 UNL     1      42.626  31.484  61.652  1.00  0.00     0.024 C 
BRANCH  16  18
HETATM   18  C2  UNL     1      41.295  33.450  62.423  1.00  0.00     0.223 C 
HETATM   19  N1  UNL     1      41.176  34.658  63.161  1.00  0.00    -0.365 N 
HETATM   20  C1  UNL     1      39.882  35.132  63.596  1.00  0.00     0.149 C 
ATOM     21  H1  UNL     1      42.013  35.196  63.387  1.00  0.00     0.161 HD
HETATM   22  O1  UNL     1      40.235  32.825  62.162  1.00  0.00    -0.273 OA
ENDBRANCH  16  18
ENDBRANCH  10  11
BRANCH  10  23
HETATM   23  N3  UNL     1      42.794  30.044  59.866  1.00  0.00    -0.069 N 
ATOM     24  H33 UNL     1      42.673  29.524  58.997  1.00  0.00     0.275 HD
ATOM     25  H32 UNL     1      42.135  29.472  60.393  1.00  0.00     0.275 HD
ATOM     26  H31 UNL     1      42.586  31.042  59.822  1.00  0.00     0.275 HD
ENDBRANCH  10  23
ENDBRANCH   1  10
BRANCH   9  27
HETATM   27  N10 UNL     1      46.426  28.884  59.085  1.00  0.00    -0.384 N 
ATOM     28 2H10 UNL     1      47.423  28.906  59.298  1.00  0.00     0.157 HD
ATOM     29 1H10 UNL     1      45.861  28.081  59.357  1.00  0.00     0.157 HD
ENDBRANCH   9  27
BRANCH   4  30
HETATM   30  C10 UNL     1      43.967  33.004  56.492  1.00  0.00     0.171 A 
HETATM   31  N5  UNL     1      44.197  34.302  56.388  1.00  0.00    -0.258 N 
HETATM   32  N6  UNL     1      43.267  34.788  55.572  1.00  0.00     0.049 NA
ATOM     33  H5  UNL     1      44.942  34.828  56.844  1.00  0.00     0.186 HD
HETATM   34  O2  UNL     1      42.475  33.865  55.170  1.00  0.00    -0.141 OA
HETATM   35  N7  UNL     1      42.874  32.758  55.714  1.00  0.00    -0.224 N 
ATOM     36  H7  UNL     1      42.439  31.845  55.580  1.00  0.00     0.198 HD
ENDBRANCH   4  30
TORSDOF 6
ENDMDL
