MODEL 1
REMARK VINA RESULT: -7.274039426      0.000      0.000
REMARK  7 active torsions:
REMARK  status: ('A' for Active; 'I' for Inactive)
REMARK    1  A    between atoms: O1_2  and  N1_3 
REMARK    2  A    between atoms: C3_6  and  N2_7 
REMARK       I    between atoms: N2_7  and  C4_9 
REMARK    3  A    between atoms: C4_9  and  O3_11 
REMARK    4  A    between atoms: C7_15  and  O5_16 
REMARK    5  A    between atoms: C8_18  and  O6_19 
REMARK    6  A    between atoms: O6_19  and  C9_20 
REMARK    7  A    between atoms: C9_20  and  C10_22 
ROOT
HETATM    1  N1  UNL     1      41.570  33.648  62.552  1.00  0.00    -0.268 N 
ATOM      2  H1  UNL     1      41.592  33.593  63.571  1.00  0.00     0.194 HD
HETATM    3  C2  UNL     1      41.828  34.776  61.990  1.00  0.00     0.090 C 
HETATM    4  C3  UNL     1      42.156  36.007  62.728  1.00  0.00     0.276 C 
HETATM    5  O4  UNL     1      43.340  36.493  62.175  1.00  0.00    -0.358 OA
HETATM    6  C6  UNL     1      43.058  37.054  60.960  1.00  0.00     0.205 C 
HETATM    7  C7  UNL     1      42.150  36.289  60.080  1.00  0.00     0.177 C 
HETATM    8  C8  UNL     1      41.811  34.910  60.509  1.00  0.00     0.212 C 
ENDROOT
BRANCH   8   9
HETATM    9  O6  UNL     1      42.586  33.906  59.884  1.00  0.00    -0.327 OA
BRANCH   9  10
HETATM   10  C9  UNL     1      43.162  34.121  58.666  1.00  0.00     0.151 C 
HETATM   11  S1  UNL     1      44.800  34.308  58.650  1.00  0.00    -0.054 SA
BRANCH  10  12
HETATM   12  C10 UNL     1      42.455  34.197  57.387  1.00  0.00     0.275 C 
HETATM   13  N3  UNL     1      42.548  35.466  56.723  1.00  0.00    -0.098 NA
HETATM   14  N4  UNL     1      42.854  35.122  55.393  1.00  0.00    -0.019 NA
HETATM   15  N5  UNL     1      42.414  33.809  55.224  1.00  0.00    -0.019 NA
HETATM   16  N6  UNL     1      42.864  33.197  56.424  1.00  0.00    -0.098 NA
ENDBRANCH  10  12
ENDBRANCH   9  10
ENDBRANCH   8   9
BRANCH   7  17
HETATM   17  O5  UNL     1      40.967  37.023  59.833  1.00  0.00    -0.390 OA
ATOM     18  H5  UNL     1      40.258  36.438  59.595  1.00  0.00     0.210 HD
ENDBRANCH   7  17
BRANCH   1  19
HETATM   19  O1  UNL     1      41.266  32.513  61.837  1.00  0.00    -0.285 OA
HETATM   20  C1  UNL     1      41.918  31.290  62.207  1.00  0.00     0.237 C 
ENDBRANCH   1  19
BRANCH   4  21
HETATM   21  N2  UNL     1      42.196  35.866  64.137  1.00  0.00    -0.305 N 
HETATM   22  C4  UNL     1      41.061  36.221  64.923  1.00  0.00     0.362 C 
HETATM   23  O2  UNL     1      40.011  36.664  64.392  1.00  0.00    -0.238 OA
ATOM     24  H2  UNL     1      43.038  35.510  64.590  1.00  0.00     0.167 HD
BRANCH  22  25
HETATM   25  O3  UNL     1      41.054  36.100  66.310  1.00  0.00    -0.309 OA
HETATM   26  C5  UNL     1      42.199  35.708  67.046  1.00  0.00     0.215 C 
ENDBRANCH  22  25
ENDBRANCH   4  21
TORSDOF 7
ENDMDL
MODEL 2
REMARK VINA RESULT: -7.244182370      0.856      1.187
REMARK  7 active torsions:
REMARK  status: ('A' for Active; 'I' for Inactive)
REMARK    1  A    between atoms: O1_2  and  N1_3 
REMARK    2  A    between atoms: C3_6  and  N2_7 
REMARK       I    between atoms: N2_7  and  C4_9 
REMARK    3  A    between atoms: C4_9  and  O3_11 
REMARK    4  A    between atoms: C7_15  and  O5_16 
REMARK    5  A    between atoms: C8_18  and  O6_19 
REMARK    6  A    between atoms: O6_19  and  C9_20 
REMARK    7  A    between atoms: C9_20  and  C10_22 
ROOT
HETATM    1  N1  UNL     1      41.071  33.241  61.870  1.00  0.00    -0.268 N 
ATOM      2  H1  UNL     1      41.123  33.217  62.889  1.00  0.00     0.194 HD
HETATM    3  C2  UNL     1      41.307  34.353  61.268  1.00  0.00     0.090 C 
HETATM    4  C3  UNL     1      41.650  35.608  61.959  1.00  0.00     0.276 C 
HETATM    5  O4  UNL     1      42.814  36.082  61.358  1.00  0.00    -0.358 OA
HETATM    6  C6  UNL     1      42.494  36.605  60.136  1.00  0.00     0.205 C 
HETATM    7  C7  UNL     1      41.566  35.811  59.305  1.00  0.00     0.177 C 
HETATM    8  C8  UNL     1      41.246  34.444  59.785  1.00  0.00     0.212 C 
ENDROOT
BRANCH   8   9
HETATM    9  O6  UNL     1      42.007  33.425  59.168  1.00  0.00    -0.327 OA
BRANCH   9  10
HETATM   10  C9  UNL     1      43.223  33.698  58.611  1.00  0.00     0.151 C 
HETATM   11  S1  UNL     1      44.522  33.662  59.627  1.00  0.00    -0.054 SA
BRANCH  10  12
HETATM   12  C10 UNL     1      43.467  34.014  57.203  1.00  0.00     0.275 C 
HETATM   13  N3  UNL     1      42.939  33.059  56.271  1.00  0.00    -0.098 NA
HETATM   14  N4  UNL     1      42.303  33.857  55.304  1.00  0.00    -0.019 NA
HETATM   15  N5  UNL     1      42.901  35.115  55.387  1.00  0.00    -0.019 NA
HETATM   16  N6  UNL     1      42.970  35.310  56.792  1.00  0.00    -0.098 NA
ENDBRANCH  10  12
ENDBRANCH   9  10
ENDBRANCH   8   9
BRANCH   7  17
HETATM   17  O5  UNL     1      40.372  36.532  59.071  1.00  0.00    -0.390 OA
ATOM     18  H5  UNL     1      40.563  37.450  58.923  1.00  0.00     0.210 HD
ENDBRANCH   7  17
BRANCH   1  19
HETATM   19  O1  UNL     1      40.752  32.085  61.199  1.00  0.00    -0.285 OA
HETATM   20  C1  UNL     1      41.603  30.945  61.381  1.00  0.00     0.237 C 
ENDBRANCH   1  19
BRANCH   4  21
HETATM   21  N2  UNL     1      41.731  35.509  63.371  1.00  0.00    -0.305 N 
HETATM   22  C4  UNL     1      40.701  36.061  64.187  1.00  0.00     0.362 C 
HETATM   23  O2  UNL     1      39.709  36.643  63.681  1.00  0.00    -0.238 OA
ATOM     24  H2  UNL     1      42.528  35.041  63.803  1.00  0.00     0.167 HD
BRANCH  22  25
HETATM   25  O3  UNL     1      40.738  35.988  65.576  1.00  0.00    -0.309 OA
HETATM   26  C5  UNL     1      41.946  36.072  66.311  1.00  0.00     0.215 C 
ENDBRANCH  22  25
ENDBRANCH   4  21
TORSDOF 7
ENDMDL
MODEL 3
REMARK VINA RESULT: -7.238534082      1.547      2.867
REMARK  7 active torsions:
REMARK  status: ('A' for Active; 'I' for Inactive)
REMARK    1  A    between atoms: O1_2  and  N1_3 
REMARK    2  A    between atoms: C3_6  and  N2_7 
REMARK       I    between atoms: N2_7  and  C4_9 
REMARK    3  A    between atoms: C4_9  and  O3_11 
REMARK    4  A    between atoms: C7_15  and  O5_16 
REMARK    5  A    between atoms: C8_18  and  O6_19 
REMARK    6  A    between atoms: O6_19  and  C9_20 
REMARK    7  A    between atoms: C9_20  and  C10_22 
ROOT
HETATM    1  N1  UNL     1      42.500  36.543  61.924  1.00  0.00    -0.268 N 
ATOM      2  H1  UNL     1      42.325  36.998  62.821  1.00  0.00     0.194 HD
HETATM    3  C2  UNL     1      41.814  35.499  61.619  1.00  0.00     0.090 C 
HETATM    4  C3  UNL     1      40.781  34.910  62.487  1.00  0.00     0.276 C 
HETATM    5  O4  UNL     1      39.637  34.776  61.702  1.00  0.00    -0.358 OA
HETATM    6  C6  UNL     1      39.812  33.721  60.850  1.00  0.00     0.205 C 
HETATM    7  C7  UNL     1      41.123  33.632  60.176  1.00  0.00     0.177 C 
HETATM    8  C8  UNL     1      42.029  34.797  60.325  1.00  0.00     0.212 C 
ENDROOT
BRANCH   8   9
HETATM    9  O6  UNL     1      41.997  35.695  59.233  1.00  0.00    -0.327 OA
BRANCH   9  10
HETATM   10  C9  UNL     1      42.710  35.442  58.098  1.00  0.00     0.151 C 
HETATM   11  S1  UNL     1      44.345  35.303  58.272  1.00  0.00    -0.054 SA
BRANCH  10  12
HETATM   12  C10 UNL     1      42.152  35.285  56.754  1.00  0.00     0.275 C 
HETATM   13  N3  UNL     1      43.068  34.765  55.779  1.00  0.00    -0.098 NA
HETATM   14  N4  UNL     1      42.321  33.772  55.120  1.00  0.00    -0.019 NA
HETATM   15  N5  UNL     1      40.980  34.101  55.320  1.00  0.00    -0.019 NA
HETATM   16  N6  UNL     1      40.971  34.450  56.697  1.00  0.00    -0.098 NA
ENDBRANCH  10  12
ENDBRANCH   9  10
ENDBRANCH   8   9
BRANCH   7  17
HETATM   17  O5  UNL     1      41.795  32.447  60.555  1.00  0.00    -0.390 OA
ATOM     18  H5  UNL     1      42.246  32.068  59.811  1.00  0.00     0.210 HD
ENDBRANCH   7  17
BRANCH   1  19
HETATM   19  O1  UNL     1      43.460  37.071  61.094  1.00  0.00    -0.285 OA
HETATM   20  C1  UNL     1      44.732  37.411  61.664  1.00  0.00     0.237 C 
ENDBRANCH   1  19
BRANCH   4  21
HETATM   21  N2  UNL     1      40.562  35.598  63.707  1.00  0.00    -0.305 N 
HETATM   22  C4  UNL     1      41.267  35.208  64.883  1.00  0.00     0.362 C 
HETATM   23  O2  UNL     1      42.088  34.257  64.867  1.00  0.00    -0.238 OA
ATOM     24  H2  UNL     1      39.900  36.373  63.743  1.00  0.00     0.167 HD
BRANCH  22  25
HETATM   25  O3  UNL     1      41.086  35.854  66.103  1.00  0.00    -0.309 OA
HETATM   26  C5  UNL     1      42.073  35.850  67.119  1.00  0.00     0.215 C 
ENDBRANCH  22  25
ENDBRANCH   4  21
TORSDOF 7
ENDMDL
MODEL 4
REMARK VINA RESULT: -7.145036346      1.208      1.445
REMARK  7 active torsions:
REMARK  status: ('A' for Active; 'I' for Inactive)
REMARK    1  A    between atoms: O1_2  and  N1_3 
REMARK    2  A    between atoms: C3_6  and  N2_7 
REMARK       I    between atoms: N2_7  and  C4_9 
REMARK    3  A    between atoms: C4_9  and  O3_11 
REMARK    4  A    between atoms: C7_15  and  O5_16 
REMARK    5  A    between atoms: C8_18  and  O6_19 
REMARK    6  A    between atoms: O6_19  and  C9_20 
REMARK    7  A    between atoms: C9_20  and  C10_22 
ROOT
HETATM    1  N1  UNL     1      40.995  33.846  62.438  1.00  0.00    -0.268 N 
ATOM      2  H1  UNL     1      41.010  33.582  63.424  1.00  0.00     0.194 HD
HETATM    3  C2  UNL     1      41.556  34.949  62.086  1.00  0.00     0.090 C 
HETATM    4  C3  UNL     1      42.225  35.867  63.023  1.00  0.00     0.276 C 
HETATM    5  O4  UNL     1      43.492  36.111  62.497  1.00  0.00    -0.358 OA
HETATM    6  C6  UNL     1      43.368  36.961  61.433  1.00  0.00     0.205 C 
HETATM    7  C7  UNL     1      42.273  36.670  60.484  1.00  0.00     0.177 C 
HETATM    8  C8  UNL     1      41.563  35.380  60.663  1.00  0.00     0.212 C 
ENDROOT
BRANCH   8   9
HETATM    9  O6  UNL     1      42.017  34.349  59.808  1.00  0.00    -0.327 OA
BRANCH   9  10
HETATM   10  C9  UNL     1      41.660  34.323  58.492  1.00  0.00     0.151 C 
HETATM   11  S1  UNL     1      40.044  34.255  58.169  1.00  0.00    -0.054 SA
BRANCH  10  12
HETATM   12  C10 UNL     1      42.581  34.351  57.355  1.00  0.00     0.275 C 
HETATM   13  N3  UNL     1      42.417  33.274  56.421  1.00  0.00    -0.098 NA
HETATM   14  N4  UNL     1      42.436  33.916  55.169  1.00  0.00    -0.019 NA
HETATM   15  N5  UNL     1      43.104  35.125  55.365  1.00  0.00    -0.019 NA
HETATM   16  N6  UNL     1      42.533  35.576  56.584  1.00  0.00    -0.098 NA
ENDBRANCH  10  12
ENDBRANCH   9  10
ENDBRANCH   8   9
BRANCH   7  17
HETATM   17  O5  UNL     1      41.343  37.734  60.461  1.00  0.00    -0.390 OA
ATOM     18  H5  UNL     1      40.571  37.490  59.965  1.00  0.00     0.210 HD
ENDBRANCH   7  17
BRANCH   1  19
HETATM   19  O1  UNL     1      40.376  33.007  61.542  1.00  0.00    -0.285 OA
HETATM   20  C1  UNL     1      40.950  31.710  61.327  1.00  0.00     0.237 C 
ENDBRANCH   1  19
BRANCH   4  21
HETATM   21  N2  UNL     1      42.237  35.439  64.374  1.00  0.00    -0.305 N 
HETATM   22  C4  UNL     1      41.287  35.963  65.298  1.00  0.00     0.362 C 
HETATM   23  O2  UNL     1      40.426  36.807  64.943  1.00  0.00    -0.238 OA
ATOM     24  H2  UNL     1      42.926  34.755  64.685  1.00  0.00     0.167 HD
BRANCH  22  25
HETATM   25  O3  UNL     1      41.259  35.572  66.634  1.00  0.00    -0.309 OA
HETATM   26  C5  UNL     1      42.433  35.232  67.352  1.00  0.00     0.215 C 
ENDBRANCH  22  25
ENDBRANCH   4  21
TORSDOF 7
ENDMDL
MODEL 5
REMARK VINA RESULT: -7.087039709      1.947      3.194
REMARK  7 active torsions:
REMARK  status: ('A' for Active; 'I' for Inactive)
REMARK    1  A    between atoms: O1_2  and  N1_3 
REMARK    2  A    between atoms: C3_6  and  N2_7 
REMARK       I    between atoms: N2_7  and  C4_9 
REMARK    3  A    between atoms: C4_9  and  O3_11 
REMARK    4  A    between atoms: C7_15  and  O5_16 
REMARK    5  A    between atoms: C8_18  and  O6_19 
REMARK    6  A    between atoms: O6_19  and  C9_20 
REMARK    7  A    between atoms: C9_20  and  C10_22 
ROOT
HETATM    1  N1  UNL     1      43.950  37.352  61.544  1.00  0.00    -0.268 N 
ATOM      2  H1  UNL     1      43.894  37.984  62.344  1.00  0.00     0.194 HD
HETATM    3  C2  UNL     1      43.173  36.327  61.513  1.00  0.00     0.090 C 
HETATM    4  C3  UNL     1      42.199  36.001  62.568  1.00  0.00     0.276 C 
HETATM    5  O4  UNL     1      40.975  35.811  61.928  1.00  0.00    -0.358 OA
HETATM    6  C6  UNL     1      40.998  34.602  61.291  1.00  0.00     0.205 C 
HETATM    7  C7  UNL     1      42.226  34.280  60.536  1.00  0.00     0.177 C 
HETATM    8  C8  UNL     1      43.212  35.376  60.371  1.00  0.00     0.212 C 
ENDROOT
BRANCH   8   9
HETATM    9  O6  UNL     1      43.125  36.047  59.130  1.00  0.00    -0.327 OA
BRANCH   9  10
HETATM   10  C9  UNL     1      43.497  35.429  57.972  1.00  0.00     0.151 C 
HETATM   11  S1  UNL     1      45.009  34.772  57.941  1.00  0.00    -0.054 SA
BRANCH  10  12
HETATM   12  C10 UNL     1      42.674  35.300  56.768  1.00  0.00     0.275 C 
HETATM   13  N3  UNL     1      43.335  34.692  55.649  1.00  0.00    -0.098 NA
HETATM   14  N4  UNL     1      42.397  33.755  55.179  1.00  0.00    -0.019 NA
HETATM   15  N5  UNL     1      41.152  34.197  55.628  1.00  0.00    -0.019 NA
HETATM   16  N6  UNL     1      41.442  34.564  56.969  1.00  0.00    -0.098 NA
ENDBRANCH  10  12
ENDBRANCH   9  10
ENDBRANCH   8   9
BRANCH   7  17
HETATM   17  O5  UNL     1      42.858  33.140  61.083  1.00  0.00    -0.390 OA
ATOM     18  H5  UNL     1      43.548  32.834  60.506  1.00  0.00     0.210 HD
ENDBRANCH   7  17
BRANCH   1  19
HETATM   19  O1  UNL     1      44.851  37.633  60.545  1.00  0.00    -0.285 OA
HETATM   20  C1  UNL     1      46.076  38.286  60.906  1.00  0.00     0.237 C 
ENDBRANCH   1  19
BRANCH   4  21
HETATM   21  N2  UNL     1      42.148  36.925  63.641  1.00  0.00    -0.305 N 
HETATM   22  C4  UNL     1      42.872  36.667  64.841  1.00  0.00     0.362 C 
HETATM   23  O2  UNL     1      43.565  35.627  64.976  1.00  0.00    -0.238 OA
ATOM     24  H2  UNL     1      41.592  37.776  63.554  1.00  0.00     0.167 HD
BRANCH  22  25
HETATM   25  O3  UNL     1      42.853  37.546  65.922  1.00  0.00    -0.309 OA
HETATM   26  C5  UNL     1      43.135  38.927  65.783  1.00  0.00     0.215 C 
ENDBRANCH  22  25
ENDBRANCH   4  21
TORSDOF 7
ENDMDL
