MODEL 1
REMARK VINA RESULT: -8.217900616      0.000      0.000
REMARK  8 active torsions:
REMARK  status: ('A' for Active; 'I' for Inactive)
REMARK    1  A    between atoms: C2_2  and  N1_3 
REMARK    2  A    between atoms: C2_2  and  C8_20 
REMARK    3  A    between atoms: N1_3  and  C3_5 
REMARK    4  A    between atoms: C5_12  and  N4_13 
REMARK    5  A    between atoms: C7_17  and  O3_18 
REMARK    6  A    between atoms: C8_20  and  C9_22 
REMARK    7  A    between atoms: C9_22  and  N5_23 
REMARK    8  A    between atoms: N7_28  and  N8_29 
ROOT
HETATM    1  C1  UNL     1      38.939  33.266  60.514  1.00  0.00     0.072 C 
HETATM    2  C2  UNL     1      40.217  32.985  61.205  1.00  0.00     0.055 C 
ENDROOT
BRANCH   2   3
HETATM    3  N1  UNL     1      40.287  32.787  62.467  1.00  0.00    -0.341 N 
ATOM      4  H1  UNL     1      40.004  31.866  62.802  1.00  0.00     0.167 HD
BRANCH   3   5
HETATM    5  C3  UNL     1      40.712  33.704  63.433  1.00  0.00     0.141 A 
HETATM    6  N2  UNL     1      40.071  34.862  63.601  1.00  0.00    -0.325 N 
HETATM    7  C4  UNL     1      40.445  35.777  64.522  1.00  0.00     0.134 A 
ATOM      8  H2  UNL     1      39.265  35.064  63.011  1.00  0.00     0.169 HD
HETATM    9  N3  UNL     1      39.834  36.898  64.695  1.00  0.00    -0.383 N 
HETATM   10  C5  UNL     1      41.530  35.509  65.321  1.00  0.00     0.149 A 
ATOM     11  H32 UNL     1      39.029  37.097  64.102  1.00  0.00     0.157 HD
ATOM     12  H31 UNL     1      40.116  37.589  65.390  1.00  0.00     0.157 HD
HETATM   13  C6  UNL     1      42.209  34.339  65.178  1.00  0.00     0.080 A 
HETATM   14  C7  UNL     1      41.795  33.422  64.221  1.00  0.00     0.112 A 
BRANCH  10  15
HETATM   15  N4  UNL     1      41.981  36.425  66.310  1.00  0.00    -0.112 N 
HETATM   16  O1  UNL     1      42.644  37.441  66.025  1.00  0.00    -0.532 OA
HETATM   17  O2  UNL     1      41.672  36.178  67.628  1.00  0.00    -0.532 OA
ENDBRANCH  10  15
BRANCH  14  18
HETATM   18  O3  UNL     1      42.490  32.228  64.078  1.00  0.00    -0.357 OA
ATOM     19  H3  UNL     1      42.291  31.479  64.628  1.00  0.00     0.218 HD
ENDBRANCH  14  18
ENDBRANCH   3   5
ENDBRANCH   2   3
BRANCH   2  20
HETATM   20  C8  UNL     1      41.428  32.935  60.419  1.00  0.00     0.191 C 
HETATM   21  O4  UNL     1      42.004  31.834  60.137  1.00  0.00    -0.289 OA
BRANCH  20  22
HETATM   22  C9  UNL     1      42.017  34.199  59.927  1.00  0.00     0.253 C 
BRANCH  22  23
HETATM   23  N5  UNL     1      41.862  34.379  58.504  1.00  0.00    -0.111 N 
HETATM   24  N6  UNL     1      42.386  33.647  57.527  1.00  0.00    -0.232 N 
HETATM   25  C10 UNL     1      41.993  34.154  56.333  1.00  0.00     0.375 A 
ATOM     26  H6  UNL     1      42.987  32.833  57.654  1.00  0.00     0.192 HD
HETATM   27  O5  UNL     1      42.291  33.724  55.176  1.00  0.00    -0.243 OA
HETATM   28  N7  UNL     1      41.213  35.220  56.577  1.00  0.00    -0.036 N 
HETATM   29  C11 UNL     1      41.138  35.351  57.905  1.00  0.00     0.718 A 
HETATM   30  N9  UNL     1      40.482  36.257  58.558  1.00  0.00    -0.231 N 
ATOM     31  H92 UNL     1      40.425  36.356  59.571  1.00  0.00     0.174 HD
ATOM     32  H91 UNL     1      39.935  36.990  58.106  1.00  0.00     0.174 HD
BRANCH  28  33
HETATM   33  N8  UNL     1      40.578  36.061  55.647  1.00  0.00    -0.320 N 
ATOM     34  H82 UNL     1      40.247  35.771  54.727  1.00  0.00     0.178 HD
ATOM     35  H81 UNL     1      40.359  37.052  55.743  1.00  0.00     0.178 HD
ENDBRANCH  28  33
ENDBRANCH  22  23
ENDBRANCH  20  22
ENDBRANCH   2  20
TORSDOF 8
ENDMDL
MODEL 2
REMARK VINA RESULT: -8.141576016      2.102      2.741
REMARK  8 active torsions:
REMARK  status: ('A' for Active; 'I' for Inactive)
REMARK    1  A    between atoms: C2_2  and  N1_3 
REMARK    2  A    between atoms: C2_2  and  C8_20 
REMARK    3  A    between atoms: N1_3  and  C3_5 
REMARK    4  A    between atoms: C5_12  and  N4_13 
REMARK    5  A    between atoms: C7_17  and  O3_18 
REMARK    6  A    between atoms: C8_20  and  C9_22 
REMARK    7  A    between atoms: C9_22  and  N5_23 
REMARK    8  A    between atoms: N7_28  and  N8_29 
ROOT
HETATM    1  C1  UNL     1      40.714  32.462  61.024  1.00  0.00     0.072 C 
HETATM    2  C2  UNL     1      40.639  33.911  61.313  1.00  0.00     0.055 C 
ENDROOT
BRANCH   2   3
HETATM    3  N1  UNL     1      40.038  34.376  62.342  1.00  0.00    -0.341 N 
ATOM      4  H1  UNL     1      39.034  34.534  62.253  1.00  0.00     0.167 HD
BRANCH   3   5
HETATM    5  C3  UNL     1      40.616  34.688  63.575  1.00  0.00     0.141 A 
HETATM    6  N2  UNL     1      40.758  33.755  64.517  1.00  0.00    -0.325 N 
HETATM    7  C4  UNL     1      41.312  34.011  65.723  1.00  0.00     0.134 A 
ATOM      8  H2  UNL     1      40.435  32.808  64.319  1.00  0.00     0.169 HD
HETATM    9  N3  UNL     1      41.455  33.118  66.641  1.00  0.00    -0.383 N 
HETATM   10  C5  UNL     1      41.750  35.284  65.995  1.00  0.00     0.149 A 
ATOM     11  H32 UNL     1      41.130  32.173  66.439  1.00  0.00     0.157 HD
ATOM     12  H31 UNL     1      41.873  33.311  67.551  1.00  0.00     0.157 HD
HETATM   13  C6  UNL     1      41.622  36.263  65.059  1.00  0.00     0.080 A 
HETATM   14  C7  UNL     1      41.048  35.963  63.831  1.00  0.00     0.112 A 
BRANCH  10  15
HETATM   15  N4  UNL     1      42.342  35.627  67.241  1.00  0.00    -0.112 N 
HETATM   16  O1  UNL     1      41.681  36.101  68.185  1.00  0.00    -0.532 OA
HETATM   17  O2  UNL     1      43.693  35.427  67.407  1.00  0.00    -0.532 OA
ENDBRANCH  10  15
BRANCH  14  18
HETATM   18  O3  UNL     1      40.919  36.964  62.876  1.00  0.00    -0.357 OA
ATOM     19  H3  UNL     1      41.628  37.157  62.274  1.00  0.00     0.218 HD
ENDBRANCH  14  18
ENDBRANCH   3   5
ENDBRANCH   2   3
BRANCH   2  20
HETATM   20  C8  UNL     1      41.270  34.829  60.394  1.00  0.00     0.191 C 
HETATM   21  O4  UNL     1      40.634  35.800  59.868  1.00  0.00    -0.289 OA
BRANCH  20  22
HETATM   22  C9  UNL     1      42.695  34.637  60.052  1.00  0.00     0.253 C 
BRANCH  22  23
HETATM   23  N5  UNL     1      42.908  34.353  58.653  1.00  0.00    -0.111 N 
HETATM   24  N6  UNL     1      42.774  35.181  57.623  1.00  0.00    -0.232 N 
HETATM   25  C10 UNL     1      43.069  34.518  56.479  1.00  0.00     0.375 A 
ATOM     26  H6  UNL     1      42.493  36.160  57.684  1.00  0.00     0.192 HD
HETATM   27  O5  UNL     1      43.053  34.976  55.295  1.00  0.00    -0.243 OA
HETATM   28  N7  UNL     1      43.391  33.256  56.809  1.00  0.00    -0.036 N 
HETATM   29  C11 UNL     1      43.290  33.164  58.138  1.00  0.00     0.718 A 
HETATM   30  N9  UNL     1      43.515  32.112  58.860  1.00  0.00    -0.231 N 
ATOM     31  H92 UNL     1      43.438  32.042  59.874  1.00  0.00     0.174 HD
ATOM     32  H91 UNL     1      43.804  31.214  58.471  1.00  0.00     0.174 HD
BRANCH  28  33
HETATM   33  N8  UNL     1      43.767  32.206  55.953  1.00  0.00    -0.320 N 
ATOM     34  H82 UNL     1      43.865  32.283  54.941  1.00  0.00     0.178 HD
ATOM     35  H81 UNL     1      43.991  31.243  56.201  1.00  0.00     0.178 HD
ENDBRANCH  28  33
ENDBRANCH  22  23
ENDBRANCH  20  22
ENDBRANCH   2  20
TORSDOF 8
ENDMDL
MODEL 3
REMARK VINA RESULT: -8.082334880      1.852      7.575
REMARK  8 active torsions:
REMARK  status: ('A' for Active; 'I' for Inactive)
REMARK    1  A    between atoms: C2_2  and  N1_3 
REMARK    2  A    between atoms: C2_2  and  C8_20 
REMARK    3  A    between atoms: N1_3  and  C3_5 
REMARK    4  A    between atoms: C5_12  and  N4_13 
REMARK    5  A    between atoms: C7_17  and  O3_18 
REMARK    6  A    between atoms: C8_20  and  C9_22 
REMARK    7  A    between atoms: C9_22  and  N5_23 
REMARK    8  A    between atoms: N7_28  and  N8_29 
ROOT
HETATM    1  C1  UNL     1      41.325  31.498  61.495  1.00  0.00     0.072 C 
HETATM    2  C2  UNL     1      41.395  32.876  62.030  1.00  0.00     0.055 C 
ENDROOT
BRANCH   2   3
HETATM    3  N1  UNL     1      41.975  33.828  61.402  1.00  0.00    -0.341 N 
ATOM      4  H1  UNL     1      42.412  34.553  61.971  1.00  0.00     0.167 HD
BRANCH   3   5
HETATM    5  C3  UNL     1      42.071  33.975  60.015  1.00  0.00     0.141 A 
HETATM    6  N2  UNL     1      43.111  33.474  59.347  1.00  0.00    -0.325 N 
HETATM    7  C4  UNL     1      43.246  33.591  58.008  1.00  0.00     0.134 A 
ATOM      8  H2  UNL     1      43.836  32.982  59.869  1.00  0.00     0.169 HD
HETATM    9  N3  UNL     1      44.245  33.112  57.351  1.00  0.00    -0.383 N 
HETATM   10  C5  UNL     1      42.272  34.252  57.299  1.00  0.00     0.149 A 
ATOM     11  H32 UNL     1      44.968  32.621  57.877  1.00  0.00     0.157 HD
ATOM     12  H31 UNL     1      44.346  33.200  56.340  1.00  0.00     0.157 HD
HETATM   13  C6  UNL     1      41.196  34.777  57.945  1.00  0.00     0.080 A 
HETATM   14  C7  UNL     1      41.092  34.636  59.323  1.00  0.00     0.112 A 
BRANCH  10  15
HETATM   15  N4  UNL     1      42.346  34.414  55.888  1.00  0.00    -0.112 N 
HETATM   16  O1  UNL     1      42.247  33.453  55.101  1.00  0.00    -0.532 OA
HETATM   17  O2  UNL     1      42.533  35.678  55.378  1.00  0.00    -0.532 OA
ENDBRANCH  10  15
BRANCH  14  18
HETATM   18  O3  UNL     1      39.992  35.172  59.980  1.00  0.00    -0.357 OA
ATOM     19  H3  UNL     1      39.642  36.020  59.733  1.00  0.00     0.218 HD
ENDBRANCH  14  18
ENDBRANCH   3   5
ENDBRANCH   2   3
BRANCH   2  20
HETATM   20  C8  UNL     1      40.785  33.149  63.309  1.00  0.00     0.191 C 
HETATM   21  O4  UNL     1      40.755  32.280  64.242  1.00  0.00    -0.289 OA
BRANCH  20  22
HETATM   22  C9  UNL     1      40.175  34.475  63.546  1.00  0.00     0.253 C 
BRANCH  22  23
HETATM   23  N5  UNL     1      40.932  35.289  64.467  1.00  0.00    -0.111 N 
HETATM   24  N6  UNL     1      41.185  35.050  65.749  1.00  0.00    -0.232 N 
HETATM   25  C10 UNL     1      41.931  36.065  66.250  1.00  0.00     0.375 A 
ATOM     26  H6  UNL     1      40.869  34.234  66.273  1.00  0.00     0.192 HD
HETATM   27  O5  UNL     1      42.367  36.189  67.437  1.00  0.00    -0.243 OA
HETATM   28  N7  UNL     1      42.142  36.947  65.260  1.00  0.00    -0.036 N 
HETATM   29  C11 UNL     1      41.528  36.466  64.174  1.00  0.00     0.718 A 
HETATM   30  N9  UNL     1      41.488  37.015  63.002  1.00  0.00    -0.231 N 
ATOM     31  H92 UNL     1      41.020  36.648  62.173  1.00  0.00     0.174 HD
ATOM     32  H91 UNL     1      41.939  37.903  62.781  1.00  0.00     0.174 HD
BRANCH  28  33
HETATM   33  N8  UNL     1      42.861  38.153  65.312  1.00  0.00    -0.320 N 
ATOM     34  H82 UNL     1      43.323  38.524  66.143  1.00  0.00     0.178 HD
ATOM     35  H81 UNL     1      43.028  38.819  64.558  1.00  0.00     0.178 HD
ENDBRANCH  28  33
ENDBRANCH  22  23
ENDBRANCH  20  22
ENDBRANCH   2  20
TORSDOF 8
ENDMDL
MODEL 4
REMARK VINA RESULT: -8.032731050      1.333      1.759
REMARK  8 active torsions:
REMARK  status: ('A' for Active; 'I' for Inactive)
REMARK    1  A    between atoms: C2_2  and  N1_3 
REMARK    2  A    between atoms: C2_2  and  C8_20 
REMARK    3  A    between atoms: N1_3  and  C3_5 
REMARK    4  A    between atoms: C5_12  and  N4_13 
REMARK    5  A    between atoms: C7_17  and  O3_18 
REMARK    6  A    between atoms: C8_20  and  C9_22 
REMARK    7  A    between atoms: C9_22  and  N5_23 
REMARK    8  A    between atoms: N7_28  and  N8_29 
ROOT
HETATM    1  C1  UNL     1      39.249  32.539  61.188  1.00  0.00     0.072 C 
HETATM    2  C2  UNL     1      40.342  33.534  61.256  1.00  0.00     0.055 C 
ENDROOT
BRANCH   2   3
HETATM    3  N1  UNL     1      40.239  34.623  61.920  1.00  0.00    -0.341 N 
ATOM      4  H1  UNL     1      39.699  35.373  61.488  1.00  0.00     0.167 HD
BRANCH   3   5
HETATM    5  C3  UNL     1      40.790  34.888  63.176  1.00  0.00     0.141 A 
HETATM    6  N2  UNL     1      40.752  33.972  64.144  1.00  0.00    -0.325 N 
HETATM    7  C4  UNL     1      41.272  34.184  65.373  1.00  0.00     0.134 A 
ATOM      8  H2  UNL     1      40.312  33.073  63.949  1.00  0.00     0.169 HD
HETATM    9  N3  UNL     1      41.243  33.307  66.317  1.00  0.00    -0.383 N 
HETATM   10  C5  UNL     1      41.868  35.393  65.641  1.00  0.00     0.149 A 
ATOM     11  H32 UNL     1      40.800  32.410  66.117  1.00  0.00     0.157 HD
ATOM     12  H31 UNL     1      41.636  33.467  67.244  1.00  0.00     0.157 HD
HETATM   13  C6  UNL     1      41.926  36.352  64.679  1.00  0.00     0.080 A 
HETATM   14  C7  UNL     1      41.381  36.098  63.428  1.00  0.00     0.112 A 
BRANCH  10  15
HETATM   15  N4  UNL     1      42.437  35.687  66.911  1.00  0.00    -0.112 N 
HETATM   16  O1  UNL     1      43.639  35.481  67.166  1.00  0.00    -0.532 OA
HETATM   17  O2  UNL     1      41.629  36.217  67.889  1.00  0.00    -0.532 OA
ENDBRANCH  10  15
BRANCH  14  18
HETATM   18  O3  UNL     1      41.442  37.079  62.447  1.00  0.00    -0.357 OA
ATOM     19  H3  UNL     1      41.449  38.001  62.679  1.00  0.00     0.218 HD
ENDBRANCH  14  18
ENDBRANCH   3   5
ENDBRANCH   2   3
BRANCH   2  20
HETATM   20  C8  UNL     1      41.568  33.260  60.543  1.00  0.00     0.191 C 
HETATM   21  O4  UNL     1      42.047  32.082  60.455  1.00  0.00    -0.289 OA
BRANCH  20  22
HETATM   22  C9  UNL     1      42.289  34.377  59.898  1.00  0.00     0.253 C 
BRANCH  22  23
HETATM   23  N5  UNL     1      42.049  34.459  58.477  1.00  0.00    -0.111 N 
HETATM   24  N6  UNL     1      42.530  33.671  57.521  1.00  0.00    -0.232 N 
HETATM   25  C10 UNL     1      42.060  34.092  56.322  1.00  0.00     0.375 A 
ATOM     26  H6  UNL     1      43.153  32.877  57.667  1.00  0.00     0.192 HD
HETATM   27  O5  UNL     1      42.300  33.589  55.180  1.00  0.00    -0.243 OA
HETATM   28  N7  UNL     1      41.275  35.159  56.540  1.00  0.00    -0.036 N 
HETATM   29  C11 UNL     1      41.273  35.377  57.858  1.00  0.00     0.718 A 
HETATM   30  N9  UNL     1      40.639  36.315  58.487  1.00  0.00    -0.231 N 
ATOM     31  H92 UNL     1      40.637  36.482  59.493  1.00  0.00     0.174 HD
ATOM     32  H91 UNL     1      40.053  37.008  58.020  1.00  0.00     0.174 HD
BRANCH  28  33
HETATM   33  N8  UNL     1      40.572  35.926  55.595  1.00  0.00    -0.320 N 
ATOM     34  H82 UNL     1      39.692  36.409  55.770  1.00  0.00     0.178 HD
ATOM     35  H81 UNL     1      40.823  36.111  54.624  1.00  0.00     0.178 HD
ENDBRANCH  28  33
ENDBRANCH  22  23
ENDBRANCH  20  22
ENDBRANCH   2  20
TORSDOF 8
ENDMDL
MODEL 5
REMARK VINA RESULT: -7.927512303      1.615      7.297
REMARK  8 active torsions:
REMARK  status: ('A' for Active; 'I' for Inactive)
REMARK    1  A    between atoms: C2_2  and  N1_3 
REMARK    2  A    between atoms: C2_2  and  C8_20 
REMARK    3  A    between atoms: N1_3  and  C3_5 
REMARK    4  A    between atoms: C5_12  and  N4_13 
REMARK    5  A    between atoms: C7_17  and  O3_18 
REMARK    6  A    between atoms: C8_20  and  C9_22 
REMARK    7  A    between atoms: C9_22  and  N5_23 
REMARK    8  A    between atoms: N7_28  and  N8_29 
ROOT
HETATM    1  C1  UNL     1      41.657  31.181  61.750  1.00  0.00     0.072 C 
HETATM    2  C2  UNL     1      41.669  32.630  62.051  1.00  0.00     0.055 C 
ENDROOT
BRANCH   2   3
HETATM    3  N1  UNL     1      42.376  33.464  61.386  1.00  0.00    -0.341 N 
ATOM      4  H1  UNL     1      43.098  33.966  61.902  1.00  0.00     0.167 HD
BRANCH   3   5
HETATM    5  C3  UNL     1      42.259  33.756  60.024  1.00  0.00     0.141 A 
HETATM    6  N2  UNL     1      41.268  34.528  59.575  1.00  0.00    -0.325 N 
HETATM    7  C4  UNL     1      41.116  34.837  58.269  1.00  0.00     0.134 A 
ATOM      8  H2  UNL     1      40.598  34.901  60.247  1.00  0.00     0.169 HD
HETATM    9  N3  UNL     1      40.165  35.583  57.823  1.00  0.00    -0.383 N 
HETATM   10  C5  UNL     1      42.018  34.339  57.360  1.00  0.00     0.149 A 
ATOM     11  H32 UNL     1      39.495  35.953  58.498  1.00  0.00     0.157 HD
ATOM     12  H31 UNL     1      40.050  35.817  56.837  1.00  0.00     0.157 HD
HETATM   13  C6  UNL     1      43.041  33.547  57.779  1.00  0.00     0.080 A 
HETATM   14  C7  UNL     1      43.166  33.251  59.131  1.00  0.00     0.112 A 
BRANCH  10  15
HETATM   15  N4  UNL     1      41.921  34.622  55.970  1.00  0.00    -0.112 N 
HETATM   16  O1  UNL     1      41.307  33.879  55.180  1.00  0.00    -0.532 OA
HETATM   17  O2  UNL     1      42.527  35.757  55.484  1.00  0.00    -0.532 OA
ENDBRANCH  10  15
BRANCH  14  18
HETATM   18  O3  UNL     1      44.212  32.443  59.556  1.00  0.00    -0.357 OA
ATOM     19  H3  UNL     1      44.955  32.268  58.990  1.00  0.00     0.218 HD
ENDBRANCH  14  18
ENDBRANCH   3   5
ENDBRANCH   2   3
BRANCH   2  20
HETATM   20  C8  UNL     1      40.850  33.114  63.137  1.00  0.00     0.191 C 
HETATM   21  O4  UNL     1      40.542  32.376  64.130  1.00  0.00    -0.289 OA
BRANCH  20  22
HETATM   22  C9  UNL     1      40.354  34.506  63.098  1.00  0.00     0.253 C 
BRANCH  22  23
HETATM   23  N5  UNL     1      40.938  35.344  64.118  1.00  0.00    -0.111 N 
HETATM   24  N6  UNL     1      40.949  35.142  65.431  1.00  0.00    -0.232 N 
HETATM   25  C10 UNL     1      41.601  36.168  66.031  1.00  0.00     0.375 A 
ATOM     26  H6  UNL     1      40.534  34.344  65.911  1.00  0.00     0.192 HD
HETATM   27  O5  UNL     1      41.813  36.326  67.274  1.00  0.00    -0.243 OA
HETATM   28  N7  UNL     1      41.999  37.019  65.071  1.00  0.00    -0.036 N 
HETATM   29  C11 UNL     1      41.590  36.508  63.906  1.00  0.00     0.718 A 
HETATM   30  N9  UNL     1      41.771  37.021  62.730  1.00  0.00    -0.231 N 
ATOM     31  H92 UNL     1      41.459  36.631  61.841  1.00  0.00     0.174 HD
ATOM     32  H91 UNL     1      42.263  37.900  62.570  1.00  0.00     0.174 HD
BRANCH  28  33
HETATM   33  N8  UNL     1      42.709  38.222  65.220  1.00  0.00    -0.320 N 
ATOM     34  H82 UNL     1      43.403  38.577  64.562  1.00  0.00     0.178 HD
ATOM     35  H81 UNL     1      42.646  38.900  65.979  1.00  0.00     0.178 HD
ENDBRANCH  28  33
ENDBRANCH  22  23
ENDBRANCH  20  22
ENDBRANCH   2  20
TORSDOF 8
ENDMDL
