MODEL 1
REMARK VINA RESULT: -9.584196615      0.000      0.000
REMARK  12 active torsions:
REMARK  status: ('A' for Active; 'I' for Inactive)
REMARK    1  A    between atoms: C4_8  and  C5_9 
REMARK    2  A    between atoms: C5_9  and  O1_10 
REMARK    3  A    between atoms: C5_9  and  N2_12 
REMARK    4  A    between atoms: N2_12  and  C6_14 
REMARK    5  A    between atoms: C9_17  and  C10_18 
REMARK    6  A    between atoms: C13_27  and  C14_28 
REMARK    7  A    between atoms: C14_28  and  N7_29 
REMARK    8  A    between atoms: C14_28  and  C15_33 
REMARK    9  A    between atoms: C15_33  and  C16_35 
REMARK       I    between atoms: C16_35  and  N8_37 
REMARK   10  A    between atoms: C18_39  and  C19_40 
REMARK   11  A    between atoms: C19_40  and  N9_41 
REMARK   12  A    between atoms: C19_40  and  N10_45 
ROOT
HETATM    1  N1  UNL     1      75.916  -8.799   8.506  1.00  0.00    -0.385 N 
ATOM      2  H11 UNL     1      76.934  -8.728   8.533  1.00  0.00     0.157 HD
ATOM      3  H12 UNL     1      75.342  -8.129   9.017  1.00  0.00     0.157 HD
HETATM    4  C1  UNL     1      75.291  -9.732   7.831  1.00  0.00     0.100 A 
HETATM    5  C2  UNL     1      73.923  -9.827   7.796  1.00  0.00     0.068 A 
HETATM    6  C3  UNL     1      73.346 -10.831   7.070  1.00  0.00     0.032 A 
HETATM    7  S1  UNL     1      71.568 -11.032   6.966  1.00  0.00    -0.051 SA
HETATM    8  C4  UNL     1      74.129 -11.777   6.351  1.00  0.00     0.058 A 
HETATM    9  C13 UNL     1      75.464 -11.618   6.430  1.00  0.00     0.065 A 
HETATM   10  N13 UNL     1      76.045 -10.611   7.161  1.00  0.00    -0.343 N 
ATOM     11  H13 UNL     1      77.062 -10.534   7.194  1.00  0.00     0.167 HD
ENDROOT
BRANCH   9  12
HETATM   12  C14 UNL     1      76.419 -12.476   5.688  1.00  0.00     0.313 C 
BRANCH  12  13
HETATM   13  N7  UNL     1      77.343 -13.024   6.627  1.00  0.00    -0.062 N 
ATOM     14  H73 UNL     1      78.315 -12.854   6.368  1.00  0.00     0.275 HD
ATOM     15  H72 UNL     1      77.347 -12.523   7.515  1.00  0.00     0.275 HD
ATOM     16  H71 UNL     1      77.132 -14.016   6.736  1.00  0.00     0.275 HD
ENDBRANCH  12  13
BRANCH  12  17
HETATM   17  C15 UNL     1      77.147 -11.503   4.764  1.00  0.00     0.255 C 
HETATM   18  O2  UNL     1      76.373 -10.946   3.936  1.00  0.00    -0.284 OA
BRANCH  17  19
HETATM   19  C16 UNL     1      78.569 -11.264   4.847  1.00  0.00     0.315 C 
HETATM   20  O3  UNL     1      79.057 -10.904   5.952  1.00  0.00    -0.262 OA
HETATM   21  N8  UNL     1      79.454 -11.411   3.754  1.00  0.00    -0.212 N 
HETATM   22  C17 UNL     1      79.200 -11.777   2.488  1.00  0.00     0.152 A 
HETATM   23  N12 UNL     1      80.760 -11.193   3.823  1.00  0.00    -0.233 N 
HETATM   24  C18 UNL     1      80.387 -11.782   1.767  1.00  0.00     0.102 A 
HETATM   25  N11 UNL     1      81.320 -11.408   2.657  1.00  0.00    -0.285 N 
ATOM     26  H11 UNL     1      82.315 -11.307   2.457  1.00  0.00     0.188 HD
ATOM     27  H12 UNL     1      81.258 -10.899   4.664  1.00  0.00     0.209 HD
BRANCH  24  28
HETATM   28  C19 UNL     1      80.643 -12.105   0.360  1.00  0.00     0.430 C 
BRANCH  28  29
HETATM   29  N9  UNL     1      81.587 -11.182  -0.245  1.00  0.00    -0.045 N 
ATOM     30  H93 UNL     1      81.199 -10.755  -1.085  1.00  0.00     0.277 HD
ATOM     31  H92 UNL     1      81.701 -10.343   0.324  1.00  0.00     0.277 HD
ATOM     32  H91 UNL     1      82.485 -11.626  -0.436  1.00  0.00     0.277 HD
ENDBRANCH  28  29
BRANCH  28  33
HETATM   33  N10 UNL     1      81.204 -13.444   0.196  1.00  0.00    -0.045 N 
ATOM     34 3H10 UNL     1      80.851 -14.081   0.909  1.00  0.00     0.277 HD
ATOM     35 2H10 UNL     1      80.827 -13.903  -0.633  1.00  0.00     0.277 HD
ATOM     36 1H10 UNL     1      82.224 -13.434   0.181  1.00  0.00     0.277 HD
ENDBRANCH  28  33
ENDBRANCH  24  28
ENDBRANCH  17  19
ENDBRANCH  12  17
ENDBRANCH   9  12
BRANCH   8  37
HETATM   37  C5  UNL     1      73.457 -12.787   5.576  1.00  0.00     0.154 C 
BRANCH  37  38
HETATM   38  O1  UNL     1      73.061 -13.796   6.306  1.00  0.00    -0.345 OA
ATOM     39  H1  UNL     1      73.469 -13.806   7.163  1.00  0.00     0.219 HD
ENDBRANCH  37  38
BRANCH  37  40
HETATM   40  N2  UNL     1      73.168 -12.889   4.232  1.00  0.00    -0.336 N 
ATOM     41  H2  UNL     1      72.254 -12.576   3.904  1.00  0.00     0.168 HD
BRANCH  40  42
HETATM   42  C6  UNL     1      74.089 -13.413   3.284  1.00  0.00     0.034 A 
HETATM   43  C7  UNL     1      74.129 -12.992   1.991  1.00  0.00     0.030 A 
HETATM   44  C8  UNL     1      75.039 -13.565   1.082  1.00  0.00     0.017 A 
HETATM   45  C9  UNL     1      75.911 -14.556   1.459  1.00  0.00     0.010 A 
HETATM   46  C11 UNL     1      75.880 -14.989   2.765  1.00  0.00     0.017 A 
HETATM   47  C12 UNL     1      74.983 -14.415   3.634  1.00  0.00     0.030 A 
BRANCH  45  48
HETATM   48  C10 UNL     1      76.838 -15.119   0.476  1.00  0.00     0.141 A 
HETATM   49  N3  UNL     1      78.158 -14.921   0.500  1.00  0.00    -0.270 N 
HETATM   50  N4  UNL     1      78.718 -15.565  -0.528  1.00  0.00    -0.007 NA
ATOM     51  H3  UNL     1      78.660 -14.365   1.193  1.00  0.00     0.185 HD
HETATM   52  N5  UNL     1      77.724 -16.158  -1.179  1.00  0.00    -0.007 NA
HETATM   53  N6  UNL     1      76.575 -15.895  -0.578  1.00  0.00    -0.270 N 
ATOM     54  H6  UNL     1      75.654 -16.225  -0.868  1.00  0.00     0.185 HD
ENDBRANCH  45  48
ENDBRANCH  40  42
ENDBRANCH  37  40
ENDBRANCH   8  37
TORSDOF 12
ENDMDL
MODEL 2
REMARK VINA RESULT: -9.398771016      2.683      6.119
REMARK  12 active torsions:
REMARK  status: ('A' for Active; 'I' for Inactive)
REMARK    1  A    between atoms: C4_8  and  C5_9 
REMARK    2  A    between atoms: C5_9  and  O1_10 
REMARK    3  A    between atoms: C5_9  and  N2_12 
REMARK    4  A    between atoms: N2_12  and  C6_14 
REMARK    5  A    between atoms: C9_17  and  C10_18 
REMARK    6  A    between atoms: C13_27  and  C14_28 
REMARK    7  A    between atoms: C14_28  and  N7_29 
REMARK    8  A    between atoms: C14_28  and  C15_33 
REMARK    9  A    between atoms: C15_33  and  C16_35 
REMARK       I    between atoms: C16_35  and  N8_37 
REMARK   10  A    between atoms: C18_39  and  C19_40 
REMARK   11  A    between atoms: C19_40  and  N9_41 
REMARK   12  A    between atoms: C19_40  and  N10_45 
ROOT
HETATM    1  N1  UNL     1      71.622 -11.839   1.357  1.00  0.00    -0.385 N 
ATOM      2  H11 UNL     1      71.272 -11.248   2.112  1.00  0.00     0.157 HD
ATOM      3  H12 UNL     1      71.210 -11.780   0.427  1.00  0.00     0.157 HD
HETATM    4  C1  UNL     1      72.601 -12.693   1.526  1.00  0.00     0.100 A 
HETATM    5  C2  UNL     1      73.071 -13.487   0.511  1.00  0.00     0.068 A 
HETATM    6  C3  UNL     1      74.096 -14.355   0.766  1.00  0.00     0.032 A 
HETATM    7  S1  UNL     1      74.774 -15.430  -0.497  1.00  0.00    -0.051 SA
HETATM    8  C4  UNL     1      74.684 -14.454   2.058  1.00  0.00     0.058 A 
HETATM    9  C13 UNL     1      74.173 -13.642   3.003  1.00  0.00     0.065 A 
HETATM   10  N13 UNL     1      73.142 -12.771   2.747  1.00  0.00    -0.343 N 
ATOM     11  H13 UNL     1      72.786 -12.177   3.496  1.00  0.00     0.167 HD
ENDROOT
BRANCH   9  12
HETATM   12  C14 UNL     1      74.715 -13.572   4.381  1.00  0.00     0.313 C 
BRANCH  12  13
HETATM   13  N7  UNL     1      73.702 -14.022   5.279  1.00  0.00    -0.062 N 
ATOM     14  H73 UNL     1      73.849 -13.695   6.234  1.00  0.00     0.275 HD
ATOM     15  H72 UNL     1      72.801 -13.571   5.116  1.00  0.00     0.275 HD
ATOM     16  H71 UNL     1      73.650 -15.039   5.214  1.00  0.00     0.275 HD
ENDBRANCH  12  13
BRANCH  12  17
HETATM   17  C15 UNL     1      74.969 -12.083   4.603  1.00  0.00     0.255 C 
HETATM   18  O2  UNL     1      75.574 -11.543   3.635  1.00  0.00    -0.284 OA
BRANCH  17  19
HETATM   19  C16 UNL     1      74.553 -11.391   5.799  1.00  0.00     0.315 C 
HETATM   20  O3  UNL     1      73.326 -11.149   5.962  1.00  0.00    -0.262 OA
HETATM   21  N8  UNL     1      75.446 -10.964   6.809  1.00  0.00    -0.212 N 
HETATM   22  C17 UNL     1      76.780 -11.092   6.884  1.00  0.00     0.152 A 
HETATM   23  N12 UNL     1      75.071 -10.327   7.910  1.00  0.00    -0.233 N 
HETATM   24  C18 UNL     1      77.228 -10.517   8.066  1.00  0.00     0.102 A 
HETATM   25  N11 UNL     1      76.114 -10.058   8.658  1.00  0.00    -0.285 N 
ATOM     26  H11 UNL     1      76.083  -9.574   9.555  1.00  0.00     0.188 HD
ATOM     27  H12 UNL     1      74.109 -10.081   8.142  1.00  0.00     0.209 HD
BRANCH  24  28
HETATM   28  C19 UNL     1      78.584 -10.396   8.610  1.00  0.00     0.430 C 
BRANCH  28  29
HETATM   29  N9  UNL     1      79.596 -10.515   7.576  1.00  0.00    -0.045 N 
ATOM     30  H93 UNL     1      79.664 -11.473   7.232  1.00  0.00     0.277 HD
ATOM     31  H92 UNL     1      79.300 -10.056   6.714  1.00  0.00     0.277 HD
ATOM     32  H91 UNL     1      80.504 -10.169   7.888  1.00  0.00     0.277 HD
ENDBRANCH  28  29
BRANCH  28  33
HETATM   33  N10 UNL     1      78.804  -9.109   9.263  1.00  0.00    -0.045 N 
ATOM     34 3H10 UNL     1      78.013  -8.482   9.117  1.00  0.00     0.277 HD
ATOM     35 2H10 UNL     1      78.755  -9.196  10.278  1.00  0.00     0.277 HD
ATOM     36 1H10 UNL     1      79.680  -8.674   8.972  1.00  0.00     0.277 HD
ENDBRANCH  28  33
ENDBRANCH  24  28
ENDBRANCH  17  19
ENDBRANCH  12  17
ENDBRANCH   9  12
BRANCH   8  37
HETATM   37  C5  UNL     1      75.784 -15.363   2.252  1.00  0.00     0.154 C 
BRANCH  37  38
HETATM   38  O1  UNL     1      75.449 -16.606   2.033  1.00  0.00    -0.345 OA
ATOM     39  H1  UNL     1      75.336 -17.098   2.838  1.00  0.00     0.219 HD
ENDBRANCH  37  38
BRANCH  37  40
HETATM   40  N2  UNL     1      77.097 -15.168   2.625  1.00  0.00    -0.336 N 
ATOM     41  H2  UNL     1      77.476 -15.729   3.388  1.00  0.00     0.168 HD
BRANCH  40  42
HETATM   42  C6  UNL     1      77.944 -14.218   1.991  1.00  0.00     0.034 A 
HETATM   43  C7  UNL     1      78.326 -13.059   2.592  1.00  0.00     0.030 A 
HETATM   44  C8  UNL     1      79.141 -12.135   1.910  1.00  0.00     0.017 A 
HETATM   45  C9  UNL     1      79.579 -12.366   0.630  1.00  0.00     0.010 A 
HETATM   46  C11 UNL     1      79.201 -13.536   0.012  1.00  0.00     0.017 A 
HETATM   47  C12 UNL     1      78.405 -14.421   0.697  1.00  0.00     0.030 A 
BRANCH  45  48
HETATM   48  C10 UNL     1      80.425 -11.374  -0.036  1.00  0.00     0.141 A 
HETATM   49  N3  UNL     1      79.978 -10.507  -0.949  1.00  0.00    -0.270 N 
HETATM   50  N4  UNL     1      80.993  -9.742  -1.363  1.00  0.00    -0.007 NA
ATOM     51  H3  UNL     1      79.015 -10.441  -1.278  1.00  0.00     0.185 HD
HETATM   52  N5  UNL     1      82.063 -10.153  -0.692  1.00  0.00    -0.007 NA
HETATM   53  N6  UNL     1      81.731 -11.145   0.118  1.00  0.00    -0.270 N 
ATOM     54  H6  UNL     1      82.360 -11.645   0.747  1.00  0.00     0.185 HD
ENDBRANCH  45  48
ENDBRANCH  40  42
ENDBRANCH  37  40
ENDBRANCH   8  37
TORSDOF 12
ENDMDL
MODEL 3
REMARK VINA RESULT: -9.319243458      2.585      5.724
REMARK  12 active torsions:
REMARK  status: ('A' for Active; 'I' for Inactive)
REMARK    1  A    between atoms: C4_8  and  C5_9 
REMARK    2  A    between atoms: C5_9  and  O1_10 
REMARK    3  A    between atoms: C5_9  and  N2_12 
REMARK    4  A    between atoms: N2_12  and  C6_14 
REMARK    5  A    between atoms: C9_17  and  C10_18 
REMARK    6  A    between atoms: C13_27  and  C14_28 
REMARK    7  A    between atoms: C14_28  and  N7_29 
REMARK    8  A    between atoms: C14_28  and  C15_33 
REMARK    9  A    between atoms: C15_33  and  C16_35 
REMARK       I    between atoms: C16_35  and  N8_37 
REMARK   10  A    between atoms: C18_39  and  C19_40 
REMARK   11  A    between atoms: C19_40  and  N9_41 
REMARK   12  A    between atoms: C19_40  and  N10_45 
ROOT
HETATM    1  N1  UNL     1      81.642 -10.707   4.927  1.00  0.00    -0.385 N 
ATOM      2  H11 UNL     1      81.986 -11.072   4.038  1.00  0.00     0.157 HD
ATOM      3  H12 UNL     1      82.219 -10.074   5.480  1.00  0.00     0.157 HD
HETATM    4  C1  UNL     1      80.464 -11.018   5.408  1.00  0.00     0.100 A 
HETATM    5  C2  UNL     1      80.001 -10.527   6.602  1.00  0.00     0.068 A 
HETATM    6  C3  UNL     1      78.760 -10.900   7.038  1.00  0.00     0.032 A 
HETATM    7  S1  UNL     1      78.075 -10.309   8.584  1.00  0.00    -0.051 SA
HETATM    8  C4  UNL     1      77.939 -11.783   6.282  1.00  0.00     0.058 A 
HETATM    9  C13 UNL     1      78.459 -12.221   5.119  1.00  0.00     0.065 A 
HETATM   10  N13 UNL     1      79.706 -11.848   4.682  1.00  0.00    -0.343 N 
ATOM     11  H13 UNL     1      80.058 -12.209   3.795  1.00  0.00     0.167 HD
ENDROOT
BRANCH   9  12
HETATM   12  C14 UNL     1      77.708 -13.091   4.183  1.00  0.00     0.313 C 
BRANCH  12  13
HETATM   13  N7  UNL     1      78.265 -14.403   4.255  1.00  0.00    -0.062 N 
ATOM     14  H73 UNL     1      79.215 -14.449   3.885  1.00  0.00     0.275 HD
ATOM     15  H72 UNL     1      78.476 -14.690   5.211  1.00  0.00     0.275 HD
ATOM     16  H71 UNL     1      77.627 -15.044   3.783  1.00  0.00     0.275 HD
ENDBRANCH  12  13
BRANCH  12  17
HETATM   17  C15 UNL     1      77.995 -12.490   2.810  1.00  0.00     0.255 C 
HETATM   18  O2  UNL     1      77.542 -11.317   2.687  1.00  0.00    -0.284 OA
BRANCH  17  19
HETATM   19  C16 UNL     1      78.709 -13.205   1.778  1.00  0.00     0.315 C 
HETATM   20  O3  UNL     1      79.923 -12.929   1.582  1.00  0.00    -0.262 OA
HETATM   21  N8  UNL     1      78.123 -14.205   0.968  1.00  0.00    -0.212 N 
HETATM   22  C17 UNL     1      76.869 -14.683   0.969  1.00  0.00     0.152 A 
HETATM   23  N12 UNL     1      78.772 -14.865   0.019  1.00  0.00    -0.233 N 
HETATM   24  C18 UNL     1      76.754 -15.664  -0.008  1.00  0.00     0.102 A 
HETATM   25  N11 UNL     1      77.974 -15.728  -0.563  1.00  0.00    -0.285 N 
ATOM     26  H11 UNL     1      78.241 -16.353  -1.323  1.00  0.00     0.188 HD
ATOM     27  H12 UNL     1      79.753 -14.723  -0.223  1.00  0.00     0.209 HD
BRANCH  24  28
HETATM   28  C19 UNL     1      75.602 -16.481  -0.403  1.00  0.00     0.430 C 
BRANCH  28  29
HETATM   29  N9  UNL     1      74.349 -15.914   0.062  1.00  0.00    -0.045 N 
ATOM     30  H93 UNL     1      74.393 -14.895   0.095  1.00  0.00     0.277 HD
ATOM     31  H92 UNL     1      73.613 -16.021  -0.635  1.00  0.00     0.277 HD
ATOM     32  H91 UNL     1      74.067 -16.301   0.963  1.00  0.00     0.277 HD
ENDBRANCH  28  29
BRANCH  28  33
HETATM   33  N10 UNL     1      75.489 -16.609  -1.854  1.00  0.00    -0.045 N 
ATOM     34 3H10 UNL     1      75.335 -15.702  -2.293  1.00  0.00     0.277 HD
ATOM     35 2H10 UNL     1      76.388 -16.842  -2.275  1.00  0.00     0.277 HD
ATOM     36 1H10 UNL     1      74.769 -17.279  -2.126  1.00  0.00     0.277 HD
ENDBRANCH  28  33
ENDBRANCH  24  28
ENDBRANCH  17  19
ENDBRANCH  12  17
ENDBRANCH   9  12
BRANCH   8  37
HETATM   37  C5  UNL     1      76.628 -12.107   6.780  1.00  0.00     0.154 C 
BRANCH  37  38
HETATM   38  O1  UNL     1      76.639 -13.135   7.586  1.00  0.00    -0.345 OA
ATOM     39  H1  UNL     1      76.238 -12.943   8.426  1.00  0.00     0.219 HD
ENDBRANCH  37  38
BRANCH  37  40
HETATM   40  N2  UNL     1      75.386 -11.549   6.561  1.00  0.00    -0.336 N 
ATOM     41  H2  UNL     1      75.272 -10.544   6.691  1.00  0.00     0.168 HD
BRANCH  40  42
HETATM   42  C6  UNL     1      74.257 -12.316   6.162  1.00  0.00     0.034 A 
HETATM   43  C7  UNL     1      73.018 -12.127   6.690  1.00  0.00     0.030 A 
HETATM   44  C8  UNL     1      71.938 -12.934   6.284  1.00  0.00     0.017 A 
HETATM   45  C9  UNL     1      72.091 -13.931   5.351  1.00  0.00     0.010 A 
HETATM   46  C11 UNL     1      73.340 -14.131   4.810  1.00  0.00     0.017 A 
HETATM   47  C12 UNL     1      74.378 -13.331   5.221  1.00  0.00     0.030 A 
BRANCH  45  48
HETATM   48  C10 UNL     1      70.936 -14.743   4.963  1.00  0.00     0.141 A 
HETATM   49  N3  UNL     1      70.756 -15.241   3.737  1.00  0.00    -0.270 N 
HETATM   50  N4  UNL     1      69.613 -15.932   3.707  1.00  0.00    -0.007 NA
ATOM     51  H3  UNL     1      71.390 -15.113   2.948  1.00  0.00     0.185 HD
HETATM   52  N5  UNL     1      69.099 -15.850   4.929  1.00  0.00    -0.007 NA
HETATM   53  N6  UNL     1      69.894 -15.129   5.702  1.00  0.00    -0.270 N 
ATOM     54  H6  UNL     1      69.739 -14.908   6.686  1.00  0.00     0.185 HD
ENDBRANCH  45  48
ENDBRANCH  40  42
ENDBRANCH  37  40
ENDBRANCH   8  37
TORSDOF 12
ENDMDL
MODEL 4
REMARK VINA RESULT: -9.264793491      3.705      6.484
REMARK  12 active torsions:
REMARK  status: ('A' for Active; 'I' for Inactive)
REMARK    1  A    between atoms: C4_8  and  C5_9 
REMARK    2  A    between atoms: C5_9  and  O1_10 
REMARK    3  A    between atoms: C5_9  and  N2_12 
REMARK    4  A    between atoms: N2_12  and  C6_14 
REMARK    5  A    between atoms: C9_17  and  C10_18 
REMARK    6  A    between atoms: C13_27  and  C14_28 
REMARK    7  A    between atoms: C14_28  and  N7_29 
REMARK    8  A    between atoms: C14_28  and  C15_33 
REMARK    9  A    between atoms: C15_33  and  C16_35 
REMARK       I    between atoms: C16_35  and  N8_37 
REMARK   10  A    between atoms: C18_39  and  C19_40 
REMARK   11  A    between atoms: C19_40  and  N9_41 
REMARK   12  A    between atoms: C19_40  and  N10_45 
ROOT
HETATM    1  N1  UNL     1      79.904 -12.802   1.488  1.00  0.00    -0.385 N 
ATOM      2  H11 UNL     1      80.088 -12.138   2.241  1.00  0.00     0.157 HD
ATOM      3  H12 UNL     1      80.609 -12.976   0.773  1.00  0.00     0.157 HD
HETATM    4  C1  UNL     1      78.776 -13.462   1.390  1.00  0.00     0.100 A 
HETATM    5  C2  UNL     1      78.529 -14.355   0.379  1.00  0.00     0.068 A 
HETATM    6  C3  UNL     1      77.326 -15.003   0.344  1.00  0.00     0.032 A 
HETATM    7  S1  UNL     1      76.915 -16.185  -0.939  1.00  0.00    -0.051 SA
HETATM    8  C4  UNL     1      76.327 -14.774   1.332  1.00  0.00     0.058 A 
HETATM    9  C13 UNL     1      76.643 -13.888   2.295  1.00  0.00     0.065 A 
HETATM   10  N13 UNL     1      77.850 -13.234   2.329  1.00  0.00    -0.343 N 
ATOM     11  H13 UNL     1      78.043 -12.568   3.077  1.00  0.00     0.167 HD
ENDROOT
BRANCH   9  12
HETATM   12  C14 UNL     1      75.743 -13.586   3.434  1.00  0.00     0.313 C 
BRANCH  12  13
HETATM   13  N7  UNL     1      75.139 -12.315   3.196  1.00  0.00    -0.062 N 
ATOM     14  H73 UNL     1      75.793 -11.540   3.312  1.00  0.00     0.275 HD
ATOM     15  H72 UNL     1      74.917 -12.161   2.212  1.00  0.00     0.275 HD
ATOM     16  H71 UNL     1      74.321 -12.235   3.800  1.00  0.00     0.275 HD
ENDBRANCH  12  13
BRANCH  12  17
HETATM   17  C15 UNL     1      76.684 -13.487   4.632  1.00  0.00     0.255 C 
HETATM   18  O2  UNL     1      77.310 -14.562   4.848  1.00  0.00    -0.284 OA
BRANCH  17  19
HETATM   19  C16 UNL     1      76.823 -12.283   5.417  1.00  0.00     0.315 C 
HETATM   20  O3  UNL     1      75.815 -11.844   6.033  1.00  0.00    -0.262 OA
HETATM   21  N8  UNL     1      78.033 -11.562   5.540  1.00  0.00    -0.212 N 
HETATM   22  C17 UNL     1      79.236 -11.808   4.997  1.00  0.00     0.152 A 
HETATM   23  N12 UNL     1      78.168 -10.457   6.259  1.00  0.00    -0.233 N 
HETATM   24  C18 UNL     1      80.128 -10.822   5.399  1.00  0.00     0.102 A 
HETATM   25  N11 UNL     1      79.399 -10.011   6.183  1.00  0.00    -0.285 N 
ATOM     26  H11 UNL     1      79.750  -9.175   6.650  1.00  0.00     0.188 HD
ATOM     27  H12 UNL     1      77.421 -10.015   6.795  1.00  0.00     0.209 HD
BRANCH  24  28
HETATM   28  C19 UNL     1      81.548 -10.639   5.084  1.00  0.00     0.430 C 
BRANCH  28  29
HETATM   29  N9  UNL     1      82.392 -11.550   5.836  1.00  0.00    -0.045 N 
ATOM     30  H93 UNL     1      82.409 -11.306   6.826  1.00  0.00     0.277 HD
ATOM     31  H92 UNL     1      81.969 -12.475   5.906  1.00  0.00     0.277 HD
ATOM     32  H91 UNL     1      83.336 -11.601   5.452  1.00  0.00     0.277 HD
ENDBRANCH  28  29
BRANCH  28  33
HETATM   33  N10 UNL     1      81.834 -10.875   3.671  1.00  0.00    -0.045 N 
ATOM     34 3H10 UNL     1      81.777 -11.868   3.445  1.00  0.00     0.277 HD
ATOM     35 2H10 UNL     1      81.079 -10.530   3.079  1.00  0.00     0.277 HD
ATOM     36 1H10 UNL     1      82.733 -10.483   3.390  1.00  0.00     0.277 HD
ENDBRANCH  28  33
ENDBRANCH  24  28
ENDBRANCH  17  19
ENDBRANCH  12  17
ENDBRANCH   9  12
BRANCH   8  37
HETATM   37  C5  UNL     1      75.096 -15.517   1.258  1.00  0.00     0.154 C 
BRANCH  37  38
HETATM   38  O1  UNL     1      75.147 -16.637   1.929  1.00  0.00    -0.345 OA
ATOM     39  H1  UNL     1      74.427 -17.219   1.719  1.00  0.00     0.219 HD
ENDBRANCH  37  38
BRANCH  37  40
HETATM   40  N2  UNL     1      73.900 -15.274   0.618  1.00  0.00    -0.336 N 
ATOM     41  H2  UNL     1      73.902 -15.171  -0.397  1.00  0.00     0.168 HD
BRANCH  40  42
HETATM   42  C6  UNL     1      72.664 -15.160   1.311  1.00  0.00     0.034 A 
HETATM   43  C7  UNL     1      72.340 -14.072   2.060  1.00  0.00     0.030 A 
HETATM   44  C8  UNL     1      71.116 -14.021   2.754  1.00  0.00     0.017 A 
HETATM   45  C9  UNL     1      70.212 -15.054   2.702  1.00  0.00     0.010 A 
HETATM   46  C11 UNL     1      70.529 -16.159   1.946  1.00  0.00     0.017 A 
HETATM   47  C12 UNL     1      71.729 -16.186   1.278  1.00  0.00     0.030 A 
BRANCH  45  48
HETATM   48  C10 UNL     1      68.953 -14.952   3.442  1.00  0.00     0.141 A 
HETATM   49  N3  UNL     1      67.757 -15.226   2.915  1.00  0.00    -0.270 N 
HETATM   50  N4  UNL     1      66.814 -15.038   3.843  1.00  0.00    -0.007 NA
ATOM     51  H3  UNL     1      67.589 -15.531   1.956  1.00  0.00     0.185 HD
HETATM   52  N5  UNL     1      67.449 -14.645   4.941  1.00  0.00    -0.007 NA
HETATM   53  N6  UNL     1      68.751 -14.589   4.710  1.00  0.00    -0.270 N 
ATOM     54  H6  UNL     1      69.470 -14.318   5.380  1.00  0.00     0.185 HD
ENDBRANCH  45  48
ENDBRANCH  40  42
ENDBRANCH  37  40
ENDBRANCH   8  37
TORSDOF 12
ENDMDL
MODEL 5
REMARK VINA RESULT: -9.210146411      2.536      5.000
REMARK  12 active torsions:
REMARK  status: ('A' for Active; 'I' for Inactive)
REMARK    1  A    between atoms: C4_8  and  C5_9 
REMARK    2  A    between atoms: C5_9  and  O1_10 
REMARK    3  A    between atoms: C5_9  and  N2_12 
REMARK    4  A    between atoms: N2_12  and  C6_14 
REMARK    5  A    between atoms: C9_17  and  C10_18 
REMARK    6  A    between atoms: C13_27  and  C14_28 
REMARK    7  A    between atoms: C14_28  and  N7_29 
REMARK    8  A    between atoms: C14_28  and  C15_33 
REMARK    9  A    between atoms: C15_33  and  C16_35 
REMARK       I    between atoms: C16_35  and  N8_37 
REMARK   10  A    between atoms: C18_39  and  C19_40 
REMARK   11  A    between atoms: C19_40  and  N9_41 
REMARK   12  A    between atoms: C19_40  and  N10_45 
ROOT
HETATM    1  N1  UNL     1      81.495 -10.570   4.780  1.00  0.00    -0.385 N 
ATOM      2  H11 UNL     1      81.816 -10.859   3.856  1.00  0.00     0.157 HD
ATOM      3  H12 UNL     1      82.040  -9.903   5.327  1.00  0.00     0.157 HD
HETATM    4  C1  UNL     1      80.388 -11.021   5.316  1.00  0.00     0.100 A 
HETATM    5  C2  UNL     1      79.957 -10.631   6.559  1.00  0.00     0.068 A 
HETATM    6  C3  UNL     1      78.791 -11.149   7.050  1.00  0.00     0.032 A 
HETATM    7  S1  UNL     1      78.151 -10.698   8.662  1.00  0.00    -0.051 SA
HETATM    8  C4  UNL     1      78.016 -12.081   6.304  1.00  0.00     0.058 A 
HETATM    9  C13 UNL     1      78.501 -12.413   5.093  1.00  0.00     0.065 A 
HETATM   10  N13 UNL     1      79.673 -11.895   4.599  1.00  0.00    -0.343 N 
ATOM     11  H13 UNL     1      80.001 -12.180   3.676  1.00  0.00     0.167 HD
ENDROOT
BRANCH   9  12
HETATM   12  C14 UNL     1      77.783 -13.318   4.162  1.00  0.00     0.313 C 
BRANCH  12  13
HETATM   13  N7  UNL     1      78.404 -14.601   4.224  1.00  0.00    -0.062 N 
ATOM     14  H73 UNL     1      78.922 -14.746   5.092  1.00  0.00     0.275 HD
ATOM     15  H72 UNL     1      77.732 -15.360   4.337  1.00  0.00     0.275 HD
ATOM     16  H71 UNL     1      78.986 -14.711   3.395  1.00  0.00     0.275 HD
ENDBRANCH  12  13
BRANCH  12  17
HETATM   17  C15 UNL     1      78.024 -12.700   2.787  1.00  0.00     0.255 C 
HETATM   18  O2  UNL     1      77.557 -11.531   2.691  1.00  0.00    -0.284 OA
BRANCH  17  19
HETATM   19  C16 UNL     1      78.714 -13.398   1.728  1.00  0.00     0.315 C 
HETATM   20  O3  UNL     1      79.935 -13.149   1.536  1.00  0.00    -0.262 OA
HETATM   21  N8  UNL     1      78.098 -14.353   0.887  1.00  0.00    -0.212 N 
HETATM   22  C17 UNL     1      76.831 -14.796   0.877  1.00  0.00     0.152 A 
HETATM   23  N12 UNL     1      78.725 -14.997  -0.087  1.00  0.00    -0.233 N 
HETATM   24  C18 UNL     1      76.685 -15.738  -0.134  1.00  0.00     0.102 A 
HETATM   25  N11 UNL     1      77.901 -15.816  -0.696  1.00  0.00    -0.285 N 
ATOM     26  H11 UNL     1      78.148 -16.422  -1.479  1.00  0.00     0.188 HD
ATOM     27  H12 UNL     1      79.708 -14.873  -0.329  1.00  0.00     0.209 HD
BRANCH  24  28
HETATM   28  C19 UNL     1      75.510 -16.509  -0.552  1.00  0.00     0.430 C 
BRANCH  28  29
HETATM   29  N9  UNL     1      74.381 -15.651  -0.863  1.00  0.00    -0.045 N 
ATOM     30  H93 UNL     1      74.498 -14.723  -0.456  1.00  0.00     0.277 HD
ATOM     31  H92 UNL     1      74.373 -15.394  -1.850  1.00  0.00     0.277 HD
ATOM     32  H91 UNL     1      73.494 -16.069  -0.581  1.00  0.00     0.277 HD
ENDBRANCH  28  29
BRANCH  28  33
HETATM   33  N10 UNL     1      75.771 -17.306  -1.747  1.00  0.00    -0.045 N 
ATOM     34 3H10 UNL     1      75.194 -16.997  -2.529  1.00  0.00     0.277 HD
ATOM     35 2H10 UNL     1      76.692 -17.101  -2.134  1.00  0.00     0.277 HD
ATOM     36 1H10 UNL     1      75.657 -18.306  -1.576  1.00  0.00     0.277 HD
ENDBRANCH  28  33
ENDBRANCH  24  28
ENDBRANCH  17  19
ENDBRANCH  12  17
ENDBRANCH   9  12
BRANCH   8  37
HETATM   37  C5  UNL     1      76.780 -12.560   6.864  1.00  0.00     0.154 C 
BRANCH  37  38
HETATM   38  O1  UNL     1      76.963 -13.512   7.740  1.00  0.00    -0.345 OA
ATOM     39  H1  UNL     1      77.363 -14.284   7.358  1.00  0.00     0.219 HD
ENDBRANCH  37  38
BRANCH  37  40
HETATM   40  N2  UNL     1      75.464 -12.212   6.646  1.00  0.00    -0.336 N 
ATOM     41  H2  UNL     1      74.982 -11.655   7.352  1.00  0.00     0.168 HD
BRANCH  40  42
HETATM   42  C6  UNL     1      74.749 -12.599   5.479  1.00  0.00     0.034 A 
HETATM   43  C7  UNL     1      74.289 -13.864   5.285  1.00  0.00     0.030 A 
HETATM   44  C8  UNL     1      73.614 -14.205   4.097  1.00  0.00     0.017 A 
HETATM   45  C9  UNL     1      73.394 -13.284   3.102  1.00  0.00     0.010 A 
HETATM   46  C11 UNL     1      73.852 -12.000   3.288  1.00  0.00     0.017 A 
HETATM   47  C12 UNL     1      74.509 -11.692   4.455  1.00  0.00     0.030 A 
BRANCH  45  48
HETATM   48  C10 UNL     1      72.686 -13.688   1.886  1.00  0.00     0.141 A 
HETATM   49  N3  UNL     1      72.597 -12.929   0.791  1.00  0.00    -0.270 N 
HETATM   50  N4  UNL     1      71.889 -13.579  -0.138  1.00  0.00    -0.007 NA
ATOM     51  H3  UNL     1      73.004 -12.000   0.681  1.00  0.00     0.185 HD
HETATM   52  N5  UNL     1      71.548 -14.743   0.404  1.00  0.00    -0.007 NA
HETATM   53  N6  UNL     1      72.027 -14.821   1.634  1.00  0.00    -0.270 N 
ATOM     54  H6  UNL     1      71.913 -15.606   2.276  1.00  0.00     0.185 HD
ENDBRANCH  45  48
ENDBRANCH  40  42
ENDBRANCH  37  40
ENDBRANCH   8  37
TORSDOF 12
ENDMDL
