MODEL 1
REMARK VINA RESULT: -9.027146137      0.000      0.000
REMARK  11 active torsions:
REMARK  status: ('A' for Active; 'I' for Inactive)
REMARK    1  A    between atoms: N1_2  and  C2_3 
REMARK    2  A    between atoms: N1_2  and  C4_7 
REMARK    3  A    between atoms: C2_3  and  C3_4 
REMARK    4  A    between atoms: C3_4  and  O1_5 
REMARK    5  A    between atoms: C5_10  and  N3_11 
REMARK    6  A    between atoms: C8_17  and  C9_18 
REMARK    7  A    between atoms: C9_18  and  O2_19 
REMARK    8  A    between atoms: O2_19  and  C10_20 
REMARK    9  A    between atoms: C12_22  and  N5_23 
REMARK   10  A    between atoms: N7_31  and  N8_33 
REMARK       I    between atoms: N9_36  and  C16_37 
REMARK   11  A    between atoms: C17_42  and  N12_43 
ROOT
HETATM    1  C4  UNL     1      75.977 -14.145   1.995  1.00  0.00     0.681 A 
HETATM    2  N2  UNL     1      75.871 -14.795   0.781  1.00  0.00    -0.175 N 
ATOM      3  H2  UNL     1      76.648 -15.346   0.420  1.00  0.00     0.186 HD
HETATM    4  C5  UNL     1      74.718 -14.688   0.079  1.00  0.00     0.137 A 
HETATM    5  C6  UNL     1      73.687 -13.953   0.557  1.00  0.00     0.114 A 
HETATM    6  C7  UNL     1      72.465 -13.891  -0.183  1.00  0.00     0.105 C 
HETATM    7  N4  UNL     1      71.456 -13.870  -0.787  1.00  0.00    -0.191 NA
HETATM    8  C8  UNL     1      73.818 -13.292   1.810  1.00  0.00     0.075 A 
HETATM    9  N13 UNL     1      74.957 -13.422   2.472  1.00  0.00    -0.192 N 
ATOM     10  H13 UNL     1      75.061 -12.956   3.373  1.00  0.00     0.184 HD
ENDROOT
BRANCH   4  11
HETATM   11  N3  UNL     1      74.669 -15.362  -1.037  1.00  0.00    -0.384 N 
ATOM     12  H32 UNL     1      74.007 -16.118  -1.212  1.00  0.00     0.157 HD
ATOM     13  H31 UNL     1      75.369 -15.113  -1.736  1.00  0.00     0.157 HD
ENDBRANCH   4  11
BRANCH   8  14
HETATM   14  C9  UNL     1      72.692 -12.388   2.137  1.00  0.00     0.235 C 
BRANCH  14  15
HETATM   15  O2  UNL     1      71.912 -12.747   3.198  1.00  0.00    -0.343 OA
BRANCH  15  16
HETATM   16  C10 UNL     1      71.331 -13.922   3.575  1.00  0.00     0.107 A 
HETATM   17  C11 UNL     1      70.795 -14.836   2.732  1.00  0.00     0.077 A 
HETATM   18  C12 UNL     1      70.223 -16.060   3.120  1.00  0.00     0.135 A 
HETATM   19  C13 UNL     1      70.220 -16.363   4.471  1.00  0.00     0.122 A 
HETATM   20  C14 UNL     1      70.764 -15.428   5.377  1.00  0.00     0.115 A 
HETATM   21  N9  UNL     1      69.930 -17.445   5.194  1.00  0.00    -0.113 N 
HETATM   22  N6  UNL     1      70.773 -15.979   6.633  1.00  0.00    -0.185 N 
HETATM   23  C17 UNL     1      71.292 -14.248   4.950  1.00  0.00     0.165 A 
HETATM   24  C15 UNL     1      70.277 -17.184   6.507  1.00  0.00     0.706 A 
ATOM     25  H6  UNL     1      71.100 -15.539   7.493  1.00  0.00     0.184 HD
HETATM   26  N7  UNL     1      70.203 -18.118   7.438  1.00  0.00    -0.138 N 
ATOM     27  H7  UNL     1      69.789 -19.031   7.248  1.00  0.00     0.205 HD
HETATM   28  C16 UNL     1      69.445 -18.719   4.800  1.00  0.00     0.208 C 
HETATM   29  N10 UNL     1      68.311 -19.147   5.081  1.00  0.00    -0.373 N 
HETATM   30  N11 UNL     1      70.356 -19.623   4.094  1.00  0.00    -0.063 NA
ATOM     31 2H10 UNL     1      67.677 -18.517   5.573  1.00  0.00     0.158 HD
ATOM     32 1H10 UNL     1      67.962 -20.062   4.798  1.00  0.00     0.158 HD
BRANCH  18  33
HETATM   33  N5  UNL     1      69.663 -16.868   2.147  1.00  0.00    -0.113 N 
HETATM   34  O3  UNL     1      70.492 -17.193   1.200  1.00  0.00    -0.532 OA
HETATM   35  O4  UNL     1      68.450 -17.391   2.005  1.00  0.00    -0.532 OA
ENDBRANCH  18  33
BRANCH  26  36
HETATM   36  N8  UNL     1      70.723 -17.791   8.704  1.00  0.00    -0.331 N 
ATOM     37  H82 UNL     1      70.757 -16.821   9.019  1.00  0.00     0.177 HD
ATOM     38  H81 UNL     1      71.056 -18.566   9.278  1.00  0.00     0.177 HD
ENDBRANCH  26  36
BRANCH  23  39
HETATM   39  N12 UNL     1      71.778 -13.304   5.880  1.00  0.00    -0.110 N 
HETATM   40  O5  UNL     1      72.943 -13.384   6.288  1.00  0.00    -0.532 OA
HETATM   41  O6  UNL     1      70.949 -12.290   6.367  1.00  0.00    -0.532 OA
ENDBRANCH  23  39
ENDBRANCH  15  16
ENDBRANCH  14  15
ENDBRANCH   8  14
BRANCH   1  42
HETATM   42  N1  UNL     1      77.231 -14.250   2.632  1.00  0.00    -0.220 N 
HETATM   43  C1  UNL     1      78.292 -13.436   2.100  1.00  0.00     0.168 C 
BRANCH  42  44
HETATM   44  C2  UNL     1      77.351 -15.092   3.789  1.00  0.00     0.166 C 
BRANCH  44  45
HETATM   45  C3  UNL     1      76.938 -14.510   5.105  1.00  0.00     0.184 C 
BRANCH  45  46
HETATM   46  O1  UNL     1      75.581 -14.711   5.298  1.00  0.00    -0.399 OA
ATOM     47  H1  UNL     1      75.105 -14.444   4.521  1.00  0.00     0.209 HD
ENDBRANCH  45  46
ENDBRANCH  44  45
ENDBRANCH  42  44
ENDBRANCH   1  42
TORSDOF 11
ENDMDL
MODEL 2
REMARK VINA RESULT: -9.003384950      2.705      6.508
REMARK  11 active torsions:
REMARK  status: ('A' for Active; 'I' for Inactive)
REMARK    1  A    between atoms: N1_2  and  C2_3 
REMARK    2  A    between atoms: N1_2  and  C4_7 
REMARK    3  A    between atoms: C2_3  and  C3_4 
REMARK    4  A    between atoms: C3_4  and  O1_5 
REMARK    5  A    between atoms: C5_10  and  N3_11 
REMARK    6  A    between atoms: C8_17  and  C9_18 
REMARK    7  A    between atoms: C9_18  and  O2_19 
REMARK    8  A    between atoms: O2_19  and  C10_20 
REMARK    9  A    between atoms: C12_22  and  N5_23 
REMARK   10  A    between atoms: N7_31  and  N8_33 
REMARK       I    between atoms: N9_36  and  C16_37 
REMARK   11  A    between atoms: C17_42  and  N12_43 
ROOT
HETATM    1  C4  UNL     1      69.037 -16.033   3.132  1.00  0.00     0.681 A 
HETATM    2  N2  UNL     1      68.003 -16.098   2.219  1.00  0.00    -0.175 N 
ATOM      3  H2  UNL     1      67.457 -16.952   2.115  1.00  0.00     0.186 HD
HETATM    4  C5  UNL     1      67.726 -15.008   1.465  1.00  0.00     0.137 A 
HETATM    5  C6  UNL     1      68.452 -13.875   1.601  1.00  0.00     0.114 A 
HETATM    6  C7  UNL     1      68.111 -12.723   0.823  1.00  0.00     0.105 C 
HETATM    7  N4  UNL     1      67.804 -11.776   0.198  1.00  0.00    -0.191 NA
HETATM    8  C8  UNL     1      69.513 -13.830   2.548  1.00  0.00     0.075 A 
HETATM    9  N13 UNL     1      69.754 -14.912   3.271  1.00  0.00    -0.192 N 
ATOM     10  H13 UNL     1      70.508 -14.890   3.956  1.00  0.00     0.184 HD
ENDROOT
BRANCH   4  11
HETATM   11  N3  UNL     1      66.709 -15.123   0.655  1.00  0.00    -0.384 N 
ATOM     12  H32 UNL     1      66.563 -15.925   0.042  1.00  0.00     0.157 HD
ATOM     13  H31 UNL     1      66.063 -14.334   0.640  1.00  0.00     0.157 HD
ENDBRANCH   4  11
BRANCH   8  14
HETATM   14  C9  UNL     1      70.334 -12.600   2.478  1.00  0.00     0.235 C 
BRANCH  14  15
HETATM   15  O2  UNL     1      71.222 -12.402   3.496  1.00  0.00    -0.343 OA
BRANCH  15  16
HETATM   16  C10 UNL     1      72.472 -12.884   3.752  1.00  0.00     0.107 A 
HETATM   17  C11 UNL     1      73.214 -13.627   2.898  1.00  0.00     0.077 A 
HETATM   18  C12 UNL     1      74.514 -14.099   3.151  1.00  0.00     0.135 A 
HETATM   19  C13 UNL     1      75.087 -13.764   4.367  1.00  0.00     0.122 A 
HETATM   20  C14 UNL     1      74.336 -12.999   5.283  1.00  0.00     0.115 A 
HETATM   21  N9  UNL     1      76.305 -13.877   4.898  1.00  0.00    -0.113 N 
HETATM   22  N6  UNL     1      75.132 -12.681   6.354  1.00  0.00    -0.185 N 
HETATM   23  C17 UNL     1      73.074 -12.580   4.994  1.00  0.00     0.165 A 
HETATM   24  C15 UNL     1      76.305 -13.208   6.107  1.00  0.00     0.706 A 
ATOM     25  H6  UNL     1      74.864 -12.142   7.178  1.00  0.00     0.184 HD
HETATM   26  N7  UNL     1      77.412 -13.057   6.812  1.00  0.00    -0.138 N 
ATOM     27  H7  UNL     1      78.283 -13.517   6.545  1.00  0.00     0.205 HD
HETATM   28  C16 UNL     1      77.490 -14.462   4.380  1.00  0.00     0.208 C 
HETATM   29  N10 UNL     1      78.012 -15.494   4.839  1.00  0.00    -0.373 N 
HETATM   30  N11 UNL     1      78.193 -13.769   3.297  1.00  0.00    -0.063 NA
ATOM     31 2H10 UNL     1      77.522 -15.976   5.593  1.00  0.00     0.158 HD
ATOM     32 1H10 UNL     1      78.863 -15.915   4.467  1.00  0.00     0.158 HD
BRANCH  18  33
HETATM   33  N5  UNL     1      75.128 -14.895   2.202  1.00  0.00    -0.113 N 
HETATM   34  O3  UNL     1      75.451 -14.257   1.117  1.00  0.00    -0.532 OA
HETATM   35  O4  UNL     1      75.468 -16.179   2.194  1.00  0.00    -0.532 OA
ENDBRANCH  18  33
BRANCH  26  36
HETATM   36  N8  UNL     1      77.330 -12.232   7.949  1.00  0.00    -0.331 N 
ATOM     37  H82 UNL     1      76.623 -12.398   8.665  1.00  0.00     0.177 HD
ATOM     38  H81 UNL     1      78.007 -11.471   8.013  1.00  0.00     0.177 HD
ENDBRANCH  26  36
BRANCH  23  39
HETATM   39  N12 UNL     1      72.321 -11.864   5.950  1.00  0.00    -0.110 N 
HETATM   40  O5  UNL     1      72.539 -10.660   6.129  1.00  0.00    -0.532 OA
HETATM   41  O6  UNL     1      71.345 -12.505   6.716  1.00  0.00    -0.532 OA
ENDBRANCH  23  39
ENDBRANCH  15  16
ENDBRANCH  14  15
ENDBRANCH   8  14
BRANCH   1  42
HETATM   42  N1  UNL     1      69.306 -17.229   3.831  1.00  0.00    -0.220 N 
HETATM   43  C1  UNL     1      69.012 -18.457   3.138  1.00  0.00     0.168 C 
BRANCH  42  44
HETATM   44  C2  UNL     1      69.908 -17.150   5.132  1.00  0.00     0.166 C 
BRANCH  44  45
HETATM   45  C3  UNL     1      69.893 -18.389   5.970  1.00  0.00     0.184 C 
BRANCH  45  46
HETATM   46  O1  UNL     1      68.805 -18.358   6.828  1.00  0.00    -0.399 OA
ATOM     47  H1  UNL     1      68.001 -18.335   6.323  1.00  0.00     0.209 HD
ENDBRANCH  45  46
ENDBRANCH  44  45
ENDBRANCH  42  44
ENDBRANCH   1  42
TORSDOF 11
ENDMDL
MODEL 3
REMARK VINA RESULT: -8.920532769      1.888      2.414
REMARK  11 active torsions:
REMARK  status: ('A' for Active; 'I' for Inactive)
REMARK    1  A    between atoms: N1_2  and  C2_3 
REMARK    2  A    between atoms: N1_2  and  C4_7 
REMARK    3  A    between atoms: C2_3  and  C3_4 
REMARK    4  A    between atoms: C3_4  and  O1_5 
REMARK    5  A    between atoms: C5_10  and  N3_11 
REMARK    6  A    between atoms: C8_17  and  C9_18 
REMARK    7  A    between atoms: C9_18  and  O2_19 
REMARK    8  A    between atoms: O2_19  and  C10_20 
REMARK    9  A    between atoms: C12_22  and  N5_23 
REMARK   10  A    between atoms: N7_31  and  N8_33 
REMARK       I    between atoms: N9_36  and  C16_37 
REMARK   11  A    between atoms: C17_42  and  N12_43 
ROOT
HETATM    1  C4  UNL     1      76.880 -12.102   4.188  1.00  0.00     0.681 A 
HETATM    2  N2  UNL     1      77.422 -12.985   3.276  1.00  0.00    -0.175 N 
ATOM      3  H2  UNL     1      78.382 -13.313   3.381  1.00  0.00     0.186 HD
HETATM    4  C5  UNL     1      76.660 -13.409   2.241  1.00  0.00     0.137 A 
HETATM    5  C6  UNL     1      75.387 -12.972   2.099  1.00  0.00     0.114 A 
HETATM    6  C7  UNL     1      74.588 -13.468   1.021  1.00  0.00     0.105 C 
HETATM    7  N4  UNL     1      73.934 -13.904   0.147  1.00  0.00    -0.191 NA
HETATM    8  C8  UNL     1      74.848 -12.062   3.051  1.00  0.00     0.075 A 
HETATM    9  N13 UNL     1      75.620 -11.672   4.052  1.00  0.00    -0.192 N 
ATOM     10  H13 UNL     1      75.242 -11.024   4.743  1.00  0.00     0.184 HD
ENDROOT
BRANCH   4  11
HETATM   11  N3  UNL     1      77.220 -14.277   1.442  1.00  0.00    -0.384 N 
ATOM     12  H32 UNL     1      77.941 -14.036   0.762  1.00  0.00     0.157 HD
ATOM     13  H31 UNL     1      76.868 -15.232   1.508  1.00  0.00     0.157 HD
ENDBRANCH   4  11
BRANCH   8  14
HETATM   14  C9  UNL     1      73.514 -11.531   2.690  1.00  0.00     0.235 C 
BRANCH  14  15
HETATM   15  O2  UNL     1      72.469 -11.925   3.476  1.00  0.00    -0.343 OA
BRANCH  15  16
HETATM   16  C10 UNL     1      71.645 -13.012   3.458  1.00  0.00     0.107 A 
HETATM   17  C11 UNL     1      71.006 -13.492   2.365  1.00  0.00     0.077 A 
HETATM   18  C12 UNL     1      70.180 -14.629   2.342  1.00  0.00     0.135 A 
HETATM   19  C13 UNL     1      70.018 -15.323   3.529  1.00  0.00     0.122 A 
HETATM   20  C14 UNL     1      70.663 -14.844   4.689  1.00  0.00     0.115 A 
HETATM   21  N9  UNL     1      69.470 -16.489   3.872  1.00  0.00    -0.113 N 
HETATM   22  N6  UNL     1      70.470 -15.742   5.708  1.00  0.00    -0.185 N 
HETATM   23  C17 UNL     1      71.440 -13.727   4.660  1.00  0.00     0.165 A 
HETATM   24  C15 UNL     1      69.761 -16.720   5.204  1.00  0.00     0.706 A 
ATOM     25  H6  UNL     1      70.811 -15.663   6.666  1.00  0.00     0.184 HD
HETATM   26  N7  UNL     1      69.437 -17.856   5.793  1.00  0.00    -0.138 N 
ATOM     27  H7  UNL     1      68.870 -18.561   5.321  1.00  0.00     0.205 HD
HETATM   28  C16 UNL     1      68.778 -17.451   3.092  1.00  0.00     0.208 C 
HETATM   29  N10 UNL     1      67.564 -17.700   3.213  1.00  0.00    -0.373 N 
HETATM   30  N11 UNL     1      69.547 -18.266   2.148  1.00  0.00    -0.063 NA
ATOM     31 2H10 UNL     1      67.029 -17.132   3.871  1.00  0.00     0.158 HD
ATOM     32 1H10 UNL     1      67.066 -18.391   2.652  1.00  0.00     0.158 HD
BRANCH  18  33
HETATM   33  N5  UNL     1      69.550 -14.966   1.158  1.00  0.00    -0.113 N 
HETATM   34  O3  UNL     1      70.366 -15.358   0.226  1.00  0.00    -0.532 OA
HETATM   35  O4  UNL     1      68.271 -14.986   0.799  1.00  0.00    -0.532 OA
ENDBRANCH  18  33
BRANCH  26  36
HETATM   36  N8  UNL     1      69.914 -18.047   7.104  1.00  0.00    -0.331 N 
ATOM     37  H82 UNL     1      69.989 -17.262   7.750  1.00  0.00     0.177 HD
ATOM     38  H81 UNL     1      70.174 -18.999   7.363  1.00  0.00     0.177 HD
ENDBRANCH  26  36
BRANCH  23  39
HETATM   39  N12 UNL     1      72.028 -13.234   5.845  1.00  0.00    -0.110 N 
HETATM   40  O5  UNL     1      71.313 -12.764   6.738  1.00  0.00    -0.532 OA
HETATM   41  O6  UNL     1      73.415 -13.249   6.014  1.00  0.00    -0.532 OA
ENDBRANCH  23  39
ENDBRANCH  15  16
ENDBRANCH  14  15
ENDBRANCH   8  14
BRANCH   1  42
HETATM   42  N1  UNL     1      77.758 -11.656   5.198  1.00  0.00    -0.220 N 
HETATM   43  C1  UNL     1      79.097 -11.329   4.785  1.00  0.00     0.168 C 
BRANCH  42  44
HETATM   44  C2  UNL     1      77.252 -11.495   6.532  1.00  0.00     0.166 C 
BRANCH  44  45
HETATM   45  C3  UNL     1      77.791 -12.413   7.584  1.00  0.00     0.184 C 
BRANCH  45  46
HETATM   46  O1  UNL     1      77.068 -13.595   7.586  1.00  0.00    -0.399 OA
ATOM     47  H1  UNL     1      77.200 -14.049   8.409  1.00  0.00     0.209 HD
ENDBRANCH  45  46
ENDBRANCH  44  45
ENDBRANCH  42  44
ENDBRANCH   1  42
TORSDOF 11
ENDMDL
MODEL 4
REMARK VINA RESULT: -8.885084904      2.057      3.280
REMARK  11 active torsions:
REMARK  status: ('A' for Active; 'I' for Inactive)
REMARK    1  A    between atoms: N1_2  and  C2_3 
REMARK    2  A    between atoms: N1_2  and  C4_7 
REMARK    3  A    between atoms: C2_3  and  C3_4 
REMARK    4  A    between atoms: C3_4  and  O1_5 
REMARK    5  A    between atoms: C5_10  and  N3_11 
REMARK    6  A    between atoms: C8_17  and  C9_18 
REMARK    7  A    between atoms: C9_18  and  O2_19 
REMARK    8  A    between atoms: O2_19  and  C10_20 
REMARK    9  A    between atoms: C12_22  and  N5_23 
REMARK   10  A    between atoms: N7_31  and  N8_33 
REMARK       I    between atoms: N9_36  and  C16_37 
REMARK   11  A    between atoms: C17_42  and  N12_43 
ROOT
HETATM    1  C4  UNL     1      74.765 -14.137   1.318  1.00  0.00     0.681 A 
HETATM    2  N2  UNL     1      75.712 -14.489   2.259  1.00  0.00    -0.175 N 
ATOM      3  H2  UNL     1      76.319 -15.293   2.106  1.00  0.00     0.186 HD
HETATM    4  C5  UNL     1      75.819 -13.751   3.389  1.00  0.00     0.137 A 
HETATM    5  C6  UNL     1      75.011 -12.685   3.594  1.00  0.00     0.114 A 
HETATM    6  C7  UNL     1      75.174 -11.895   4.775  1.00  0.00     0.105 C 
HETATM    7  N4  UNL     1      75.336 -11.239   5.737  1.00  0.00    -0.191 NA
HETATM    8  C8  UNL     1      74.043 -12.340   2.610  1.00  0.00     0.075 A 
HETATM    9  N13 UNL     1      73.968 -13.080   1.517  1.00  0.00    -0.192 N 
ATOM     10  H13 UNL     1      73.281 -12.839   0.803  1.00  0.00     0.184 HD
ENDROOT
BRANCH   4  11
HETATM   11  N3  UNL     1      76.763 -14.113   4.215  1.00  0.00    -0.384 N 
ATOM     12  H32 UNL     1      77.747 -14.179   3.955  1.00  0.00     0.157 HD
ATOM     13  H31 UNL     1      76.456 -14.366   5.154  1.00  0.00     0.157 HD
ENDBRANCH   4  11
BRANCH   8  14
HETATM   14  C9  UNL     1      73.113 -11.266   3.030  1.00  0.00     0.235 C 
BRANCH  14  15
HETATM   15  O2  UNL     1      71.962 -11.665   3.646  1.00  0.00    -0.343 OA
BRANCH  15  16
HETATM   16  C10 UNL     1      71.223 -12.811   3.595  1.00  0.00     0.107 A 
HETATM   17  C11 UNL     1      70.607 -13.296   2.491  1.00  0.00     0.077 A 
HETATM   18  C12 UNL     1      69.871 -14.493   2.433  1.00  0.00     0.135 A 
HETATM   19  C13 UNL     1      69.781 -15.243   3.593  1.00  0.00     0.122 A 
HETATM   20  C14 UNL     1      70.406 -14.762   4.762  1.00  0.00     0.115 A 
HETATM   21  N9  UNL     1      69.331 -16.461   3.895  1.00  0.00    -0.113 N 
HETATM   22  N6  UNL     1      70.300 -15.711   5.746  1.00  0.00    -0.185 N 
HETATM   23  C17 UNL     1      71.094 -13.587   4.769  1.00  0.00     0.165 A 
HETATM   24  C15 UNL     1      69.660 -16.721   5.212  1.00  0.00     0.706 A 
ATOM     25  H6  UNL     1      70.649 -15.644   6.702  1.00  0.00     0.184 HD
HETATM   26  N7  UNL     1      69.434 -17.902   5.759  1.00  0.00    -0.138 N 
ATOM     27  H7  UNL     1      68.916 -18.629   5.267  1.00  0.00     0.205 HD
HETATM   28  C16 UNL     1      68.703 -17.443   3.086  1.00  0.00     0.208 C 
HETATM   29  N10 UNL     1      67.514 -17.789   3.212  1.00  0.00    -0.373 N 
HETATM   30  N11 UNL     1      69.517 -18.157   2.099  1.00  0.00    -0.063 NA
ATOM     31 2H10 UNL     1      66.947 -17.292   3.899  1.00  0.00     0.158 HD
ATOM     32 1H10 UNL     1      67.062 -18.494   2.630  1.00  0.00     0.158 HD
BRANCH  18  33
HETATM   33  N5  UNL     1      69.249 -14.831   1.245  1.00  0.00    -0.113 N 
HETATM   34  O3  UNL     1      70.076 -15.176   0.304  1.00  0.00    -0.532 OA
HETATM   35  O4  UNL     1      67.971 -14.889   0.887  1.00  0.00    -0.532 OA
ENDBRANCH  18  33
BRANCH  26  36
HETATM   36  N8  UNL     1      69.945 -18.106   7.055  1.00  0.00    -0.331 N 
ATOM     37  H82 UNL     1      70.284 -19.024   7.342  1.00  0.00     0.177 HD
ATOM     38  H81 UNL     1      69.956 -17.298   7.677  1.00  0.00     0.177 HD
ENDBRANCH  26  36
BRANCH  23  39
HETATM   39  N12 UNL     1      71.661 -13.097   5.966  1.00  0.00    -0.110 N 
HETATM   40  O5  UNL     1      72.733 -13.561   6.374  1.00  0.00    -0.532 OA
HETATM   41  O6  UNL     1      71.014 -12.109   6.710  1.00  0.00    -0.532 OA
ENDBRANCH  23  39
ENDBRANCH  15  16
ENDBRANCH  14  15
ENDBRANCH   8  14
BRANCH   1  42
HETATM   42  N1  UNL     1      74.670 -14.994   0.202  1.00  0.00    -0.220 N 
HETATM   43  C1  UNL     1      73.735 -14.610  -0.823  1.00  0.00     0.168 C 
BRANCH  42  44
HETATM   44  C2  UNL     1      75.541 -16.133   0.128  1.00  0.00     0.166 C 
BRANCH  44  45
HETATM   45  C3  UNL     1      76.021 -16.541  -1.230  1.00  0.00     0.184 C 
BRANCH  45  46
HETATM   46  O1  UNL     1      77.348 -16.175  -1.384  1.00  0.00    -0.399 OA
ATOM     47  H1  UNL     1      77.493 -15.862  -2.268  1.00  0.00     0.209 HD
ENDBRANCH  45  46
ENDBRANCH  44  45
ENDBRANCH  42  44
ENDBRANCH   1  42
TORSDOF 11
ENDMDL
MODEL 5
REMARK VINA RESULT: -8.872034874      4.593      7.275
REMARK  11 active torsions:
REMARK  status: ('A' for Active; 'I' for Inactive)
REMARK    1  A    between atoms: N1_2  and  C2_3 
REMARK    2  A    between atoms: N1_2  and  C4_7 
REMARK    3  A    between atoms: C2_3  and  C3_4 
REMARK    4  A    between atoms: C3_4  and  O1_5 
REMARK    5  A    between atoms: C5_10  and  N3_11 
REMARK    6  A    between atoms: C8_17  and  C9_18 
REMARK    7  A    between atoms: C9_18  and  O2_19 
REMARK    8  A    between atoms: O2_19  and  C10_20 
REMARK    9  A    between atoms: C12_22  and  N5_23 
REMARK   10  A    between atoms: N7_31  and  N8_33 
REMARK       I    between atoms: N9_36  and  C16_37 
REMARK   11  A    between atoms: C17_42  and  N12_43 
ROOT
HETATM    1  C4  UNL     1      78.690 -12.644   2.767  1.00  0.00     0.681 A 
HETATM    2  N2  UNL     1      79.479 -11.772   3.489  1.00  0.00    -0.175 N 
ATOM      3  H2  UNL     1      80.225 -11.249   3.031  1.00  0.00     0.186 HD
HETATM    4  C5  UNL     1      79.248 -11.623   4.814  1.00  0.00     0.137 A 
HETATM    5  C6  UNL     1      78.261 -12.320   5.423  1.00  0.00     0.114 A 
HETATM    6  C7  UNL     1      78.009 -12.112   6.816  1.00  0.00     0.105 C 
HETATM    7  N4  UNL     1      77.794 -11.913   7.954  1.00  0.00    -0.191 NA
HETATM    8  C8  UNL     1      77.459 -13.213   4.660  1.00  0.00     0.075 A 
HETATM    9  N13 UNL     1      77.710 -13.331   3.366  1.00  0.00    -0.192 N 
ATOM     10  H13 UNL     1      77.138 -13.965   2.808  1.00  0.00     0.184 HD
ENDROOT
BRANCH   4  11
HETATM   11  N3  UNL     1      80.002 -10.751   5.427  1.00  0.00    -0.384 N 
ATOM     12  H32 UNL     1      79.911  -9.742   5.306  1.00  0.00     0.157 HD
ATOM     13  H31 UNL     1      80.731 -11.138   6.026  1.00  0.00     0.157 HD
ENDBRANCH   4  11
BRANCH   8  14
HETATM   14  C9  UNL     1      76.534 -14.037   5.470  1.00  0.00     0.235 C 
BRANCH  14  15
HETATM   15  O2  UNL     1      75.214 -13.991   5.122  1.00  0.00    -0.343 OA
BRANCH  15  16
HETATM   16  C10 UNL     1      74.279 -12.998   5.134  1.00  0.00     0.107 A 
HETATM   17  C11 UNL     1      73.759 -12.427   6.246  1.00  0.00     0.077 A 
HETATM   18  C12 UNL     1      72.817 -11.383   6.256  1.00  0.00     0.135 A 
HETATM   19  C13 UNL     1      72.399 -10.889   5.032  1.00  0.00     0.122 A 
HETATM   20  C14 UNL     1      72.916 -11.469   3.854  1.00  0.00     0.115 A 
HETATM   21  N9  UNL     1      71.672  -9.844   4.635  1.00  0.00    -0.113 N 
HETATM   22  N6  UNL     1      72.469 -10.752   2.773  1.00  0.00    -0.185 N 
HETATM   23  C17 UNL     1      73.815 -12.490   3.899  1.00  0.00     0.165 A 
HETATM   24  C15 UNL     1      71.733  -9.784   3.256  1.00  0.00     0.706 A 
ATOM     25  H6  UNL     1      72.671 -10.938   1.791  1.00  0.00     0.184 HD
HETATM   26  N7  UNL     1      71.193  -8.782   2.585  1.00  0.00    -0.138 N 
ATOM     27  H7  UNL     1      70.623  -8.074   3.048  1.00  0.00     0.205 HD
HETATM   28  C16 UNL     1      70.996  -8.849   5.387  1.00  0.00     0.208 C 
HETATM   29  N10 UNL     1      69.757  -8.738   5.436  1.00  0.00    -0.373 N 
HETATM   30  N11 UNL     1      71.795  -7.835   6.079  1.00  0.00    -0.063 NA
ATOM     31 2H10 UNL     1      69.201  -9.445   4.953  1.00  0.00     0.158 HD
ATOM     32 1H10 UNL     1      69.270  -8.024   5.976  1.00  0.00     0.158 HD
BRANCH  18  33
HETATM   33  N5  UNL     1      72.334 -10.938   7.473  1.00  0.00    -0.113 N 
HETATM   34  O3  UNL     1      71.134 -11.357   7.742  1.00  0.00    -0.532 OA
HETATM   35  O4  UNL     1      72.868 -10.183   8.427  1.00  0.00    -0.532 OA
ENDBRANCH  18  33
BRANCH  26  36
HETATM   36  N8  UNL     1      71.443  -8.741   1.200  1.00  0.00    -0.331 N 
ATOM     37  H82 UNL     1      72.387  -8.871   0.838  1.00  0.00     0.177 HD
ATOM     38  H81 UNL     1      70.640  -8.575   0.594  1.00  0.00     0.177 HD
ENDBRANCH  26  36
BRANCH  23  39
HETATM   39  N12 UNL     1      74.274 -13.092   2.708  1.00  0.00    -0.110 N 
HETATM   40  O5  UNL     1      75.103 -12.506   2.002  1.00  0.00    -0.532 OA
HETATM   41  O6  UNL     1      73.785 -14.335   2.302  1.00  0.00    -0.532 OA
ENDBRANCH  23  39
ENDBRANCH  15  16
ENDBRANCH  14  15
ENDBRANCH   8  14
BRANCH   1  42
HETATM   42  N1  UNL     1      79.036 -12.794   1.407  1.00  0.00    -0.220 N 
HETATM   43  C1  UNL     1      78.525 -13.963   0.740  1.00  0.00     0.168 C 
BRANCH  42  44
HETATM   44  C2  UNL     1      79.802 -11.761   0.771  1.00  0.00     0.166 C 
BRANCH  44  45
HETATM   45  C3  UNL     1      81.220 -12.081   0.412  1.00  0.00     0.184 C 
BRANCH  45  46
HETATM   46  O1  UNL     1      81.948 -12.325   1.565  1.00  0.00    -0.399 OA
ATOM     47  H1  UNL     1      82.124 -11.505   2.010  1.00  0.00     0.209 HD
ENDBRANCH  45  46
ENDBRANCH  44  45
ENDBRANCH  42  44
ENDBRANCH   1  42
TORSDOF 11
ENDMDL
