MODEL 1
REMARK VINA RESULT: -8.779811447      0.000      0.000
REMARK  14 active torsions:
REMARK  status: ('A' for Active; 'I' for Inactive)
REMARK    1  A    between atoms: O1_2  and  C2_3 
REMARK    2  A    between atoms: C2_3  and  C3_5 
REMARK    3  A    between atoms: C3_5  and  N1_6 
REMARK    4  A    between atoms: N1_6  and  N2_7 
REMARK    5  A    between atoms: N1_6  and  C4_10 
REMARK    6  A    between atoms: C6_15  and  N4_16 
REMARK       I    between atoms: N4_16  and  C7_18 
REMARK    7  A    between atoms: C7_18  and  C8_20 
REMARK    8  A    between atoms: C8_20  and  N5_23 
REMARK    9  A    between atoms: C11_27  and  C12_28 
REMARK   10  A    between atoms: C12_28  and  O5_29 
REMARK   11  A    between atoms: C12_28  and  N6_31 
REMARK   12  A    between atoms: N6_31  and  N7_32 
REMARK   13  A    between atoms: N7_32  and  C13_34 
REMARK   14  A    between atoms: C20_44  and  O7_46 
ROOT
HETATM    1  C4  UNL     1      69.652 -15.215   2.955  1.00  0.00     0.707 A 
HETATM    2  N3  UNL     1      69.758 -14.946   4.268  1.00  0.00    -0.152 N 
ATOM      3  H3  UNL     1      69.101 -15.386   4.913  1.00  0.00     0.187 HD
HETATM    4  C5  UNL     1      70.691 -14.124   4.763  1.00  0.00     0.289 A 
HETATM    5  O3  UNL     1      70.797 -13.867   5.995  1.00  0.00    -0.265 OA
HETATM    6  C6  UNL     1      71.629 -13.486   3.926  1.00  0.00     0.137 A 
HETATM    7  C11 UNL     1      71.500 -13.773   2.603  1.00  0.00     0.148 A 
HETATM    8  N8  UNL     1      70.544 -14.607   2.149  1.00  0.00    -0.182 N 
ATOM      9  H8  UNL     1      70.495 -14.788   1.147  1.00  0.00     0.184 HD
ENDROOT
BRANCH   1  10
HETATM   10  N1  UNL     1      68.656 -16.089   2.435  1.00  0.00    -0.057 N 
BRANCH  10  11
HETATM   11  C3  UNL     1      68.439 -17.451   2.861  1.00  0.00     0.379 C 
HETATM   12  O6  UNL     1      69.388 -18.229   2.244  1.00  0.00    -0.323 OA
HETATM   13  C19 UNL     1      70.126 -18.875   3.243  1.00  0.00     0.242 C 
HETATM   14  C20 UNL     1      69.129 -18.892   4.375  1.00  0.00     0.185 C 
HETATM   15  C21 UNL     1      68.167 -20.028   4.131  1.00  0.00     0.081 C 
HETATM   16  O8  UNL     1      68.544 -17.635   4.233  1.00  0.00    -0.289 OA
BRANCH  11  17
HETATM   17  C2  UNL     1      67.039 -17.774   2.483  1.00  0.00     0.348 C 
HETATM   18  O2  UNL     1      66.848 -18.537   1.508  1.00  0.00    -0.257 OA
BRANCH  17  19
HETATM   19  O1  UNL     1      65.933 -17.283   3.149  1.00  0.00    -0.321 OA
HETATM   20  C1  UNL     1      64.691 -17.974   3.125  1.00  0.00     0.213 C 
ENDBRANCH  17  19
ENDBRANCH  11  17
BRANCH  14  21
HETATM   21  O7  UNL     1      69.730 -19.051   5.616  1.00  0.00    -0.364 OA
ATOM     22  H7  UNL     1      69.101 -19.084   6.327  1.00  0.00     0.213 HD
ENDBRANCH  14  21
ENDBRANCH  10  11
BRANCH  10  23
HETATM   23  N2  UNL     1      67.795 -15.632   1.420  1.00  0.00    -0.323 N 
ATOM     24  H22 UNL     1      66.794 -15.564   1.604  1.00  0.00     0.177 HD
ATOM     25  H21 UNL     1      68.250 -15.387   0.540  1.00  0.00     0.177 HD
ENDBRANCH  10  23
ENDBRANCH   1  10
BRANCH   7  26
HETATM   26  C12 UNL     1      72.424 -13.112   1.649  1.00  0.00     0.268 C 
BRANCH  26  27
HETATM   27  O5  UNL     1      71.972 -12.044   0.858  1.00  0.00    -0.332 OA
ATOM     28  H5  UNL     1      71.756 -11.212   1.261  1.00  0.00     0.220 HD
ENDBRANCH  26  27
BRANCH  26  29
HETATM   29  N6  UNL     1      73.558 -13.501   1.558  1.00  0.00    -0.297 NA
BRANCH  29  30
HETATM   30  N7  UNL     1      74.749 -13.923   1.796  1.00  0.00    -0.234 N 
ATOM     31  H7  UNL     1      75.178 -13.721   2.699  1.00  0.00     0.202 HD
BRANCH  30  32
HETATM   32  C13 UNL     1      75.495 -14.677   0.818  1.00  0.00     0.060 A 
HETATM   33  C14 UNL     1      74.829 -15.405  -0.144  1.00  0.00     0.032 A 
HETATM   34  C15 UNL     1      75.547 -16.126  -1.074  1.00  0.00     0.002 A 
HETATM   35  C16 UNL     1      76.914 -16.120  -1.048  1.00  0.00     0.000 A 
HETATM   36  C17 UNL     1      77.588 -15.380  -0.072  1.00  0.00     0.002 A 
HETATM   37  C18 UNL     1      76.868 -14.664   0.854  1.00  0.00     0.032 A 
ENDBRANCH  30  32
ENDBRANCH  29  30
ENDBRANCH  26  29
ENDBRANCH   7  26
BRANCH   6  38
HETATM   38  N4  UNL     1      72.599 -12.628   4.519  1.00  0.00    -0.318 N 
HETATM   39  C7  UNL     1      73.844 -13.187   4.976  1.00  0.00     0.257 C 
HETATM   40  O4  UNL     1      74.041 -14.442   4.810  1.00  0.00    -0.270 OA
ATOM     41  H4  UNL     1      72.414 -11.630   4.618  1.00  0.00     0.169 HD
BRANCH  39  42
HETATM   42  C8  UNL     1      74.866 -12.377   5.618  1.00  0.00     0.196 C 
HETATM   43  C9  UNL     1      75.833 -11.704   4.705  1.00  0.00     0.056 C 
HETATM   44  C10 UNL     1      74.187 -11.306   6.486  1.00  0.00     0.056 C 
BRANCH  42  45
HETATM   45  N5  UNL     1      75.629 -13.218   6.548  1.00  0.00    -0.062 N 
ATOM     46  H53 UNL     1      75.398 -14.208   6.455  1.00  0.00     0.275 HD
ATOM     47  H52 UNL     1      76.616 -13.277   6.298  1.00  0.00     0.275 HD
ATOM     48  H51 UNL     1      75.489 -12.875   7.499  1.00  0.00     0.275 HD
ENDBRANCH  42  45
ENDBRANCH  39  42
ENDBRANCH   6  38
TORSDOF 14
ENDMDL
MODEL 2
REMARK VINA RESULT: -8.768177869      1.456      1.938
REMARK  14 active torsions:
REMARK  status: ('A' for Active; 'I' for Inactive)
REMARK    1  A    between atoms: O1_2  and  C2_3 
REMARK    2  A    between atoms: C2_3  and  C3_5 
REMARK    3  A    between atoms: C3_5  and  N1_6 
REMARK    4  A    between atoms: N1_6  and  N2_7 
REMARK    5  A    between atoms: N1_6  and  C4_10 
REMARK    6  A    between atoms: C6_15  and  N4_16 
REMARK       I    between atoms: N4_16  and  C7_18 
REMARK    7  A    between atoms: C7_18  and  C8_20 
REMARK    8  A    between atoms: C8_20  and  N5_23 
REMARK    9  A    between atoms: C11_27  and  C12_28 
REMARK   10  A    between atoms: C12_28  and  O5_29 
REMARK   11  A    between atoms: C12_28  and  N6_31 
REMARK   12  A    between atoms: N6_31  and  N7_32 
REMARK   13  A    between atoms: N7_32  and  C13_34 
REMARK   14  A    between atoms: C20_44  and  O7_46 
ROOT
HETATM    1  C4  UNL     1      70.421 -15.066   2.998  1.00  0.00     0.707 A 
HETATM    2  N3  UNL     1      70.732 -15.161   4.303  1.00  0.00    -0.152 N 
ATOM      3  H3  UNL     1      70.159 -15.756   4.901  1.00  0.00     0.187 HD
HETATM    4  C5  UNL     1      71.763 -14.505   4.849  1.00  0.00     0.289 A 
HETATM    5  O3  UNL     1      72.061 -14.589   6.073  1.00  0.00    -0.265 OA
HETATM    6  C6  UNL     1      72.594 -13.666   4.076  1.00  0.00     0.137 A 
HETATM    7  C11 UNL     1      72.258 -13.587   2.762  1.00  0.00     0.148 A 
HETATM    8  N8  UNL     1      71.211 -14.267   2.255  1.00  0.00    -0.182 N 
ATOM      9  H8  UNL     1      71.006 -14.171   1.261  1.00  0.00     0.184 HD
ENDROOT
BRANCH   1  10
HETATM   10  N1  UNL     1      69.322 -15.766   2.425  1.00  0.00    -0.057 N 
BRANCH  10  11
HETATM   11  C3  UNL     1      68.815 -17.037   2.881  1.00  0.00     0.379 C 
HETATM   12  O6  UNL     1      69.452 -18.017   2.158  1.00  0.00    -0.323 OA
HETATM   13  C19 UNL     1      70.113 -18.855   3.063  1.00  0.00     0.242 C 
HETATM   14  C20 UNL     1      69.288 -18.646   4.308  1.00  0.00     0.185 C 
HETATM   15  C21 UNL     1      68.044 -19.492   4.189  1.00  0.00     0.081 C 
HETATM   16  O8  UNL     1      69.033 -17.278   4.231  1.00  0.00    -0.289 OA
BRANCH  11  17
HETATM   17  C2  UNL     1      67.344 -16.983   2.679  1.00  0.00     0.348 C 
HETATM   18  O2  UNL     1      66.835 -17.740   1.821  1.00  0.00    -0.257 OA
BRANCH  17  19
HETATM   19  O1  UNL     1      66.504 -16.144   3.387  1.00  0.00    -0.321 OA
HETATM   20  C1  UNL     1      65.240 -15.758   2.866  1.00  0.00     0.213 C 
ENDBRANCH  17  19
ENDBRANCH  11  17
BRANCH  14  21
HETATM   21  O7  UNL     1      69.972 -18.985   5.467  1.00  0.00    -0.364 OA
ATOM     22  H7  UNL     1      70.746 -18.453   5.606  1.00  0.00     0.213 HD
ENDBRANCH  14  21
ENDBRANCH  10  11
BRANCH  10  23
HETATM   23  N2  UNL     1      68.651 -15.213   1.319  1.00  0.00    -0.323 N 
ATOM     24  H22 UNL     1      69.090 -15.245   0.399  1.00  0.00     0.177 HD
ATOM     25  H21 UNL     1      67.736 -14.808   1.522  1.00  0.00     0.177 HD
ENDBRANCH  10  23
ENDBRANCH   1  10
BRANCH   7  26
HETATM   26  C12 UNL     1      73.059 -12.696   1.886  1.00  0.00     0.268 C 
BRANCH  26  27
HETATM   27  O5  UNL     1      72.612 -11.395   1.611  1.00  0.00    -0.332 OA
ATOM     28  H5  UNL     1      72.054 -11.233   0.860  1.00  0.00     0.220 HD
ENDBRANCH  26  27
BRANCH  26  29
HETATM   29  N6  UNL     1      74.089 -13.100   1.416  1.00  0.00    -0.297 NA
BRANCH  29  30
HETATM   30  N7  UNL     1      75.181 -13.737   1.176  1.00  0.00    -0.234 N 
ATOM     31  H7  UNL     1      75.131 -14.700   0.844  1.00  0.00     0.202 HD
BRANCH  30  32
HETATM   32  C13 UNL     1      76.473 -13.124   1.366  1.00  0.00     0.060 A 
HETATM   33  C14 UNL     1      76.559 -11.787   1.688  1.00  0.00     0.032 A 
HETATM   34  C15 UNL     1      77.797 -11.205   1.864  1.00  0.00     0.002 A 
HETATM   35  C16 UNL     1      78.936 -11.949   1.724  1.00  0.00     0.000 A 
HETATM   36  C17 UNL     1      78.845 -13.306   1.397  1.00  0.00     0.002 A 
HETATM   37  C18 UNL     1      77.610 -13.880   1.221  1.00  0.00     0.032 A 
ENDBRANCH  30  32
ENDBRANCH  29  30
ENDBRANCH  26  29
ENDBRANCH   7  26
BRANCH   6  38
HETATM   38  N4  UNL     1      73.677 -13.003   4.719  1.00  0.00    -0.318 N 
HETATM   39  C7  UNL     1      74.970 -13.634   4.748  1.00  0.00     0.257 C 
HETATM   40  O4  UNL     1      75.101 -14.769   4.169  1.00  0.00    -0.270 OA
ATOM     41  H4  UNL     1      73.539 -12.090   5.155  1.00  0.00     0.169 HD
BRANCH  39  42
HETATM   42  C8  UNL     1      76.113 -13.029   5.412  1.00  0.00     0.196 C 
HETATM   43  C9  UNL     1      77.452 -13.525   4.985  1.00  0.00     0.056 C 
HETATM   44  C10 UNL     1      76.067 -11.507   5.204  1.00  0.00     0.056 C 
BRANCH  42  45
HETATM   45  N5  UNL     1      75.990 -13.236   6.859  1.00  0.00    -0.062 N 
ATOM     46  H53 UNL     1      75.201 -13.837   7.100  1.00  0.00     0.275 HD
ATOM     47  H52 UNL     1      76.736 -13.823   7.232  1.00  0.00     0.275 HD
ATOM     48  H51 UNL     1      75.941 -12.329   7.323  1.00  0.00     0.275 HD
ENDBRANCH  42  45
ENDBRANCH  39  42
ENDBRANCH   6  38
TORSDOF 14
ENDMDL
MODEL 3
REMARK VINA RESULT: -8.630003626      4.864      7.417
REMARK  14 active torsions:
REMARK  status: ('A' for Active; 'I' for Inactive)
REMARK    1  A    between atoms: O1_2  and  C2_3 
REMARK    2  A    between atoms: C2_3  and  C3_5 
REMARK    3  A    between atoms: C3_5  and  N1_6 
REMARK    4  A    between atoms: N1_6  and  N2_7 
REMARK    5  A    between atoms: N1_6  and  C4_10 
REMARK    6  A    between atoms: C6_15  and  N4_16 
REMARK       I    between atoms: N4_16  and  C7_18 
REMARK    7  A    between atoms: C7_18  and  C8_20 
REMARK    8  A    between atoms: C8_20  and  N5_23 
REMARK    9  A    between atoms: C11_27  and  C12_28 
REMARK   10  A    between atoms: C12_28  and  O5_29 
REMARK   11  A    between atoms: C12_28  and  N6_31 
REMARK   12  A    between atoms: N6_31  and  N7_32 
REMARK   13  A    between atoms: N7_32  and  C13_34 
REMARK   14  A    between atoms: C20_44  and  O7_46 
ROOT
HETATM    1  C4  UNL     1      76.194 -11.648   5.599  1.00  0.00     0.707 A 
HETATM    2  N3  UNL     1      77.056 -10.702   5.186  1.00  0.00    -0.152 N 
ATOM      3  H3  UNL     1      76.900  -9.737   5.477  1.00  0.00     0.187 HD
HETATM    4  C5  UNL     1      78.111 -10.975   4.409  1.00  0.00     0.289 A 
HETATM    5  O3  UNL     1      78.925 -10.092   4.019  1.00  0.00    -0.265 OA
HETATM    6  C6  UNL     1      78.383 -12.289   3.973  1.00  0.00     0.137 A 
HETATM    7  C11 UNL     1      77.497 -13.227   4.403  1.00  0.00     0.148 A 
HETATM    8  N8  UNL     1      76.449 -12.905   5.185  1.00  0.00    -0.182 N 
ATOM      9  H8  UNL     1      75.817 -13.649   5.479  1.00  0.00     0.184 HD
ENDROOT
BRANCH   1  10
HETATM   10  N1  UNL     1      75.074 -11.349   6.425  1.00  0.00    -0.057 N 
BRANCH  10  11
HETATM   11  C3  UNL     1      73.699 -11.638   6.100  1.00  0.00     0.379 C 
HETATM   12  O6  UNL     1      73.544 -11.429   4.750  1.00  0.00    -0.323 OA
HETATM   13  C19 UNL     1      73.098 -12.627   4.181  1.00  0.00     0.242 C 
HETATM   14  C20 UNL     1      72.432 -13.282   5.365  1.00  0.00     0.185 C 
HETATM   15  C21 UNL     1      71.064 -12.668   5.527  1.00  0.00     0.081 C 
HETATM   16  O8  UNL     1      73.314 -12.941   6.389  1.00  0.00    -0.289 OA
BRANCH  11  17
HETATM   17  C2  UNL     1      72.883 -10.742   6.958  1.00  0.00     0.348 C 
HETATM   18  O2  UNL     1      72.624  -9.590   6.537  1.00  0.00    -0.257 OA
BRANCH  17  19
HETATM   19  O1  UNL     1      72.390 -11.106   8.196  1.00  0.00    -0.321 OA
HETATM   20  C1  UNL     1      71.954 -10.129   9.132  1.00  0.00     0.213 C 
ENDBRANCH  17  19
ENDBRANCH  11  17
BRANCH  14  21
HETATM   21  O7  UNL     1      72.310 -14.657   5.219  1.00  0.00    -0.364 OA
ATOM     22  H7  UNL     1      71.436 -14.971   5.419  1.00  0.00     0.213 HD
ENDBRANCH  14  21
ENDBRANCH  10  11
BRANCH  10  23
HETATM   23  N2  UNL     1      75.279 -10.716   7.665  1.00  0.00    -0.323 N 
ATOM     24  H22 UNL     1      74.557 -10.098   8.037  1.00  0.00     0.177 HD
ATOM     25  H21 UNL     1      76.165 -10.930   8.123  1.00  0.00     0.177 HD
ENDBRANCH  10  23
ENDBRANCH   1  10
BRANCH   7  26
HETATM   26  C12 UNL     1      77.690 -14.629   3.958  1.00  0.00     0.268 C 
BRANCH  26  27
HETATM   27  O5  UNL     1      78.179 -15.590   4.855  1.00  0.00    -0.332 OA
ATOM     28  H5  UNL     1      78.444 -16.445   4.538  1.00  0.00     0.220 HD
ENDBRANCH  26  27
BRANCH  26  29
HETATM   29  N6  UNL     1      77.426 -14.931   2.825  1.00  0.00    -0.297 NA
BRANCH  29  30
HETATM   30  N7  UNL     1      77.424 -15.083   1.547  1.00  0.00    -0.234 N 
ATOM     31  H7  UNL     1      78.301 -15.292   1.071  1.00  0.00     0.202 HD
BRANCH  30  32
HETATM   32  C13 UNL     1      76.214 -14.964   0.771  1.00  0.00     0.060 A 
HETATM   33  C14 UNL     1      75.231 -14.079   1.161  1.00  0.00     0.032 A 
HETATM   34  C15 UNL     1      74.075 -13.973   0.417  1.00  0.00     0.002 A 
HETATM   35  C16 UNL     1      73.901 -14.737  -0.703  1.00  0.00     0.000 A 
HETATM   36  C17 UNL     1      74.899 -15.633  -1.096  1.00  0.00     0.002 A 
HETATM   37  C18 UNL     1      76.049 -15.737  -0.351  1.00  0.00     0.032 A 
ENDBRANCH  30  32
ENDBRANCH  29  30
ENDBRANCH  26  29
ENDBRANCH   7  26
BRANCH   6  38
HETATM   38  N4  UNL     1      79.526 -12.511   3.153  1.00  0.00    -0.318 N 
HETATM   39  C7  UNL     1      79.426 -12.287   1.735  1.00  0.00     0.257 C 
HETATM   40  O4  UNL     1      78.309 -11.872   1.265  1.00  0.00    -0.270 OA
ATOM     41  H4  UNL     1      80.404 -12.825   3.566  1.00  0.00     0.169 HD
BRANCH  39  42
HETATM   42  C8  UNL     1      80.543 -12.523   0.834  1.00  0.00     0.196 C 
HETATM   43  C9  UNL     1      80.521 -13.817   0.095  1.00  0.00     0.056 C 
HETATM   44  C10 UNL     1      80.613 -11.378  -0.188  1.00  0.00     0.056 C 
BRANCH  42  45
HETATM   45  N5  UNL     1      81.795 -12.454   1.596  1.00  0.00    -0.062 N 
ATOM     46  H53 UNL     1      82.320 -13.328   1.561  1.00  0.00     0.275 HD
ATOM     47  H52 UNL     1      82.488 -11.853   1.151  1.00  0.00     0.275 HD
ATOM     48  H51 UNL     1      81.587 -12.165   2.552  1.00  0.00     0.275 HD
ENDBRANCH  42  45
ENDBRANCH  39  42
ENDBRANCH   6  38
TORSDOF 14
ENDMDL
MODEL 4
REMARK VINA RESULT: -8.515205012      2.714      4.381
REMARK  14 active torsions:
REMARK  status: ('A' for Active; 'I' for Inactive)
REMARK    1  A    between atoms: O1_2  and  C2_3 
REMARK    2  A    between atoms: C2_3  and  C3_5 
REMARK    3  A    between atoms: C3_5  and  N1_6 
REMARK    4  A    between atoms: N1_6  and  N2_7 
REMARK    5  A    between atoms: N1_6  and  C4_10 
REMARK    6  A    between atoms: C6_15  and  N4_16 
REMARK       I    between atoms: N4_16  and  C7_18 
REMARK    7  A    between atoms: C7_18  and  C8_20 
REMARK    8  A    between atoms: C8_20  and  N5_23 
REMARK    9  A    between atoms: C11_27  and  C12_28 
REMARK   10  A    between atoms: C12_28  and  O5_29 
REMARK   11  A    between atoms: C12_28  and  N6_31 
REMARK   12  A    between atoms: N6_31  and  N7_32 
REMARK   13  A    between atoms: N7_32  and  C13_34 
REMARK   14  A    between atoms: C20_44  and  O7_46 
ROOT
HETATM    1  C4  UNL     1      69.565 -15.889   2.219  1.00  0.00     0.707 A 
HETATM    2  N3  UNL     1      70.259 -15.533   3.315  1.00  0.00    -0.152 N 
ATOM      3  H3  UNL     1      69.900 -15.802   4.231  1.00  0.00     0.187 HD
HETATM    4  C5  UNL     1      71.402 -14.839   3.251  1.00  0.00     0.289 A 
HETATM    5  O3  UNL     1      72.059 -14.501   4.275  1.00  0.00    -0.265 OA
HETATM    6  C6  UNL     1      71.951 -14.437   2.015  1.00  0.00     0.137 A 
HETATM    7  C11 UNL     1      71.231 -14.808   0.924  1.00  0.00     0.148 A 
HETATM    8  N8  UNL     1      70.084 -15.508   1.036  1.00  0.00    -0.182 N 
ATOM      9  H8  UNL     1      69.586 -15.761   0.183  1.00  0.00     0.184 HD
ENDROOT
BRANCH   1  10
HETATM   10  N1  UNL     1      68.350 -16.627   2.295  1.00  0.00    -0.057 N 
BRANCH  10  11
HETATM   11  C3  UNL     1      68.226 -17.980   2.779  1.00  0.00     0.379 C 
HETATM   12  O6  UNL     1      69.108 -18.754   2.065  1.00  0.00    -0.323 OA
HETATM   13  C19 UNL     1      69.985 -19.354   2.977  1.00  0.00     0.242 C 
HETATM   14  C20 UNL     1      69.143 -19.360   4.228  1.00  0.00     0.185 C 
HETATM   15  C21 UNL     1      68.188 -20.525   4.139  1.00  0.00     0.081 C 
HETATM   16  O8  UNL     1      68.511 -18.122   4.131  1.00  0.00    -0.289 OA
BRANCH  11  17
HETATM   17  C2  UNL     1      66.798 -18.346   2.595  1.00  0.00     0.348 C 
HETATM   18  O2  UNL     1      66.475 -18.972   1.558  1.00  0.00    -0.257 OA
BRANCH  17  19
HETATM   19  O1  UNL     1      65.803 -18.037   3.502  1.00  0.00    -0.321 OA
HETATM   20  C1  UNL     1      64.437 -18.303   3.217  1.00  0.00     0.213 C 
ENDBRANCH  17  19
ENDBRANCH  11  17
BRANCH  14  21
HETATM   21  O7  UNL     1      69.902 -19.469   5.385  1.00  0.00    -0.364 OA
ATOM     22  H7  UNL     1      70.813 -19.238   5.249  1.00  0.00     0.213 HD
ENDBRANCH  14  21
ENDBRANCH  10  11
BRANCH  10  23
HETATM   23  N2  UNL     1      67.150 -16.028   1.868  1.00  0.00    -0.323 N 
ATOM     24  H22 UNL     1      66.870 -15.129   2.262  1.00  0.00     0.177 HD
ATOM     25  H21 UNL     1      66.627 -16.552   1.166  1.00  0.00     0.177 HD
ENDBRANCH  10  23
ENDBRANCH   1  10
BRANCH   7  26
HETATM   26  C12 UNL     1      71.719 -14.392  -0.413  1.00  0.00     0.268 C 
BRANCH  26  27
HETATM   27  O5  UNL     1      72.956 -14.858  -0.886  1.00  0.00    -0.332 OA
ATOM     28  H5  UNL     1      73.333 -14.490  -1.676  1.00  0.00     0.220 HD
ENDBRANCH  26  27
BRANCH  26  29
HETATM   29  N6  UNL     1      71.050 -13.654  -1.084  1.00  0.00    -0.297 NA
BRANCH  29  30
HETATM   30  N7  UNL     1      70.147 -13.139  -1.843  1.00  0.00    -0.234 N 
ATOM     31  H7  UNL     1      70.413 -12.419  -2.514  1.00  0.00     0.202 HD
BRANCH  30  32
HETATM   32  C13 UNL     1      68.767 -13.555  -1.769  1.00  0.00     0.060 A 
HETATM   33  C14 UNL     1      68.243 -14.377  -2.743  1.00  0.00     0.032 A 
HETATM   34  C15 UNL     1      66.923 -14.768  -2.670  1.00  0.00     0.002 A 
HETATM   35  C16 UNL     1      66.135 -14.347  -1.635  1.00  0.00     0.000 A 
HETATM   36  C17 UNL     1      66.669 -13.514  -0.647  1.00  0.00     0.002 A 
HETATM   37  C18 UNL     1      67.985 -13.126  -0.725  1.00  0.00     0.032 A 
ENDBRANCH  30  32
ENDBRANCH  29  30
ENDBRANCH  26  29
ENDBRANCH   7  26
BRANCH   6  38
HETATM   38  N4  UNL     1      73.173 -13.706   2.019  1.00  0.00    -0.318 N 
HETATM   39  C7  UNL     1      74.420 -14.423   2.010  1.00  0.00     0.257 C 
HETATM   40  O4  UNL     1      74.381 -15.703   1.977  1.00  0.00    -0.270 OA
ATOM     41  H4  UNL     1      73.164 -12.685   2.028  1.00  0.00     0.169 HD
BRANCH  39  42
HETATM   42  C8  UNL     1      75.705 -13.743   2.044  1.00  0.00     0.196 C 
HETATM   43  C9  UNL     1      75.659 -12.259   1.908  1.00  0.00     0.056 C 
HETATM   44  C10 UNL     1      76.423 -14.091   3.357  1.00  0.00     0.056 C 
BRANCH  42  45
HETATM   45  N5  UNL     1      76.555 -14.273   0.972  1.00  0.00    -0.062 N 
ATOM     46  H53 UNL     1      76.741 -15.270   1.080  1.00  0.00     0.275 HD
ATOM     47  H52 UNL     1      76.070 -14.315   0.076  1.00  0.00     0.275 HD
ATOM     48  H51 UNL     1      77.412 -13.722   0.924  1.00  0.00     0.275 HD
ENDBRANCH  42  45
ENDBRANCH  39  42
ENDBRANCH   6  38
TORSDOF 14
ENDMDL
MODEL 5
REMARK VINA RESULT: -8.470708711      2.060      4.766
REMARK  14 active torsions:
REMARK  status: ('A' for Active; 'I' for Inactive)
REMARK    1  A    between atoms: O1_2  and  C2_3 
REMARK    2  A    between atoms: C2_3  and  C3_5 
REMARK    3  A    between atoms: C3_5  and  N1_6 
REMARK    4  A    between atoms: N1_6  and  N2_7 
REMARK    5  A    between atoms: N1_6  and  C4_10 
REMARK    6  A    between atoms: C6_15  and  N4_16 
REMARK       I    between atoms: N4_16  and  C7_18 
REMARK    7  A    between atoms: C7_18  and  C8_20 
REMARK    8  A    between atoms: C8_20  and  N5_23 
REMARK    9  A    between atoms: C11_27  and  C12_28 
REMARK   10  A    between atoms: C12_28  and  O5_29 
REMARK   11  A    between atoms: C12_28  and  N6_31 
REMARK   12  A    between atoms: N6_31  and  N7_32 
REMARK   13  A    between atoms: N7_32  and  C13_34 
REMARK   14  A    between atoms: C20_44  and  O7_46 
ROOT
HETATM    1  C4  UNL     1      70.552 -15.430   2.092  1.00  0.00     0.707 A 
HETATM    2  N3  UNL     1      71.321 -15.334   0.992  1.00  0.00    -0.152 N 
ATOM      3  H3  UNL     1      70.936 -15.636   0.098  1.00  0.00     0.187 HD
HETATM    4  C5  UNL     1      72.571 -14.857   1.025  1.00  0.00     0.289 A 
HETATM    5  O3  UNL     1      73.298 -14.763  -0.003  1.00  0.00    -0.265 OA
HETATM    6  C6  UNL     1      73.161 -14.422   2.230  1.00  0.00     0.137 A 
HETATM    7  C11 UNL     1      72.365 -14.531   3.326  1.00  0.00     0.148 A 
HETATM    8  N8  UNL     1      71.111 -15.017   3.246  1.00  0.00    -0.182 N 
ATOM      9  H8  UNL     1      70.558 -15.074   4.101  1.00  0.00     0.184 HD
ENDROOT
BRANCH   1  10
HETATM   10  N1  UNL     1      69.224 -15.939   2.049  1.00  0.00    -0.057 N 
BRANCH  10  11
HETATM   11  C3  UNL     1      68.769 -17.136   2.713  1.00  0.00     0.379 C 
HETATM   12  O6  UNL     1      69.343 -18.205   2.069  1.00  0.00    -0.323 OA
HETATM   13  C19 UNL     1      70.088 -18.922   3.012  1.00  0.00     0.242 C 
HETATM   14  C20 UNL     1      69.380 -18.546   4.289  1.00  0.00     0.185 C 
HETATM   15  C21 UNL     1      68.136 -19.393   4.397  1.00  0.00     0.081 C 
HETATM   16  O8  UNL     1      69.110 -17.199   4.057  1.00  0.00    -0.289 OA
BRANCH  11  17
HETATM   17  C2  UNL     1      67.285 -17.100   2.641  1.00  0.00     0.348 C 
HETATM   18  O2  UNL     1      66.708 -17.905   1.873  1.00  0.00    -0.257 OA
BRANCH  17  19
HETATM   19  O1  UNL     1      66.503 -16.229   3.375  1.00  0.00    -0.321 OA
HETATM   20  C1  UNL     1      65.168 -15.934   2.989  1.00  0.00     0.213 C 
ENDBRANCH  17  19
ENDBRANCH  11  17
BRANCH  14  21
HETATM   21  O7  UNL     1      70.169 -18.734   5.415  1.00  0.00    -0.364 OA
ATOM     22  H7  UNL     1      70.411 -17.917   5.835  1.00  0.00     0.213 HD
ENDBRANCH  14  21
ENDBRANCH  10  11
BRANCH  10  23
HETATM   23  N2  UNL     1      68.244 -15.253   1.307  1.00  0.00    -0.323 N 
ATOM     24  H22 UNL     1      67.780 -15.727   0.531  1.00  0.00     0.177 HD
ATOM     25  H21 UNL     1      68.056 -14.297   1.610  1.00  0.00     0.177 HD
ENDBRANCH  10  23
ENDBRANCH   1  10
BRANCH   7  26
HETATM   26  C12 UNL     1      72.924 -14.130   4.641  1.00  0.00     0.268 C 
BRANCH  26  27
HETATM   27  O5  UNL     1      74.190 -14.588   5.036  1.00  0.00    -0.332 OA
ATOM     28  H5  UNL     1      74.282 -15.113   5.821  1.00  0.00     0.220 HD
ENDBRANCH  26  27
BRANCH  26  29
HETATM   29  N6  UNL     1      72.282 -13.414   5.363  1.00  0.00    -0.297 NA
BRANCH  29  30
HETATM   30  N7  UNL     1      71.340 -12.764   5.951  1.00  0.00    -0.234 N 
ATOM     31  H7  UNL     1      70.988 -13.102   6.846  1.00  0.00     0.202 HD
BRANCH  30  32
HETATM   32  C13 UNL     1      70.770 -11.570   5.376  1.00  0.00     0.060 A 
HETATM   33  C14 UNL     1      70.053 -11.647   4.201  1.00  0.00     0.032 A 
HETATM   34  C15 UNL     1      69.514 -10.502   3.654  1.00  0.00     0.002 A 
HETATM   35  C16 UNL     1      69.685  -9.295   4.272  1.00  0.00     0.000 A 
HETATM   36  C17 UNL     1      70.411  -9.219   5.464  1.00  0.00     0.002 A 
HETATM   37  C18 UNL     1      70.948 -10.363   6.005  1.00  0.00     0.032 A 
ENDBRANCH  30  32
ENDBRANCH  29  30
ENDBRANCH  26  29
ENDBRANCH   7  26
BRANCH   6  38
HETATM   38  N4  UNL     1      74.494 -13.920   2.193  1.00  0.00    -0.318 N 
HETATM   39  C7  UNL     1      75.594 -14.845   2.265  1.00  0.00     0.257 C 
HETATM   40  O4  UNL     1      75.329 -16.096   2.339  1.00  0.00    -0.270 OA
ATOM     41  H4  UNL     1      74.666 -12.918   2.115  1.00  0.00     0.169 HD
BRANCH  39  42
HETATM   42  C8  UNL     1      76.979 -14.401   2.263  1.00  0.00     0.196 C 
HETATM   43  C9  UNL     1      77.195 -12.942   2.048  1.00  0.00     0.056 C 
HETATM   44  C10 UNL     1      77.636 -14.801   3.593  1.00  0.00     0.056 C 
BRANCH  42  45
HETATM   45  N5  UNL     1      77.713 -15.129   1.221  1.00  0.00    -0.062 N 
ATOM     46  H53 UNL     1      78.525 -15.623   1.591  1.00  0.00     0.275 HD
ATOM     47  H52 UNL     1      77.197 -15.938   0.877  1.00  0.00     0.275 HD
ATOM     48  H51 UNL     1      77.961 -14.480   0.474  1.00  0.00     0.275 HD
ENDBRANCH  42  45
ENDBRANCH  39  42
ENDBRANCH   6  38
TORSDOF 14
ENDMDL
