MODEL 1
REMARK VINA RESULT: -9.123926548      0.000      0.000
REMARK  14 active torsions:
REMARK  status: ('A' for Active; 'I' for Inactive)
REMARK    1  A    between atoms: C2_2  and  C3_4 
REMARK    2  A    between atoms: C3_4  and  N1_5 
REMARK    3  A    between atoms: C3_4  and  C8_21 
REMARK    4  A    between atoms: N1_5  and  N2_7 
REMARK    5  A    between atoms: C4_10  and  C5_11 
REMARK    6  A    between atoms: C5_11  and  N4_12 
REMARK    7  A    between atoms: C8_21  and  O4_23 
REMARK    8  A    between atoms: O4_23  and  N6_24 
REMARK    9  A    between atoms: N6_24  and  C9_26 
REMARK   10  A    between atoms: C9_26  and  C10_27 
REMARK   11  A    between atoms: C10_27  and  C11_28 
REMARK   12  A    between atoms: C14_39  and  O5_40 
REMARK   13  A    between atoms: C14_39  and  N11_42 
REMARK   14  A    between atoms: N11_42  and  C15_44 
ROOT
HETATM    1  N6  UNL     1      76.851 -12.473   4.259  1.00  0.00    -0.257 N 
ATOM      2  H6  UNL     1      75.999 -12.155   3.797  1.00  0.00     0.195 HD
ENDROOT
BRANCH   1   3
HETATM    3  O4  UNL     1      76.947 -12.340   5.592  1.00  0.00    -0.193 OA
BRANCH   3   4
HETATM    4  C8  UNL     1      76.358 -11.363   6.371  1.00  0.00     0.337 C 
HETATM    5  O3  UNL     1      75.201 -11.034   6.098  1.00  0.00    -0.255 OA
BRANCH   4   6
HETATM    6  C3  UNL     1      77.060 -10.716   7.502  1.00  0.00     0.173 C 
BRANCH   6   7
HETATM    7  C2  UNL     1      78.177 -11.367   8.150  1.00  0.00     0.179 C 
HETATM    8  C1  UNL     1      79.568 -11.051   7.772  1.00  0.00     0.099 C 
HETATM    9  O1  UNL     1      77.981 -12.215   9.053  1.00  0.00    -0.291 OA
ENDBRANCH   6   7
BRANCH   6  10
HETATM   10  N1  UNL     1      76.647  -9.545   7.889  1.00  0.00    -0.266 N 
ATOM     11  H1  UNL     1      76.978  -8.744   7.353  1.00  0.00     0.189 HD
BRANCH  10  12
HETATM   12  N2  UNL     1      75.807  -9.275   8.952  1.00  0.00    -0.141 N 
HETATM   13  N3  UNL     1      74.526  -9.638   8.964  1.00  0.00    -0.271 N 
HETATM   14  C4  UNL     1      73.701  -9.374   9.978  1.00  0.00     0.103 A 
ATOM     15  H3  UNL     1      74.157 -10.143   8.158  1.00  0.00     0.189 HD
HETATM   16  C6  UNL     1      74.199  -8.685  11.078  1.00  0.00     0.134 A 
HETATM   17  S1  UNL     1      73.193  -8.370  12.304  1.00  0.00    -0.058 SA
HETATM   18  N5  UNL     1      75.482  -8.324  11.063  1.00  0.00    -0.295 N 
HETATM   19  C7  UNL     1      76.280  -8.603  10.033  1.00  0.00     0.362 A 
ATOM     20  H5  UNL     1      75.864  -7.819  11.863  1.00  0.00     0.171 HD
HETATM   21  O2  UNL     1      77.496  -8.257  10.024  1.00  0.00    -0.243 OA
BRANCH  14  22
HETATM   22  C5  UNL     1      72.306  -9.787   9.937  1.00  0.00     0.115 C 
BRANCH  22  23
HETATM   23  N4  UNL     1      71.698  -9.821   8.803  1.00  0.00    -0.406 N 
ATOM     24  H42 UNL     1      72.217  -9.619   7.948  1.00  0.00     0.155 HD
ATOM     25  H41 UNL     1      70.705 -10.051   8.781  1.00  0.00     0.155 HD
ENDBRANCH  22  23
ENDBRANCH  14  22
ENDBRANCH  10  12
ENDBRANCH   6  10
ENDBRANCH   4   6
ENDBRANCH   3   4
ENDBRANCH   1   3
BRANCH   1  26
HETATM   26  C9  UNL     1      77.843 -13.013   3.496  1.00  0.00     0.088 C 
HETATM   27  C14 UNL     1      78.795 -12.032   3.115  1.00  0.00     0.162 C 
BRANCH  26  28
HETATM   28  C10 UNL     1      77.760 -14.430   3.222  1.00  0.00     0.124 C 
BRANCH  28  29
HETATM   29  C11 UNL     1      76.712 -14.944   2.319  1.00  0.00     0.074 A 
HETATM   30  N7  UNL     1      76.974 -15.499   1.077  1.00  0.00    -0.192 N 
HETATM   31  C12 UNL     1      75.839 -15.812   0.447  1.00  0.00     0.677 A 
ATOM     32  H7  UNL     1      77.908 -15.648   0.696  1.00  0.00     0.184 HD
HETATM   33  N8  UNL     1      75.736 -16.352  -0.746  1.00  0.00    -0.234 N 
HETATM   34  N9  UNL     1      74.815 -15.479   1.242  1.00  0.00    -0.177 N 
ATOM     35  H82 UNL     1      76.517 -16.606  -1.351  1.00  0.00     0.174 HD
ATOM     36  H81 UNL     1      74.870 -16.592  -1.227  1.00  0.00     0.174 HD
HETATM   37  C13 UNL     1      75.350 -14.956   2.376  1.00  0.00     0.155 A 
ATOM     38  H9  UNL     1      73.823 -15.596   1.036  1.00  0.00     0.185 HD
HETATM   39  N10 UNL     1      74.543 -14.560   3.477  1.00  0.00    -0.080 NA
ENDBRANCH  28  29
ENDBRANCH  26  28
BRANCH  27  40
HETATM   40  O5  UNL     1      78.573 -10.829   3.557  1.00  0.00    -0.345 OA
ATOM     41  H5  UNL     1      77.817 -10.389   3.188  1.00  0.00     0.219 HD
ENDBRANCH  27  40
BRANCH  27  42
HETATM   42  N11 UNL     1      79.950 -12.135   2.332  1.00  0.00    -0.361 N 
ATOM     43  H11 UNL     1      80.850 -12.255   2.794  1.00  0.00     0.162 HD
BRANCH  42  44
HETATM   44  C15 UNL     1      79.906 -12.075   0.868  1.00  0.00     0.021 C 
HETATM   45  C16 UNL     1      78.781 -11.198   0.393  1.00  0.00     0.037 C 
HETATM   46  C17 UNL     1      81.188 -11.445   0.336  1.00  0.00     0.037 C 
HETATM   47  C18 UNL     1      79.820 -13.473   0.334  1.00  0.00     0.037 C 
ENDBRANCH  42  44
ENDBRANCH  27  42
ENDBRANCH   1  26
TORSDOF 14
ENDMDL
MODEL 2
REMARK VINA RESULT: -8.905985529      0.951      1.637
REMARK  14 active torsions:
REMARK  status: ('A' for Active; 'I' for Inactive)
REMARK    1  A    between atoms: C2_2  and  C3_4 
REMARK    2  A    between atoms: C3_4  and  N1_5 
REMARK    3  A    between atoms: C3_4  and  C8_21 
REMARK    4  A    between atoms: N1_5  and  N2_7 
REMARK    5  A    between atoms: C4_10  and  C5_11 
REMARK    6  A    between atoms: C5_11  and  N4_12 
REMARK    7  A    between atoms: C8_21  and  O4_23 
REMARK    8  A    between atoms: O4_23  and  N6_24 
REMARK    9  A    between atoms: N6_24  and  C9_26 
REMARK   10  A    between atoms: C9_26  and  C10_27 
REMARK   11  A    between atoms: C10_27  and  C11_28 
REMARK   12  A    between atoms: C14_39  and  O5_40 
REMARK   13  A    between atoms: C14_39  and  N11_42 
REMARK   14  A    between atoms: N11_42  and  C15_44 
ROOT
HETATM    1  N6  UNL     1      78.178 -13.147   4.988  1.00  0.00    -0.257 N 
ATOM      2  H6  UNL     1      79.111 -13.316   5.364  1.00  0.00     0.195 HD
ENDROOT
BRANCH   1   3
HETATM    3  O4  UNL     1      77.170 -12.924   5.847  1.00  0.00    -0.193 OA
BRANCH   3   4
HETATM    4  C8  UNL     1      76.648 -11.697   6.211  1.00  0.00     0.337 C 
HETATM    5  O3  UNL     1      75.727 -11.242   5.528  1.00  0.00    -0.255 OA
BRANCH   4   6
HETATM    6  C3  UNL     1      77.151 -10.932   7.372  1.00  0.00     0.173 C 
BRANCH   6   7
HETATM    7  C2  UNL     1      78.201 -11.465   8.213  1.00  0.00     0.179 C 
HETATM    8  C1  UNL     1      79.603 -11.036   8.045  1.00  0.00     0.099 C 
HETATM    9  O1  UNL     1      77.935 -12.305   9.104  1.00  0.00    -0.291 OA
ENDBRANCH   6   7
BRANCH   6  10
HETATM   10  N1  UNL     1      76.626  -9.766   7.611  1.00  0.00    -0.266 N 
ATOM     11  H1  UNL     1      76.833  -9.026   6.941  1.00  0.00     0.189 HD
BRANCH  10  12
HETATM   12  N2  UNL     1      75.818  -9.426   8.678  1.00  0.00    -0.141 N 
HETATM   13  N3  UNL     1      74.532  -9.763   8.740  1.00  0.00    -0.271 N 
HETATM   14  C4  UNL     1      73.738  -9.432   9.759  1.00  0.00     0.103 A 
ATOM     15  H3  UNL     1      74.134 -10.302   7.970  1.00  0.00     0.189 HD
HETATM   16  C6  UNL     1      74.275  -8.698  10.810  1.00  0.00     0.134 A 
HETATM   17  S1  UNL     1      73.306  -8.302  12.042  1.00  0.00    -0.058 SA
HETATM   18  N5  UNL     1      75.563  -8.363  10.745  1.00  0.00    -0.295 N 
HETATM   19  C7  UNL     1      76.330  -8.709   9.712  1.00  0.00     0.362 A 
ATOM     20  H5  UNL     1      75.975  -7.826  11.509  1.00  0.00     0.171 HD
HETATM   21  O2  UNL     1      77.552  -8.387   9.656  1.00  0.00    -0.243 OA
BRANCH  14  22
HETATM   22  C5  UNL     1      72.334  -9.820   9.773  1.00  0.00     0.115 C 
BRANCH  22  23
HETATM   23  N4  UNL     1      71.694  -9.885   8.659  1.00  0.00    -0.406 N 
ATOM     24  H42 UNL     1      72.210 -10.014   7.789  1.00  0.00     0.155 HD
ATOM     25  H41 UNL     1      70.677  -9.805   8.668  1.00  0.00     0.155 HD
ENDBRANCH  22  23
ENDBRANCH  14  22
ENDBRANCH  10  12
ENDBRANCH   6  10
ENDBRANCH   4   6
ENDBRANCH   3   4
ENDBRANCH   1   3
BRANCH   1  26
HETATM   26  C9  UNL     1      78.009 -13.157   3.635  1.00  0.00     0.088 C 
HETATM   27  C14 UNL     1      78.554 -11.991   3.037  1.00  0.00     0.162 C 
BRANCH  26  28
HETATM   28  C10 UNL     1      77.338 -14.305   3.068  1.00  0.00     0.124 C 
BRANCH  28  29
HETATM   29  C11 UNL     1      75.872 -14.290   2.898  1.00  0.00     0.074 A 
HETATM   30  N7  UNL     1      75.057 -13.269   3.357  1.00  0.00    -0.192 N 
HETATM   31  C12 UNL     1      73.771 -13.549   3.131  1.00  0.00     0.677 A 
ATOM     32  H7  UNL     1      75.394 -12.418   3.807  1.00  0.00     0.184 HD
HETATM   33  N8  UNL     1      72.744 -12.792   3.445  1.00  0.00    -0.234 N 
HETATM   34  N9  UNL     1      73.703 -14.742   2.527  1.00  0.00    -0.177 N 
ATOM     35  H82 UNL     1      72.795 -11.884   3.906  1.00  0.00     0.174 HD
ATOM     36  H81 UNL     1      71.762 -13.006   3.273  1.00  0.00     0.174 HD
HETATM   37  C13 UNL     1      74.980 -15.184   2.386  1.00  0.00     0.155 A 
ATOM     38  H9  UNL     1      72.856 -15.225   2.229  1.00  0.00     0.185 HD
HETATM   39  N10 UNL     1      75.286 -16.398   1.712  1.00  0.00    -0.080 NA
ENDBRANCH  28  29
ENDBRANCH  26  28
BRANCH  27  40
HETATM   40  O5  UNL     1      79.114 -11.148   3.854  1.00  0.00    -0.345 OA
ATOM     41  H5  UNL     1      78.558 -10.443   4.164  1.00  0.00     0.219 HD
ENDBRANCH  27  40
BRANCH  27  42
HETATM   42  N11 UNL     1      78.591 -11.582   1.700  1.00  0.00    -0.361 N 
ATOM     43  H11 UNL     1      77.826 -11.013   1.337  1.00  0.00     0.162 HD
BRANCH  42  44
HETATM   44  C15 UNL     1      79.693 -11.945   0.804  1.00  0.00     0.021 C 
HETATM   45  C16 UNL     1      79.793 -10.987  -0.349  1.00  0.00     0.037 C 
HETATM   46  C17 UNL     1      81.019 -11.853   1.550  1.00  0.00     0.037 C 
HETATM   47  C18 UNL     1      79.505 -13.367   0.366  1.00  0.00     0.037 C 
ENDBRANCH  42  44
ENDBRANCH  27  42
ENDBRANCH   1  26
TORSDOF 14
ENDMDL
MODEL 3
REMARK VINA RESULT: -8.872809988      4.034      5.632
REMARK  14 active torsions:
REMARK  status: ('A' for Active; 'I' for Inactive)
REMARK    1  A    between atoms: C2_2  and  C3_4 
REMARK    2  A    between atoms: C3_4  and  N1_5 
REMARK    3  A    between atoms: C3_4  and  C8_21 
REMARK    4  A    between atoms: N1_5  and  N2_7 
REMARK    5  A    between atoms: C4_10  and  C5_11 
REMARK    6  A    between atoms: C5_11  and  N4_12 
REMARK    7  A    between atoms: C8_21  and  O4_23 
REMARK    8  A    between atoms: O4_23  and  N6_24 
REMARK    9  A    between atoms: N6_24  and  C9_26 
REMARK   10  A    between atoms: C9_26  and  C10_27 
REMARK   11  A    between atoms: C10_27  and  C11_28 
REMARK   12  A    between atoms: C14_39  and  O5_40 
REMARK   13  A    between atoms: C14_39  and  N11_42 
REMARK   14  A    between atoms: N11_42  and  C15_44 
ROOT
HETATM    1  N6  UNL     1      74.077 -11.709   6.521  1.00  0.00    -0.257 N 
ATOM      2  H6  UNL     1      74.159 -12.202   7.410  1.00  0.00     0.195 HD
ENDROOT
BRANCH   1   3
HETATM    3  O4  UNL     1      75.155 -11.070   6.039  1.00  0.00    -0.193 OA
BRANCH   3   4
HETATM    4  C8  UNL     1      76.475 -11.305   6.372  1.00  0.00     0.337 C 
HETATM    5  O3  UNL     1      77.120 -12.067   5.648  1.00  0.00    -0.255 OA
BRANCH   4   6
HETATM    6  C3  UNL     1      77.123 -10.681   7.546  1.00  0.00     0.173 C 
BRANCH   6   7
HETATM    7  C2  UNL     1      78.163 -11.374   8.275  1.00  0.00     0.179 C 
HETATM    8  C1  UNL     1      79.567 -10.923   8.213  1.00  0.00     0.099 C 
HETATM    9  O1  UNL     1      77.886 -12.374   8.977  1.00  0.00    -0.291 OA
ENDBRANCH   6   7
BRANCH   6  10
HETATM   10  N1  UNL     1      76.734  -9.490   7.899  1.00  0.00    -0.266 N 
ATOM     11  H1  UNL     1      76.936  -8.732   7.248  1.00  0.00     0.189 HD
BRANCH  10  12
HETATM   12  N2  UNL     1      76.075  -9.148   9.064  1.00  0.00    -0.141 N 
HETATM   13  N3  UNL     1      74.800  -9.458   9.285  1.00  0.00    -0.271 N 
HETATM   14  C4  UNL     1      74.149  -9.123  10.399  1.00  0.00     0.103 A 
ATOM     15  H3  UNL     1      74.295  -9.977   8.566  1.00  0.00     0.189 HD
HETATM   16  C6  UNL     1      74.832  -8.416  11.382  1.00  0.00     0.134 A 
HETATM   17  S1  UNL     1      74.036  -8.016  12.731  1.00  0.00    -0.058 SA
HETATM   18  N5  UNL     1      76.109  -8.108  11.158  1.00  0.00    -0.295 N 
HETATM   19  C7  UNL     1      76.730  -8.457  10.032  1.00  0.00     0.362 A 
ATOM     20  H5  UNL     1      76.626  -7.590  11.869  1.00  0.00     0.171 HD
HETATM   21  O2  UNL     1      77.942  -8.160   9.825  1.00  0.00    -0.243 OA
BRANCH  14  22
HETATM   22  C5  UNL     1      72.750  -9.481  10.587  1.00  0.00     0.115 C 
BRANCH  22  23
HETATM   23  N4  UNL     1      72.175 -10.231   9.714  1.00  0.00    -0.406 N 
ATOM     24  H42 UNL     1      72.744 -10.803   9.089  1.00  0.00     0.155 HD
ATOM     25  H41 UNL     1      71.156 -10.240   9.663  1.00  0.00     0.155 HD
ENDBRANCH  22  23
ENDBRANCH  14  22
ENDBRANCH  10  12
ENDBRANCH   6  10
ENDBRANCH   4   6
ENDBRANCH   3   4
ENDBRANCH   1   3
BRANCH   1  26
HETATM   26  C9  UNL     1      72.877 -11.729   5.873  1.00  0.00     0.088 C 
HETATM   27  C14 UNL     1      72.108 -10.574   6.175  1.00  0.00     0.162 C 
BRANCH  26  28
HETATM   28  C10 UNL     1      72.609 -12.869   5.026  1.00  0.00     0.124 C 
BRANCH  28  29
HETATM   29  C11 UNL     1      71.586 -13.855   5.422  1.00  0.00     0.074 A 
HETATM   30  N7  UNL     1      71.874 -15.036   6.085  1.00  0.00    -0.192 N 
HETATM   31  C12 UNL     1      70.770 -15.769   6.254  1.00  0.00     0.677 A 
ATOM     32  H7  UNL     1      72.803 -15.309   6.402  1.00  0.00     0.184 HD
HETATM   33  N8  UNL     1      70.697 -16.941   6.842  1.00  0.00    -0.234 N 
HETATM   34  N9  UNL     1      69.741 -15.102   5.716  1.00  0.00    -0.177 N 
ATOM     35  H82 UNL     1      71.481 -17.448   7.251  1.00  0.00     0.174 HD
ATOM     36  H81 UNL     1      69.854 -17.500   6.971  1.00  0.00     0.174 HD
HETATM   37  C13 UNL     1      70.241 -13.942   5.216  1.00  0.00     0.155 A 
ATOM     38  H9  UNL     1      68.768 -15.406   5.688  1.00  0.00     0.185 HD
HETATM   39  N10 UNL     1      69.405 -12.951   4.633  1.00  0.00    -0.080 NA
ENDBRANCH  28  29
ENDBRANCH  26  28
BRANCH  27  40
HETATM   40  O5  UNL     1      72.667  -9.718   6.978  1.00  0.00    -0.345 OA
ATOM     41  H5  UNL     1      72.262  -9.630   7.833  1.00  0.00     0.219 HD
ENDBRANCH  27  40
BRANCH  27  42
HETATM   42  N11 UNL     1      70.830 -10.192   5.753  1.00  0.00    -0.361 N 
ATOM     43  H11 UNL     1      70.017 -10.584   6.227  1.00  0.00     0.162 HD
BRANCH  42  44
HETATM   44  C15 UNL     1      70.623  -9.248   4.651  1.00  0.00     0.021 C 
HETATM   45  C16 UNL     1      71.400  -9.657   3.431  1.00  0.00     0.037 C 
HETATM   46  C17 UNL     1      69.156  -9.245   4.239  1.00  0.00     0.037 C 
HETATM   47  C18 UNL     1      70.973  -7.870   5.130  1.00  0.00     0.037 C 
ENDBRANCH  42  44
ENDBRANCH  27  42
ENDBRANCH   1  26
TORSDOF 14
ENDMDL
MODEL 4
REMARK VINA RESULT: -8.834021535      1.759      4.045
REMARK  14 active torsions:
REMARK  status: ('A' for Active; 'I' for Inactive)
REMARK    1  A    between atoms: C2_2  and  C3_4 
REMARK    2  A    between atoms: C3_4  and  N1_5 
REMARK    3  A    between atoms: C3_4  and  C8_21 
REMARK    4  A    between atoms: N1_5  and  N2_7 
REMARK    5  A    between atoms: C4_10  and  C5_11 
REMARK    6  A    between atoms: C5_11  and  N4_12 
REMARK    7  A    between atoms: C8_21  and  O4_23 
REMARK    8  A    between atoms: O4_23  and  N6_24 
REMARK    9  A    between atoms: N6_24  and  C9_26 
REMARK   10  A    between atoms: C9_26  and  C10_27 
REMARK   11  A    between atoms: C10_27  and  C11_28 
REMARK   12  A    between atoms: C14_39  and  O5_40 
REMARK   13  A    between atoms: C14_39  and  N11_42 
REMARK   14  A    between atoms: N11_42  and  C15_44 
ROOT
HETATM    1  N6  UNL     1      77.808 -11.508   3.824  1.00  0.00    -0.257 N 
ATOM      2  H6  UNL     1      77.020 -11.670   4.452  1.00  0.00     0.195 HD
ENDROOT
BRANCH   1   3
HETATM    3  O4  UNL     1      78.710 -10.571   4.156  1.00  0.00    -0.193 OA
BRANCH   3   4
HETATM    4  C8  UNL     1      79.383 -10.457   5.358  1.00  0.00     0.337 C 
HETATM    5  O3  UNL     1      80.600 -10.261   5.316  1.00  0.00    -0.255 OA
BRANCH   4   6
HETATM    6  C3  UNL     1      78.698 -10.560   6.665  1.00  0.00     0.173 C 
BRANCH   6   7
HETATM    7  C2  UNL     1      78.497 -11.846   7.297  1.00  0.00     0.179 C 
HETATM    8  C1  UNL     1      79.065 -12.139   8.628  1.00  0.00     0.099 C 
HETATM    9  O1  UNL     1      77.831 -12.738   6.722  1.00  0.00    -0.291 OA
ENDBRANCH   6   7
BRANCH   6  10
HETATM   10  N1  UNL     1      78.290  -9.463   7.231  1.00  0.00    -0.266 N 
ATOM     11  H1  UNL     1      78.822  -8.617   7.026  1.00  0.00     0.189 HD
BRANCH  10  12
HETATM   12  N2  UNL     1      77.211  -9.323   8.081  1.00  0.00    -0.141 N 
HETATM   13  N3  UNL     1      75.961  -9.584   7.704  1.00  0.00    -0.271 N 
HETATM   14  C4  UNL     1      74.909  -9.443   8.510  1.00  0.00     0.103 A 
ATOM     15  H3  UNL     1      75.801  -9.907   6.749  1.00  0.00     0.189 HD
HETATM   16  C6  UNL     1      75.122  -9.001   9.811  1.00  0.00     0.134 A 
HETATM   17  S1  UNL     1      73.842  -8.834  10.783  1.00  0.00    -0.058 SA
HETATM   18  N5  UNL     1      76.375  -8.742  10.187  1.00  0.00    -0.295 N 
HETATM   19  C7  UNL     1      77.405  -8.893   9.355  1.00  0.00     0.362 A 
ATOM     20  H5  UNL     1      76.550  -8.419  11.138  1.00  0.00     0.171 HD
HETATM   21  O2  UNL     1      78.591  -8.645   9.717  1.00  0.00    -0.243 OA
BRANCH  14  22
HETATM   22  C5  UNL     1      73.561  -9.734   8.043  1.00  0.00     0.115 C 
BRANCH  22  23
HETATM   23  N4  UNL     1      73.289 -10.920   7.623  1.00  0.00    -0.406 N 
ATOM     24  H42 UNL     1      73.879 -11.702   7.908  1.00  0.00     0.155 HD
ATOM     25  H41 UNL     1      72.485 -11.055   7.011  1.00  0.00     0.155 HD
ENDBRANCH  22  23
ENDBRANCH  14  22
ENDBRANCH  10  12
ENDBRANCH   6  10
ENDBRANCH   4   6
ENDBRANCH   3   4
ENDBRANCH   1   3
BRANCH   1  26
HETATM   26  C9  UNL     1      77.898 -12.251   2.685  1.00  0.00     0.088 C 
HETATM   27  C14 UNL     1      77.490 -13.593   2.910  1.00  0.00     0.162 C 
BRANCH  26  28
HETATM   28  C10 UNL     1      78.368 -11.575   1.498  1.00  0.00     0.124 C 
BRANCH  28  29
HETATM   29  C11 UNL     1      79.732 -11.832   0.997  1.00  0.00     0.074 A 
HETATM   30  N7  UNL     1      80.640 -12.659   1.635  1.00  0.00    -0.192 N 
HETATM   31  C12 UNL     1      81.817 -12.651   1.003  1.00  0.00     0.677 A 
ATOM     32  H7  UNL     1      80.438 -13.202   2.474  1.00  0.00     0.184 HD
HETATM   33  N8  UNL     1      82.890 -13.325   1.349  1.00  0.00    -0.234 N 
HETATM   34  N9  UNL     1      81.718 -11.832  -0.052  1.00  0.00    -0.177 N 
ATOM     35  H82 UNL     1      82.965 -13.949   2.152  1.00  0.00     0.174 HD
ATOM     36  H81 UNL     1      83.788 -13.319   0.866  1.00  0.00     0.174 HD
HETATM   37  C13 UNL     1      80.452 -11.340  -0.051  1.00  0.00     0.155 A 
ATOM     38  H9  UNL     1      82.453 -11.619  -0.726  1.00  0.00     0.185 HD
HETATM   39  N10 UNL     1      79.975 -10.487  -1.084  1.00  0.00    -0.080 NA
ENDBRANCH  28  29
ENDBRANCH  26  28
BRANCH  27  40
HETATM   40  O5  UNL     1      77.100 -13.869   4.120  1.00  0.00    -0.345 OA
ATOM     41  H5  UNL     1      77.732 -14.325   4.662  1.00  0.00     0.219 HD
ENDBRANCH  27  40
BRANCH  27  42
HETATM   42  N11 UNL     1      77.437 -14.689   2.043  1.00  0.00    -0.361 N 
ATOM     43  H11 UNL     1      78.250 -15.300   1.969  1.00  0.00     0.162 HD
BRANCH  42  44
HETATM   44  C15 UNL     1      76.250 -14.987   1.236  1.00  0.00     0.021 C 
HETATM   45  C16 UNL     1      75.470 -13.738   0.935  1.00  0.00     0.037 C 
HETATM   46  C17 UNL     1      76.670 -15.561  -0.112  1.00  0.00     0.037 C 
HETATM   47  C18 UNL     1      75.435 -16.025   1.949  1.00  0.00     0.037 C 
ENDBRANCH  42  44
ENDBRANCH  27  42
ENDBRANCH   1  26
TORSDOF 14
ENDMDL
MODEL 5
REMARK VINA RESULT: -8.738080087      1.663      3.729
REMARK  14 active torsions:
REMARK  status: ('A' for Active; 'I' for Inactive)
REMARK    1  A    between atoms: C2_2  and  C3_4 
REMARK    2  A    between atoms: C3_4  and  N1_5 
REMARK    3  A    between atoms: C3_4  and  C8_21 
REMARK    4  A    between atoms: N1_5  and  N2_7 
REMARK    5  A    between atoms: C4_10  and  C5_11 
REMARK    6  A    between atoms: C5_11  and  N4_12 
REMARK    7  A    between atoms: C8_21  and  O4_23 
REMARK    8  A    between atoms: O4_23  and  N6_24 
REMARK    9  A    between atoms: N6_24  and  C9_26 
REMARK   10  A    between atoms: C9_26  and  C10_27 
REMARK   11  A    between atoms: C10_27  and  C11_28 
REMARK   12  A    between atoms: C14_39  and  O5_40 
REMARK   13  A    between atoms: C14_39  and  N11_42 
REMARK   14  A    between atoms: N11_42  and  C15_44 
ROOT
HETATM    1  N6  UNL     1      75.579 -13.901   5.761  1.00  0.00    -0.257 N 
ATOM      2  H6  UNL     1      75.758 -14.572   6.508  1.00  0.00     0.195 HD
ENDROOT
BRANCH   1   3
HETATM    3  O4  UNL     1      75.266 -12.638   6.094  1.00  0.00    -0.193 OA
BRANCH   3   4
HETATM    4  C8  UNL     1      76.080 -11.527   5.983  1.00  0.00     0.337 C 
HETATM    5  O3  UNL     1      76.151 -10.978   4.881  1.00  0.00    -0.255 OA
BRANCH   4   6
HETATM    6  C3  UNL     1      76.850 -10.988   7.126  1.00  0.00     0.173 C 
BRANCH   6   7
HETATM    7  C2  UNL     1      77.915 -11.758   7.731  1.00  0.00     0.179 C 
HETATM    8  C1  UNL     1      79.113 -11.098   8.286  1.00  0.00     0.099 C 
HETATM    9  O1  UNL     1      77.836 -13.007   7.796  1.00  0.00    -0.291 OA
ENDBRANCH   6   7
BRANCH   6  10
HETATM   10  N1  UNL     1      76.547  -9.801   7.563  1.00  0.00    -0.266 N 
ATOM     11  H1  UNL     1      76.973  -9.012   7.078  1.00  0.00     0.189 HD
BRANCH  10  12
HETATM   12  N2  UNL     1      75.707  -9.499   8.617  1.00  0.00    -0.141 N 
HETATM   13  N3  UNL     1      74.417  -9.827   8.623  1.00  0.00    -0.271 N 
HETATM   14  C4  UNL     1      73.592  -9.532   9.629  1.00  0.00     0.103 A 
ATOM     15  H3  UNL     1      74.040 -10.329   7.819  1.00  0.00     0.189 HD
HETATM   16  C6  UNL     1      74.100  -8.847  10.727  1.00  0.00     0.134 A 
HETATM   17  S1  UNL     1      73.094  -8.494  11.942  1.00  0.00    -0.058 SA
HETATM   18  N5  UNL     1      75.392  -8.521  10.718  1.00  0.00    -0.295 N 
HETATM   19  C7  UNL     1      76.190  -8.831   9.696  1.00  0.00     0.362 A 
ATOM     20  H5  UNL     1      75.782  -8.019  11.516  1.00  0.00     0.171 HD
HETATM   21  O2  UNL     1      77.415  -8.517   9.693  1.00  0.00    -0.243 OA
BRANCH  14  22
HETATM   22  C5  UNL     1      72.186  -9.908   9.581  1.00  0.00     0.115 C 
BRANCH  22  23
HETATM   23  N4  UNL     1      71.576  -9.901   8.448  1.00  0.00    -0.406 N 
ATOM     24  H42 UNL     1      72.117  -9.966   7.586  1.00  0.00     0.155 HD
ATOM     25  H41 UNL     1      70.559  -9.829   8.434  1.00  0.00     0.155 HD
ENDBRANCH  22  23
ENDBRANCH  14  22
ENDBRANCH  10  12
ENDBRANCH   6  10
ENDBRANCH   4   6
ENDBRANCH   3   4
ENDBRANCH   1   3
BRANCH   1  26
HETATM   26  C9  UNL     1      75.665 -14.325   4.468  1.00  0.00     0.088 C 
HETATM   27  C14 UNL     1      74.400 -14.281   3.824  1.00  0.00     0.162 C 
BRANCH  26  28
HETATM   28  C10 UNL     1      76.972 -14.725   3.997  1.00  0.00     0.124 C 
BRANCH  28  29
HETATM   29  C11 UNL     1      77.979 -13.700   3.665  1.00  0.00     0.074 A 
HETATM   30  N7  UNL     1      78.627 -12.925   4.612  1.00  0.00    -0.192 N 
HETATM   31  C12 UNL     1      79.430 -12.032   4.029  1.00  0.00     0.677 A 
ATOM     32  H7  UNL     1      78.506 -13.023   5.620  1.00  0.00     0.184 HD
HETATM   33  N8  UNL     1      80.184 -11.147   4.641  1.00  0.00    -0.234 N 
HETATM   34  N9  UNL     1      79.337 -12.191   2.702  1.00  0.00    -0.177 N 
ATOM     35  H82 UNL     1      80.255 -11.027   5.651  1.00  0.00     0.174 HD
ATOM     36  H81 UNL     1      80.797 -10.466   4.195  1.00  0.00     0.174 HD
HETATM   37  C13 UNL     1      78.458 -13.204   2.488  1.00  0.00     0.155 A 
ATOM     38  H9  UNL     1      79.831 -11.654   1.990  1.00  0.00     0.185 HD
HETATM   39  N10 UNL     1      78.174 -13.692   1.183  1.00  0.00    -0.080 NA
ENDBRANCH  28  29
ENDBRANCH  26  28
BRANCH  27  40
HETATM   40  O5  UNL     1      73.413 -13.844   4.549  1.00  0.00    -0.345 OA
ATOM     41  H5  UNL     1      73.284 -12.903   4.544  1.00  0.00     0.219 HD
ENDBRANCH  27  40
BRANCH  27  42
HETATM   42  N11 UNL     1      74.025 -14.634   2.524  1.00  0.00    -0.361 N 
ATOM     43  H11 UNL     1      73.741 -15.596   2.336  1.00  0.00     0.162 HD
BRANCH  42  44
HETATM   44  C15 UNL     1      74.028 -13.668   1.422  1.00  0.00     0.021 C 
HETATM   45  C16 UNL     1      72.640 -13.167   1.135  1.00  0.00     0.037 C 
HETATM   46  C17 UNL     1      74.850 -12.444   1.808  1.00  0.00     0.037 C 
HETATM   47  C18 UNL     1      74.676 -14.304   0.229  1.00  0.00     0.037 C 
ENDBRANCH  42  44
ENDBRANCH  27  42
ENDBRANCH   1  26
TORSDOF 14
ENDMDL
