MODEL 1
REMARK VINA RESULT: -6.277333929      0.000      0.000
REMARK  7 active torsions:
REMARK  status: ('A' for Active; 'I' for Inactive)
REMARK    1  A    between atoms: C3_3  and  C4_4 
REMARK    2  A    between atoms: N1_6  and  C6_7 
REMARK    3  A    between atoms: C6_7  and  C7_8 
REMARK    4  A    between atoms: N2_13  and  C10_14 
REMARK    5  A    between atoms: C10_14  and  C11_15 
REMARK       I    between atoms: C11_15  and  N3_17 
REMARK    6  A    between atoms: C16_22  and  C17_23 
REMARK    7  A    between atoms: C17_23  and  O4_24 
ROOT
HETATM    1  C1  UNL     1      14.793  67.079  15.656  1.00  0.00     0.112 C 
HETATM    2  C2  UNL     1      13.769  67.399  14.658  1.00  0.00    -0.109 C 
HETATM    3  C3  UNL     1      12.913  67.662  13.852  1.00  0.00    -0.071 C 
ENDROOT
BRANCH   3   4
HETATM    4  C4  UNL     1      11.890  67.953  12.881  1.00  0.00     0.300 C 
HETATM    5  C5  UNL     1      11.790  66.970  11.756  1.00  0.00     0.285 C 
HETATM    6  N1  UNL     1      12.616  67.389  10.649  1.00  0.00    -0.051 N 
HETATM    7  C8  UNL     1      11.811  68.437   9.981  1.00  0.00     0.266 C 
HETATM    8  C20 UNL     1      13.798  68.105  11.084  1.00  0.00     0.266 C 
HETATM    9  C9  UNL     1      11.227  69.246  11.075  1.00  0.00     0.272 C 
HETATM   10  N2  UNL     1      12.088  69.291  12.281  1.00  0.00    -0.022 N 
HETATM   11  C19 UNL     1      13.415  69.399  11.809  1.00  0.00     0.272 C 
BRANCH   6  12
HETATM   12  C6  UNL     1      12.903  66.389   9.686  1.00  0.00     0.350 C 
BRANCH  12  13
HETATM   13  C7  UNL     1      13.432  66.829   8.404  1.00  0.00     0.199 C 
HETATM   14  O1  UNL     1      14.543  67.392   8.271  1.00  0.00    -0.647 OA
HETATM   15  O2  UNL     1      12.685  66.626   7.252  1.00  0.00    -0.647 OA
ENDBRANCH  12  13
ENDBRANCH   6  12
BRANCH  10  16
HETATM   16  C10 UNL     1      11.540  70.307  13.089  1.00  0.00     0.278 C 
BRANCH  16  17
HETATM   17  C11 UNL     1      12.381  71.337  13.668  1.00  0.00     0.268 C 
HETATM   18  O3  UNL     1      13.075  71.206  14.697  1.00  0.00    -0.267 OA
HETATM   19  N3  UNL     1      12.461  72.618  13.061  1.00  0.00    -0.329 N 
HETATM   20  C12 UNL     1      11.670  72.776  11.845  1.00  0.00     0.129 C 
HETATM   21  C16 UNL     1      13.225  73.731  13.523  1.00  0.00     0.111 C 
HETATM   22  C13 UNL     1      11.737  74.089  11.183  1.00  0.00     0.045 C 
HETATM   23  C14 UNL     1      12.836  75.012  11.600  1.00  0.00     0.086 C 
HETATM   24  C15 UNL     1      13.964  74.281  12.304  1.00  0.00     0.066 C 
HETATM   25  N4  UNL     1      12.318  75.782  12.747  1.00  0.00    -0.377 N 
HETATM   26  C18 UNL     1      12.292  74.885  13.839  1.00  0.00     0.104 C 
ATOM     27  H4  UNL     1      12.036  76.762  12.752  1.00  0.00     0.160 HD
HETATM   28  S1  UNL     1      11.395  75.102  15.181  1.00  0.00    -0.063 SA
BRANCH  21  29
HETATM   29  C17 UNL     1      14.145  73.497  14.664  1.00  0.00     0.202 C 
BRANCH  29  30
HETATM   30  O4  UNL     1      15.400  73.147  14.077  1.00  0.00    -0.398 OA
ATOM     31  H4  UNL     1      15.894  73.957  14.031  1.00  0.00     0.209 HD
ENDBRANCH  29  30
ENDBRANCH  21  29
ENDBRANCH  16  17
ENDBRANCH  10  16
ENDBRANCH   3   4
TORSDOF 7
ENDMDL
MODEL 2
REMARK VINA RESULT: -6.252014046      3.828      7.264
REMARK  7 active torsions:
REMARK  status: ('A' for Active; 'I' for Inactive)
REMARK    1  A    between atoms: C3_3  and  C4_4 
REMARK    2  A    between atoms: N1_6  and  C6_7 
REMARK    3  A    between atoms: C6_7  and  C7_8 
REMARK    4  A    between atoms: N2_13  and  C10_14 
REMARK    5  A    between atoms: C10_14  and  C11_15 
REMARK       I    between atoms: C11_15  and  N3_17 
REMARK    6  A    between atoms: C16_22  and  C17_23 
REMARK    7  A    between atoms: C17_23  and  O4_24 
ROOT
HETATM    1  C1  UNL     1      14.453  62.838  17.887  1.00  0.00     0.112 C 
HETATM    2  C2  UNL     1      14.837  64.142  17.338  1.00  0.00    -0.109 C 
HETATM    3  C3  UNL     1      15.161  65.203  16.870  1.00  0.00    -0.071 C 
ENDROOT
BRANCH   3   4
HETATM    4  C4  UNL     1      15.568  66.473  16.326  1.00  0.00     0.300 C 
HETATM    5  C5  UNL     1      16.832  67.031  16.903  1.00  0.00     0.285 C 
HETATM    6  N1  UNL     1      16.536  67.884  18.029  1.00  0.00    -0.051 N 
HETATM    7  C8  UNL     1      16.103  69.156  17.407  1.00  0.00     0.266 C 
HETATM    8  C20 UNL     1      15.360  67.451  18.754  1.00  0.00     0.266 C 
HETATM    9  C9  UNL     1      15.236  68.767  16.271  1.00  0.00     0.272 C 
HETATM   10  N2  UNL     1      14.512  67.494  16.509  1.00  0.00    -0.022 N 
HETATM   11  C19 UNL     1      14.116  67.519  17.864  1.00  0.00     0.272 C 
BRANCH   6  12
HETATM   12  C6  UNL     1      17.631  68.174  18.881  1.00  0.00     0.350 C 
BRANCH  12  13
HETATM   13  C7  UNL     1      18.539  67.081  19.198  1.00  0.00     0.199 C 
HETATM   14  O1  UNL     1      19.732  67.044  18.821  1.00  0.00    -0.647 OA
HETATM   15  O2  UNL     1      18.081  66.013  19.955  1.00  0.00    -0.647 OA
ENDBRANCH  12  13
ENDBRANCH   6  12
BRANCH  10  16
HETATM   16  C10 UNL     1      13.543  67.425  15.489  1.00  0.00     0.278 C 
BRANCH  16  17
HETATM   17  C11 UNL     1      13.842  67.871  14.142  1.00  0.00     0.268 C 
HETATM   18  O3  UNL     1      14.956  68.272  13.746  1.00  0.00    -0.267 OA
HETATM   19  N3  UNL     1      12.826  67.877  13.149  1.00  0.00    -0.329 N 
HETATM   20  C12 UNL     1      11.524  67.391  13.595  1.00  0.00     0.129 C 
HETATM   21  C16 UNL     1      12.964  68.303  11.795  1.00  0.00     0.111 C 
HETATM   22  C13 UNL     1      10.450  67.373  12.590  1.00  0.00     0.045 C 
HETATM   23  C14 UNL     1      10.848  67.524  11.157  1.00  0.00     0.086 C 
HETATM   24  C15 UNL     1      12.318  67.219  10.935  1.00  0.00     0.066 C 
HETATM   25  N4  UNL     1      10.878  68.974  10.885  1.00  0.00    -0.377 N 
HETATM   26  C18 UNL     1      12.029  69.470  11.538  1.00  0.00     0.104 C 
ATOM     27  H4  UNL     1      10.204  69.509  10.337  1.00  0.00     0.160 HD
HETATM   28  S1  UNL     1      12.259  71.036  11.924  1.00  0.00    -0.063 SA
BRANCH  21  29
HETATM   29  C17 UNL     1      14.331  68.637  11.324  1.00  0.00     0.202 C 
BRANCH  29  30
HETATM   30  O4  UNL     1      14.824  67.445  10.708  1.00  0.00    -0.398 OA
ATOM     31  H4  UNL     1      15.761  67.572  10.623  1.00  0.00     0.209 HD
ENDBRANCH  29  30
ENDBRANCH  21  29
ENDBRANCH  16  17
ENDBRANCH  10  16
ENDBRANCH   3   4
TORSDOF 7
ENDMDL
MODEL 3
REMARK VINA RESULT: -6.170734988      1.345      2.295
REMARK  7 active torsions:
REMARK  status: ('A' for Active; 'I' for Inactive)
REMARK    1  A    between atoms: C3_3  and  C4_4 
REMARK    2  A    between atoms: N1_6  and  C6_7 
REMARK    3  A    between atoms: C6_7  and  C7_8 
REMARK    4  A    between atoms: N2_13  and  C10_14 
REMARK    5  A    between atoms: C10_14  and  C11_15 
REMARK       I    between atoms: C11_15  and  N3_17 
REMARK    6  A    between atoms: C16_22  and  C17_23 
REMARK    7  A    between atoms: C17_23  and  O4_24 
ROOT
HETATM    1  C1  UNL     1       7.530  67.388  12.995  1.00  0.00     0.112 C 
HETATM    2  C2  UNL     1       8.693  68.055  12.405  1.00  0.00    -0.109 C 
HETATM    3  C3  UNL     1       9.662  68.596  11.936  1.00  0.00    -0.071 C 
ENDROOT
BRANCH   3   4
HETATM    4  C4  UNL     1      10.811  69.266  11.384  1.00  0.00     0.300 C 
HETATM    5  C5  UNL     1      11.709  68.400  10.555  1.00  0.00     0.285 C 
HETATM    6  N1  UNL     1      12.745  67.821  11.376  1.00  0.00    -0.051 N 
HETATM    7  C8  UNL     1      13.728  68.917  11.532  1.00  0.00     0.266 C 
HETATM    8  C20 UNL     1      12.300  67.576  12.733  1.00  0.00     0.266 C 
HETATM    9  C9  UNL     1      12.925  70.140  11.760  1.00  0.00     0.272 C 
HETATM   10  N2  UNL     1      11.642  69.867  12.451  1.00  0.00    -0.022 N 
HETATM   11  C19 UNL     1      11.926  68.888  13.428  1.00  0.00     0.272 C 
BRANCH   6  12
HETATM   12  C6  UNL     1      13.425  66.712  10.811  1.00  0.00     0.350 C 
BRANCH  12  13
HETATM   13  C7  UNL     1      13.721  66.765   9.387  1.00  0.00     0.199 C 
HETATM   14  O1  UNL     1      14.608  67.498   8.893  1.00  0.00    -0.647 OA
HETATM   15  O2  UNL     1      12.996  65.970   8.510  1.00  0.00    -0.647 OA
ENDBRANCH  12  13
ENDBRANCH   6  12
BRANCH  10  16
HETATM   16  C10 UNL     1      11.154  71.130  12.837  1.00  0.00     0.278 C 
BRANCH  16  17
HETATM   17  C11 UNL     1      12.039  72.135  13.394  1.00  0.00     0.268 C 
HETATM   18  O3  UNL     1      12.686  72.017  14.455  1.00  0.00    -0.267 OA
HETATM   19  N3  UNL     1      12.224  73.374  12.725  1.00  0.00    -0.329 N 
HETATM   20  C12 UNL     1      11.488  73.516  11.473  1.00  0.00     0.129 C 
HETATM   21  C16 UNL     1      13.041  74.460  13.158  1.00  0.00     0.111 C 
HETATM   22  C13 UNL     1      11.664  74.784  10.746  1.00  0.00     0.045 C 
HETATM   23  C14 UNL     1      12.804  75.657  11.157  1.00  0.00     0.086 C 
HETATM   24  C15 UNL     1      13.857  74.895  11.942  1.00  0.00     0.066 C 
HETATM   25  N4  UNL     1      12.298  76.518  12.242  1.00  0.00    -0.377 N 
HETATM   26  C18 UNL     1      12.176  75.686  13.377  1.00  0.00     0.104 C 
ATOM     27  H4  UNL     1      12.080  77.514  12.185  1.00  0.00     0.160 HD
HETATM   28  S1  UNL     1      11.248  76.032  14.671  1.00  0.00    -0.063 SA
BRANCH  21  29
HETATM   29  C17 UNL     1      13.904  74.230  14.343  1.00  0.00     0.202 C 
BRANCH  29  30
HETATM   30  O4  UNL     1      15.129  73.706  13.829  1.00  0.00    -0.398 OA
ATOM     31  H4  UNL     1      15.034  72.762  13.859  1.00  0.00     0.209 HD
ENDBRANCH  29  30
ENDBRANCH  21  29
ENDBRANCH  16  17
ENDBRANCH  10  16
ENDBRANCH   3   4
TORSDOF 7
ENDMDL
MODEL 4
REMARK VINA RESULT: -6.152020567      1.819      2.252
REMARK  7 active torsions:
REMARK  status: ('A' for Active; 'I' for Inactive)
REMARK    1  A    between atoms: C3_3  and  C4_4 
REMARK    2  A    between atoms: N1_6  and  C6_7 
REMARK    3  A    between atoms: C6_7  and  C7_8 
REMARK    4  A    between atoms: N2_13  and  C10_14 
REMARK    5  A    between atoms: C10_14  and  C11_15 
REMARK       I    between atoms: C11_15  and  N3_17 
REMARK    6  A    between atoms: C16_22  and  C17_23 
REMARK    7  A    between atoms: C17_23  and  O4_24 
ROOT
HETATM    1  C1  UNL     1      15.569  70.143  16.578  1.00  0.00     0.112 C 
HETATM    2  C2  UNL     1      14.411  70.064  15.682  1.00  0.00    -0.109 C 
HETATM    3  C3  UNL     1      13.470  70.011  14.933  1.00  0.00    -0.071 C 
ENDROOT
BRANCH   3   4
HETATM    4  C4  UNL     1      12.332  69.965  14.051  1.00  0.00     0.300 C 
HETATM    5  C5  UNL     1      12.117  68.651  13.365  1.00  0.00     0.285 C 
HETATM    6  N1  UNL     1      12.797  68.634  12.092  1.00  0.00    -0.051 N 
HETATM    7  C8  UNL     1      11.897  69.397  11.198  1.00  0.00     0.266 C 
HETATM    8  C20 UNL     1      14.008  69.428  12.102  1.00  0.00     0.266 C 
HETATM    9  C9  UNL     1      11.432  70.554  11.997  1.00  0.00     0.272 C 
HETATM   10  N2  UNL     1      12.431  71.001  12.998  1.00  0.00    -0.022 N 
HETATM   11  C19 UNL     1      13.689  70.903  12.364  1.00  0.00     0.272 C 
BRANCH   6  12
HETATM   12  C6  UNL     1      12.986  67.351  11.517  1.00  0.00     0.350 C 
BRANCH  12  13
HETATM   13  C7  UNL     1      13.878  67.259  10.371  1.00  0.00     0.199 C 
HETATM   14  O1  UNL     1      15.117  67.104  10.470  1.00  0.00    -0.647 OA
HETATM   15  O2  UNL     1      13.352  67.343   9.089  1.00  0.00    -0.647 OA
ENDBRANCH  12  13
ENDBRANCH   6  12
BRANCH  10  16
HETATM   16  C10 UNL     1      11.964  72.249  13.454  1.00  0.00     0.278 C 
BRANCH  16  17
HETATM   17  C11 UNL     1      12.844  73.399  13.518  1.00  0.00     0.268 C 
HETATM   18  O3  UNL     1      13.722  73.587  14.386  1.00  0.00    -0.267 OA
HETATM   19  N3  UNL     1      12.748  74.428  12.544  1.00  0.00    -0.329 N 
HETATM   20  C12 UNL     1      11.739  74.209  11.512  1.00  0.00     0.129 C 
HETATM   21  C16 UNL     1      13.527  75.621  12.488  1.00  0.00     0.111 C 
HETATM   22  C13 UNL     1      11.618  75.251  10.480  1.00  0.00     0.045 C 
HETATM   23  C14 UNL     1      12.727  76.246  10.376  1.00  0.00     0.086 C 
HETATM   24  C15 UNL     1      14.001  75.758  11.042  1.00  0.00     0.066 C 
HETATM   25  N4  UNL     1      12.392  77.339  11.309  1.00  0.00    -0.377 N 
HETATM   26  C18 UNL     1      12.613  76.826  12.607  1.00  0.00     0.104 C 
ATOM     27  H4  UNL     1      12.068  78.276  11.067  1.00  0.00     0.160 HD
HETATM   28  S1  UNL     1      11.970  77.458  13.964  1.00  0.00    -0.063 SA
BRANCH  21  29
HETATM   29  C17 UNL     1      14.653  75.743  13.448  1.00  0.00     0.202 C 
BRANCH  29  30
HETATM   30  O4  UNL     1      15.267  77.000  13.159  1.00  0.00    -0.398 OA
ATOM     31  H4  UNL     1      15.944  76.811  12.520  1.00  0.00     0.209 HD
ENDBRANCH  29  30
ENDBRANCH  21  29
ENDBRANCH  16  17
ENDBRANCH  10  16
ENDBRANCH   3   4
TORSDOF 7
ENDMDL
MODEL 5
REMARK VINA RESULT: -6.099574639      4.039      6.633
REMARK  7 active torsions:
REMARK  status: ('A' for Active; 'I' for Inactive)
REMARK    1  A    between atoms: C3_3  and  C4_4 
REMARK    2  A    between atoms: N1_6  and  C6_7 
REMARK    3  A    between atoms: C6_7  and  C7_8 
REMARK    4  A    between atoms: N2_13  and  C10_14 
REMARK    5  A    between atoms: C10_14  and  C11_15 
REMARK       I    between atoms: C11_15  and  N3_17 
REMARK    6  A    between atoms: C16_22  and  C17_23 
REMARK    7  A    between atoms: C17_23  and  O4_24 
ROOT
HETATM    1  C1  UNL     1       8.848  67.069  15.164  1.00  0.00     0.112 C 
HETATM    2  C2  UNL     1      10.006  67.778  14.612  1.00  0.00    -0.109 C 
HETATM    3  C3  UNL     1      10.963  68.367  14.178  1.00  0.00    -0.071 C 
ENDROOT
BRANCH   3   4
HETATM    4  C4  UNL     1      12.092  69.090  13.651  1.00  0.00     0.300 C 
HETATM    5  C5  UNL     1      12.051  69.335  12.174  1.00  0.00     0.285 C 
HETATM    6  N1  UNL     1      12.718  68.266  11.470  1.00  0.00    -0.051 N 
HETATM    7  C8  UNL     1      14.156  68.586  11.617  1.00  0.00     0.266 C 
HETATM    8  C20 UNL     1      12.589  66.993  12.150  1.00  0.00     0.266 C 
HETATM    9  C9  UNL     1      14.322  69.032  13.019  1.00  0.00     0.272 C 
HETATM   10  N2  UNL     1      13.360  68.386  13.946  1.00  0.00    -0.022 N 
HETATM   11  C19 UNL     1      13.257  67.042  13.527  1.00  0.00     0.272 C 
BRANCH   6  12
HETATM   12  C6  UNL     1      12.437  68.179  10.083  1.00  0.00     0.350 C 
BRANCH  12  13
HETATM   13  C7  UNL     1      13.205  67.218   9.305  1.00  0.00     0.199 C 
HETATM   14  O1  UNL     1      12.739  66.131   8.895  1.00  0.00    -0.647 OA
HETATM   15  O2  UNL     1      14.527  67.499   8.988  1.00  0.00    -0.647 OA
ENDBRANCH  12  13
ENDBRANCH   6  12
BRANCH  10  16
HETATM   16  C10 UNL     1      13.832  68.690  15.238  1.00  0.00     0.278 C 
BRANCH  16  17
HETATM   17  C11 UNL     1      14.857  67.881  15.869  1.00  0.00     0.268 C 
HETATM   18  O3  UNL     1      15.910  67.494  15.320  1.00  0.00    -0.267 OA
HETATM   19  N3  UNL     1      14.708  67.464  17.218  1.00  0.00    -0.329 N 
HETATM   20  C12 UNL     1      13.491  67.927  17.877  1.00  0.00     0.129 C 
HETATM   21  C16 UNL     1      15.616  66.654  17.962  1.00  0.00     0.111 C 
HETATM   22  C13 UNL     1      13.307  67.521  19.280  1.00  0.00     0.045 C 
HETATM   23  C14 UNL     1      14.498  66.975  19.997  1.00  0.00     0.086 C 
HETATM   24  C15 UNL     1      15.801  67.345  19.312  1.00  0.00     0.066 C 
HETATM   25  N4  UNL     1      14.512  65.523  19.732  1.00  0.00    -0.377 N 
HETATM   26  C18 UNL     1      14.919  65.375  18.387  1.00  0.00     0.104 C 
ATOM     27  H4  UNL     1      14.277  64.777  20.388  1.00  0.00     0.160 HD
HETATM   28  S1  UNL     1      14.655  64.039  17.493  1.00  0.00    -0.063 SA
BRANCH  21  29
HETATM   29  C17 UNL     1      16.918  66.333  17.326  1.00  0.00     0.202 C 
BRANCH  29  30
HETATM   30  O4  UNL     1      17.652  65.599  18.308  1.00  0.00    -0.398 OA
ATOM     31  H4  UNL     1      18.566  65.708  18.076  1.00  0.00     0.209 HD
ENDBRANCH  29  30
ENDBRANCH  21  29
ENDBRANCH  16  17
ENDBRANCH  10  16
ENDBRANCH   3   4
TORSDOF 7
ENDMDL
