MODEL 1
REMARK VINA RESULT: -7.522701731      0.000      0.000
REMARK  4 active torsions:
REMARK  status: ('A' for Active; 'I' for Inactive)
REMARK       I    between atoms: C2_2  and  N1_4 
REMARK       I    between atoms: N2_7  and  C5_8 
REMARK    1  A    between atoms: C5_8  and  C6_10 
REMARK       I    between atoms: C6_10  and  N3_12 
REMARK    2  A    between atoms: N3_12  and  C7_14 
REMARK    3  A    between atoms: C7_14  and  C8_15 
REMARK    4  A    between atoms: C8_15  and  N4_16 
REMARK       I    between atoms: N4_16  and  C9_18 
REMARK       I    between atoms: C9_18  and  N6_22 
ROOT
HETATM    1  C8  UNL     1      13.507  70.725  15.901  1.00  0.00     0.157 C 
ENDROOT
BRANCH   1   2
HETATM    2  C7  UNL     1      14.637  69.929  15.314  1.00  0.00     0.143 C 
BRANCH   2   3
HETATM    3  N3  UNL     1      15.308  69.189  16.347  1.00  0.00    -0.351 N 
HETATM    4  C6  UNL     1      15.703  67.845  16.118  1.00  0.00     0.309 C 
HETATM    5  O3  UNL     1      15.476  67.306  15.018  1.00  0.00    -0.262 OA
ATOM      6  H3  UNL     1      15.502  69.630  17.246  1.00  0.00     0.162 HD
BRANCH   4   7
HETATM    7  C5  UNL     1      16.373  67.146  17.212  1.00  0.00     0.311 C 
HETATM    8  N2  UNL     1      15.632  66.435  18.177  1.00  0.00    -0.341 N 
HETATM    9  C4  UNL     1      14.170  66.336  18.170  1.00  0.00     0.146 C 
HETATM   10  C19 UNL     1      16.374  65.755  19.257  1.00  0.00     0.146 C 
HETATM   11  C3  UNL     1      13.715  65.383  19.269  1.00  0.00     0.145 C 
HETATM   12  N1  UNL     1      14.537  64.200  19.130  1.00  0.00    -0.349 N 
HETATM   13  C2  UNL     1      13.932  62.980  18.735  1.00  0.00     0.215 C 
HETATM   14  C20 UNL     1      15.949  64.314  19.401  1.00  0.00     0.145 C 
HETATM   15  C1  UNL     1      14.772  61.764  18.591  1.00  0.00     0.117 C 
HETATM   16  O1  UNL     1      12.705  62.870  18.495  1.00  0.00    -0.274 OA
HETATM   17  O2  UNL     1      17.622  67.181  17.290  1.00  0.00    -0.262 OA
ENDBRANCH   4   7
ENDBRANCH   2   3
ENDBRANCH   1   2
BRANCH   1  18
HETATM   18  N4  UNL     1      12.453  70.938  14.903  1.00  0.00    -0.225 N 
HETATM   19  C9  UNL     1      11.556  69.867  14.674  1.00  0.00     0.669 C 
HETATM   20  N5  UNL     1      10.630  69.540  15.511  1.00  0.00    -0.235 N 
HETATM   21  N6  UNL     1      11.711  69.140  13.459  1.00  0.00    -0.215 N 
ATOM     22  H52 UNL     1      10.519  70.061  16.381  1.00  0.00     0.174 HD
ATOM     23  H51 UNL     1       9.983  68.768  15.347  1.00  0.00     0.174 HD
HETATM   24  C10 UNL     1      11.139  69.608  12.218  1.00  0.00     0.169 C 
HETATM   25  C18 UNL     1      12.454  67.887  13.407  1.00  0.00     0.169 C 
HETATM   26  C11 UNL     1      12.111  69.264  11.115  1.00  0.00     0.257 C 
HETATM   27  N7  UNL     1      12.281  67.830  10.956  1.00  0.00    -0.064 N 
HETATM   28  C12 UNL     1      11.291  67.396   9.990  1.00  0.00     0.237 C 
HETATM   29  C16 UNL     1      13.632  67.623  10.477  1.00  0.00     0.237 C 
HETATM   30  C17 UNL     1      12.114  67.102  12.179  1.00  0.00     0.257 C 
HETATM   31  C13 UNL     1      11.893  67.565   8.600  1.00  0.00     0.028 C 
HETATM   32  C14 UNL     1      12.864  66.414   8.415  1.00  0.00     0.003 C 
HETATM   33  C15 UNL     1      13.757  66.382   9.628  1.00  0.00     0.028 C 
ATOM     34  H4  UNL     1      12.371  71.819  14.396  1.00  0.00     0.177 HD
ENDBRANCH   1  18
TORSDOF 4
ENDMDL
MODEL 2
REMARK VINA RESULT: -7.365922716      4.460      7.474
REMARK  4 active torsions:
REMARK  status: ('A' for Active; 'I' for Inactive)
REMARK       I    between atoms: C2_2  and  N1_4 
REMARK       I    between atoms: N2_7  and  C5_8 
REMARK    1  A    between atoms: C5_8  and  C6_10 
REMARK       I    between atoms: C6_10  and  N3_12 
REMARK    2  A    between atoms: N3_12  and  C7_14 
REMARK    3  A    between atoms: C7_14  and  C8_15 
REMARK    4  A    between atoms: C8_15  and  N4_16 
REMARK       I    between atoms: N4_16  and  C9_18 
REMARK       I    between atoms: C9_18  and  N6_22 
ROOT
HETATM    1  C8  UNL     1      15.029  73.487  15.083  1.00  0.00     0.157 C 
ENDROOT
BRANCH   1   2
HETATM    2  C7  UNL     1      13.715  72.772  15.206  1.00  0.00     0.143 C 
BRANCH   2   3
HETATM    3  N3  UNL     1      13.901  71.360  15.014  1.00  0.00    -0.351 N 
HETATM    4  C6  UNL     1      14.004  70.826  13.704  1.00  0.00     0.309 C 
HETATM    5  O3  UNL     1      13.941  71.582  12.715  1.00  0.00    -0.262 OA
ATOM      6  H3  UNL     1      13.960  70.739  15.822  1.00  0.00     0.162 HD
BRANCH   4   7
HETATM    7  C5  UNL     1      14.182  69.382  13.577  1.00  0.00     0.311 C 
HETATM    8  N2  UNL     1      13.236  68.593  12.893  1.00  0.00    -0.341 N 
HETATM    9  C4  UNL     1      12.028  69.134  12.266  1.00  0.00     0.146 C 
HETATM   10  C19 UNL     1      13.478  67.139  12.808  1.00  0.00     0.146 C 
HETATM   11  C3  UNL     1      11.309  68.029  11.499  1.00  0.00     0.145 C 
HETATM   12  N1  UNL     1      12.326  67.377  10.704  1.00  0.00    -0.349 N 
HETATM   13  C2  UNL     1      12.273  67.482   9.291  1.00  0.00     0.215 C 
HETATM   14  C20 UNL     1      13.360  66.639  11.388  1.00  0.00     0.145 C 
HETATM   15  C1  UNL     1      13.315  66.813   8.471  1.00  0.00     0.117 C 
HETATM   16  O1  UNL     1      11.379  68.121   8.685  1.00  0.00    -0.274 OA
HETATM   17  O2  UNL     1      15.190  68.841  14.086  1.00  0.00    -0.262 OA
ENDBRANCH   4   7
ENDBRANCH   2   3
ENDBRANCH   1   2
BRANCH   1  18
HETATM   18  N4  UNL     1      15.190  74.040  13.733  1.00  0.00    -0.225 N 
HETATM   19  C9  UNL     1      14.648  75.326  13.495  1.00  0.00     0.669 C 
HETATM   20  N5  UNL     1      15.188  76.407  13.949  1.00  0.00    -0.235 N 
HETATM   21  N6  UNL     1      13.457  75.393  12.717  1.00  0.00    -0.215 N 
ATOM     22  H52 UNL     1      16.041  76.359  14.506  1.00  0.00     0.174 HD
ATOM     23  H51 UNL     1      14.797  77.334  13.778  1.00  0.00     0.174 HD
HETATM   24  C10 UNL     1      13.492  75.371  11.274  1.00  0.00     0.169 C 
HETATM   25  C18 UNL     1      12.141  75.489  13.339  1.00  0.00     0.169 C 
HETATM   26  C11 UNL     1      12.292  74.583  10.805  1.00  0.00     0.257 C 
HETATM   27  N7  UNL     1      11.038  75.224  11.160  1.00  0.00    -0.064 N 
HETATM   28  C12 UNL     1      10.686  76.096  10.056  1.00  0.00     0.237 C 
HETATM   29  C16 UNL     1      10.067  74.164  11.343  1.00  0.00     0.237 C 
HETATM   30  C17 UNL     1      11.115  75.986  12.371  1.00  0.00     0.257 C 
HETATM   31  C13 UNL     1       9.911  75.267   9.039  1.00  0.00     0.028 C 
HETATM   32  C14 UNL     1       8.513  75.098   9.606  1.00  0.00     0.003 C 
HETATM   33  C15 UNL     1       8.662  74.610  11.024  1.00  0.00     0.028 C 
ATOM     34  H4  UNL     1      15.671  73.520  12.999  1.00  0.00     0.177 HD
ENDBRANCH   1  18
TORSDOF 4
ENDMDL
MODEL 3
REMARK VINA RESULT: -7.271175868      5.042      8.156
REMARK  4 active torsions:
REMARK  status: ('A' for Active; 'I' for Inactive)
REMARK       I    between atoms: C2_2  and  N1_4 
REMARK       I    between atoms: N2_7  and  C5_8 
REMARK    1  A    between atoms: C5_8  and  C6_10 
REMARK       I    between atoms: C6_10  and  N3_12 
REMARK    2  A    between atoms: N3_12  and  C7_14 
REMARK    3  A    between atoms: C7_14  and  C8_15 
REMARK    4  A    between atoms: C8_15  and  N4_16 
REMARK       I    between atoms: N4_16  and  C9_18 
REMARK       I    between atoms: C9_18  and  N6_22 
ROOT
HETATM    1  C8  UNL     1      11.406  71.517  15.203  1.00  0.00     0.157 C 
ENDROOT
BRANCH   1   2
HETATM    2  C7  UNL     1      10.848  70.937  13.937  1.00  0.00     0.143 C 
BRANCH   2   3
HETATM    3  N3  UNL     1      11.634  69.807  13.522  1.00  0.00    -0.351 N 
HETATM    4  C6  UNL     1      12.609  69.953  12.503  1.00  0.00     0.309 C 
HETATM    5  O3  UNL     1      12.794  71.064  11.970  1.00  0.00    -0.262 OA
ATOM      6  H3  UNL     1      11.489  68.898  13.962  1.00  0.00     0.162 HD
BRANCH   4   7
HETATM    7  C5  UNL     1      13.367  68.763  12.122  1.00  0.00     0.311 C 
HETATM    8  N2  UNL     1      12.802  67.785  11.279  1.00  0.00    -0.341 N 
HETATM    9  C4  UNL     1      11.447  67.871  10.727  1.00  0.00     0.146 C 
HETATM   10  C19 UNL     1      13.623  66.607  10.938  1.00  0.00     0.146 C 
HETATM   11  C3  UNL     1      11.217  66.722   9.753  1.00  0.00     0.145 C 
HETATM   12  N1  UNL     1      12.371  66.706   8.881  1.00  0.00    -0.349 N 
HETATM   13  C2  UNL     1      12.206  67.027   7.510  1.00  0.00     0.215 C 
HETATM   14  C20 UNL     1      13.651  66.362   9.449  1.00  0.00     0.145 C 
HETATM   15  C1  UNL     1      13.389  67.012   6.611  1.00  0.00     0.117 C 
HETATM   16  O1  UNL     1      11.098  67.329   7.006  1.00  0.00    -0.274 OA
HETATM   17  O2  UNL     1      14.533  68.614  12.551  1.00  0.00    -0.262 OA
ENDBRANCH   4   7
ENDBRANCH   2   3
ENDBRANCH   1   2
BRANCH   1  18
HETATM   18  N4  UNL     1      12.758  72.041  14.979  1.00  0.00    -0.225 N 
HETATM   19  C9  UNL     1      12.969  73.415  15.245  1.00  0.00     0.669 C 
HETATM   20  N5  UNL     1      13.035  73.894  16.441  1.00  0.00    -0.235 N 
HETATM   21  N6  UNL     1      13.110  74.278  14.120  1.00  0.00    -0.215 N 
ATOM     22  H52 UNL     1      12.934  73.277  17.247  1.00  0.00     0.174 HD
ATOM     23  H51 UNL     1      13.186  74.885  16.632  1.00  0.00     0.174 HD
HETATM   24  C10 UNL     1      14.372  74.431  13.436  1.00  0.00     0.169 C 
HETATM   25  C18 UNL     1      11.986  75.050  13.602  1.00  0.00     0.169 C 
HETATM   26  C11 UNL     1      14.074  74.578  11.963  1.00  0.00     0.257 C 
HETATM   27  N7  UNL     1      13.317  75.783  11.671  1.00  0.00    -0.064 N 
HETATM   28  C12 UNL     1      14.284  76.831  11.408  1.00  0.00     0.237 C 
HETATM   29  C16 UNL     1      12.505  75.491  10.507  1.00  0.00     0.237 C 
HETATM   30  C17 UNL     1      12.453  76.182  12.742  1.00  0.00     0.257 C 
HETATM   31  C13 UNL     1      14.648  76.767   9.929  1.00  0.00     0.028 C 
HETATM   32  C14 UNL     1      13.481  77.385   9.178  1.00  0.00     0.003 C 
HETATM   33  C15 UNL     1      12.225  76.720   9.679  1.00  0.00     0.028 C 
ATOM     34  H4  UNL     1      13.513  71.441  14.647  1.00  0.00     0.177 HD
ENDBRANCH   1  18
TORSDOF 4
ENDMDL
MODEL 4
REMARK VINA RESULT: -7.188040304      1.949      2.553
REMARK  4 active torsions:
REMARK  status: ('A' for Active; 'I' for Inactive)
REMARK       I    between atoms: C2_2  and  N1_4 
REMARK       I    between atoms: N2_7  and  C5_8 
REMARK    1  A    between atoms: C5_8  and  C6_10 
REMARK       I    between atoms: C6_10  and  N3_12 
REMARK    2  A    between atoms: N3_12  and  C7_14 
REMARK    3  A    between atoms: C7_14  and  C8_15 
REMARK    4  A    between atoms: C8_15  and  N4_16 
REMARK       I    between atoms: N4_16  and  C9_18 
REMARK       I    between atoms: C9_18  and  N6_22 
ROOT
HETATM    1  C8  UNL     1      12.106  70.924  15.785  1.00  0.00     0.157 C 
ENDROOT
BRANCH   1   2
HETATM    2  C7  UNL     1      13.524  70.644  15.380  1.00  0.00     0.143 C 
BRANCH   2   3
HETATM    3  N3  UNL     1      13.921  69.341  15.839  1.00  0.00    -0.351 N 
HETATM    4  C6  UNL     1      14.792  68.545  15.052  1.00  0.00     0.309 C 
HETATM    5  O3  UNL     1      15.223  68.976  13.965  1.00  0.00    -0.262 OA
ATOM      6  H3  UNL     1      13.575  68.988  16.731  1.00  0.00     0.162 HD
BRANCH   4   7
HETATM    7  C5  UNL     1      15.149  67.226  15.570  1.00  0.00     0.311 C 
HETATM    8  N2  UNL     1      16.053  67.090  16.642  1.00  0.00    -0.341 N 
HETATM    9  C4  UNL     1      16.695  68.222  17.313  1.00  0.00     0.146 C 
HETATM   10  C19 UNL     1      16.371  65.726  17.111  1.00  0.00     0.146 C 
HETATM   11  C3  UNL     1      17.496  67.722  18.509  1.00  0.00     0.145 C 
HETATM   12  N1  UNL     1      16.610  66.839  19.235  1.00  0.00    -0.349 N 
HETATM   13  C2  UNL     1      16.167  67.214  20.529  1.00  0.00     0.215 C 
HETATM   14  C20 UNL     1      16.213  65.603  18.607  1.00  0.00     0.145 C 
HETATM   15  C1  UNL     1      15.257  66.309  21.277  1.00  0.00     0.117 C 
HETATM   16  O1  UNL     1      16.505  68.287  21.084  1.00  0.00    -0.274 OA
HETATM   17  O2  UNL     1      14.642  66.205  15.051  1.00  0.00    -0.262 OA
ENDBRANCH   4   7
ENDBRANCH   2   3
ENDBRANCH   1   2
BRANCH   1  18
HETATM   18  N4  UNL     1      11.237  70.996  14.605  1.00  0.00    -0.225 N 
HETATM   19  C9  UNL     1      10.500  69.833  14.275  1.00  0.00     0.669 C 
HETATM   20  N5  UNL     1       9.470  69.445  14.948  1.00  0.00    -0.235 N 
HETATM   21  N6  UNL     1      10.941  69.085  13.146  1.00  0.00    -0.215 N 
ATOM     22  H52 UNL     1       9.154  69.981  15.756  1.00  0.00     0.174 HD
ATOM     23  H51 UNL     1       8.938  68.607  14.711  1.00  0.00     0.174 HD
HETATM   24  C10 UNL     1      10.566  69.450  11.801  1.00  0.00     0.169 C 
HETATM   25  C18 UNL     1      11.794  67.911  13.293  1.00  0.00     0.169 C 
HETATM   26  C11 UNL     1      11.751  69.168  10.909  1.00  0.00     0.257 C 
HETATM   27  N7  UNL     1      12.078  67.754  10.857  1.00  0.00    -0.064 N 
HETATM   28  C12 UNL     1      11.327  67.189   9.754  1.00  0.00     0.237 C 
HETATM   29  C16 UNL     1      13.508  67.667  10.639  1.00  0.00     0.237 C 
HETATM   30  C17 UNL     1      11.758  67.055  12.066  1.00  0.00     0.257 C 
HETATM   31  C13 UNL     1      12.154  67.371   8.487  1.00  0.00     0.028 C 
HETATM   32  C14 UNL     1      13.246  66.317   8.538  1.00  0.00     0.003 C 
HETATM   33  C15 UNL     1      13.900  66.416   9.892  1.00  0.00     0.028 C 
ATOM     34  H4  UNL     1      11.168  71.847  14.047  1.00  0.00     0.177 HD
ENDBRANCH   1  18
TORSDOF 4
ENDMDL
MODEL 5
REMARK VINA RESULT: -7.176046481      4.828      7.538
REMARK  4 active torsions:
REMARK  status: ('A' for Active; 'I' for Inactive)
REMARK       I    between atoms: C2_2  and  N1_4 
REMARK       I    between atoms: N2_7  and  C5_8 
REMARK    1  A    between atoms: C5_8  and  C6_10 
REMARK       I    between atoms: C6_10  and  N3_12 
REMARK    2  A    between atoms: N3_12  and  C7_14 
REMARK    3  A    between atoms: C7_14  and  C8_15 
REMARK    4  A    between atoms: C8_15  and  N4_16 
REMARK       I    between atoms: N4_16  and  C9_18 
REMARK       I    between atoms: C9_18  and  N6_22 
ROOT
HETATM    1  C8  UNL     1      12.506  73.028  15.922  1.00  0.00     0.157 C 
ENDROOT
BRANCH   1   2
HETATM    2  C7  UNL     1      13.575  72.681  14.927  1.00  0.00     0.143 C 
BRANCH   2   3
HETATM    3  N3  UNL     1      13.662  71.254  14.773  1.00  0.00    -0.351 N 
HETATM    4  C6  UNL     1      14.287  70.699  13.627  1.00  0.00     0.309 C 
HETATM    5  O3  UNL     1      14.770  71.446  12.754  1.00  0.00    -0.262 OA
ATOM      6  H3  UNL     1      13.274  70.640  15.489  1.00  0.00     0.162 HD
BRANCH   4   7
HETATM    7  C5  UNL     1      14.333  69.241  13.526  1.00  0.00     0.311 C 
HETATM    8  N2  UNL     1      13.315  68.529  12.863  1.00  0.00    -0.341 N 
HETATM    9  C4  UNL     1      12.155  69.166  12.233  1.00  0.00     0.146 C 
HETATM   10  C19 UNL     1      13.424  67.059  12.803  1.00  0.00     0.146 C 
HETATM   11  C3  UNL     1      11.334  68.117  11.491  1.00  0.00     0.145 C 
HETATM   12  N1  UNL     1      12.282  67.361  10.702  1.00  0.00    -0.349 N 
HETATM   13  C2  UNL     1      12.227  67.446   9.288  1.00  0.00     0.215 C 
HETATM   14  C20 UNL     1      13.250  66.546  11.393  1.00  0.00     0.145 C 
HETATM   15  C1  UNL     1      13.198  66.671   8.473  1.00  0.00     0.117 C 
HETATM   16  O1  UNL     1      11.390  68.152   8.676  1.00  0.00    -0.274 OA
HETATM   17  O2  UNL     1      15.293  68.621  14.038  1.00  0.00    -0.262 OA
ENDBRANCH   4   7
ENDBRANCH   2   3
ENDBRANCH   1   2
BRANCH   1  18
HETATM   18  N4  UNL     1      11.616  74.062  15.382  1.00  0.00    -0.225 N 
HETATM   19  C9  UNL     1      11.049  73.823  14.107  1.00  0.00     0.669 C 
HETATM   20  N5  UNL     1      10.098  72.973  13.914  1.00  0.00    -0.235 N 
HETATM   21  N6  UNL     1      11.574  74.570  13.014  1.00  0.00    -0.215 N 
ATOM     22  H52 UNL     1       9.721  72.438  14.697  1.00  0.00     0.174 HD
ATOM     23  H51 UNL     1       9.689  72.800  12.995  1.00  0.00     0.174 HD
HETATM   24  C10 UNL     1      11.127  75.913  12.730  1.00  0.00     0.169 C 
HETATM   25  C18 UNL     1      12.590  74.016  12.127  1.00  0.00     0.169 C 
HETATM   26  C11 UNL     1      12.325  76.695  12.247  1.00  0.00     0.257 C 
HETATM   27  N7  UNL     1      12.853  76.181  10.995  1.00  0.00    -0.064 N 
HETATM   28  C12 UNL     1      12.171  76.891   9.930  1.00  0.00     0.237 C 
HETATM   29  C16 UNL     1      14.276  76.452  11.002  1.00  0.00     0.237 C 
HETATM   30  C17 UNL     1      12.658  74.771  10.836  1.00  0.00     0.257 C 
HETATM   31  C13 UNL     1      12.942  78.178   9.663  1.00  0.00     0.028 C 
HETATM   32  C14 UNL     1      14.175  77.777   8.872  1.00  0.00     0.003 C 
HETATM   33  C15 UNL     1      14.832  76.642   9.613  1.00  0.00     0.028 C 
ATOM     34  H4  UNL     1      11.416  74.916  15.903  1.00  0.00     0.177 HD
ENDBRANCH   1  18
TORSDOF 4
ENDMDL
