MODEL 1
REMARK VINA RESULT: -6.815816457      0.000      0.000
REMARK  3 active torsions:
REMARK  status: ('A' for Active; 'I' for Inactive)
REMARK    1  A    between atoms: C2_2  and  N1_3 
REMARK       I    between atoms: N1_3  and  C3_5 
REMARK       I    between atoms: C3_5  and  N2_7 
REMARK       I    between atoms: N3_14  and  C10_15 
REMARK       I    between atoms: C10_15  and  N4_17 
REMARK    2  A    between atoms: N4_17  and  C11_19 
REMARK    3  A    between atoms: C11_19  and  C13_21 
REMARK       I    between atoms: C13_21  and  N5_23 
ROOT
HETATM    1  N1  UNL     1      11.279  67.670   8.606  1.00  0.00    -0.343 N 
ATOM      2  H1  UNL     1      10.342  67.965   8.884  1.00  0.00     0.164 HD
HETATM    3  C3  UNL     1      12.348  67.891   9.504  1.00  0.00     0.318 C 
HETATM    4  O1  UNL     1      13.494  67.501   9.101  1.00  0.00    -0.247 OA
HETATM    5  N2  UNL     1      12.247  68.494  10.774  1.00  0.00    -0.333 N 
HETATM    6  C4  UNL     1      10.981  68.951  11.283  1.00  0.00     0.127 C 
HETATM    7  C5  UNL     1      10.830  68.409  12.695  1.00  0.00     0.021 C 
HETATM    8  C6  UNL     1      11.990  68.759  13.572  1.00  0.00     0.014 C 
HETATM    9  C7  UNL     1      13.312  68.324  12.991  1.00  0.00    -0.006 C 
HETATM   10  C8  UNL     1      13.352  66.796  13.131  1.00  0.00     0.033 C 
HETATM   11  C9  UNL     1      13.638  66.664  14.603  1.00  0.00     0.128 C 
HETATM   12  N3  UNL     1      14.385  67.847  14.982  1.00  0.00    -0.333 N 
HETATM   13  C10 UNL     1      14.939  68.046  16.272  1.00  0.00     0.319 C 
HETATM   14  O2  UNL     1      15.570  69.092  16.507  1.00  0.00    -0.247 OA
HETATM   15  N4  UNL     1      14.787  67.074  17.294  1.00  0.00    -0.330 N 
ATOM     16  H4  UNL     1      14.267  66.222  17.082  1.00  0.00     0.165 HD
HETATM   17  C19 UNL     1      14.456  68.750  13.845  1.00  0.00     0.138 C 
HETATM   18  C20 UNL     1      13.465  68.644  11.551  1.00  0.00     0.138 C 
ENDROOT
BRANCH  15  19
HETATM   19  C11 UNL     1      15.341  67.237  18.632  1.00  0.00     0.174 C 
HETATM   20  C12 UNL     1      14.486  66.540  19.664  1.00  0.00     0.042 C 
BRANCH  19  21
HETATM   21  C13 UNL     1      16.741  66.781  18.661  1.00  0.00     0.249 C 
HETATM   22  O3  UNL     1      16.941  65.552  18.370  1.00  0.00    -0.271 OA
HETATM   23  N5  UNL     1      17.873  67.561  18.977  1.00  0.00    -0.280 N 
HETATM   24  C14 UNL     1      19.260  67.053  19.009  1.00  0.00     0.163 C 
HETATM   25  C18 UNL     1      18.003  68.933  19.327  1.00  0.00     0.282 C 
HETATM   26  C15 UNL     1      20.050  68.133  19.712  1.00  0.00     0.267 C 
HETATM   27  N6  UNL     1      19.085  69.034  20.288  1.00  0.00    -0.013 N 
HETATM   28  C16 UNL     1      18.663  68.693  21.608  1.00  0.00     0.283 C 
HETATM   29  C17 UNL     1      19.593  70.379  20.167  1.00  0.00     0.283 C 
HETATM   30  N7  UNL     1      17.295  69.877  18.863  1.00  0.00    -0.365 N 
ATOM     31  H72 UNL     1      16.535  69.806  18.187  1.00  0.00     0.159 HD
ATOM     32  H71 UNL     1      17.388  70.862  19.113  1.00  0.00     0.159 HD
ENDBRANCH  19  21
ENDBRANCH  15  19
BRANCH   1  33
HETATM   33  C2  UNL     1      11.445  67.051   7.324  1.00  0.00     0.120 C 
HETATM   34  C1  UNL     1      10.864  67.916   6.250  1.00  0.00     0.026 C 
ENDBRANCH   1  33
TORSDOF 3
ENDMDL
MODEL 2
REMARK VINA RESULT: -6.772534187      1.493      1.746
REMARK  3 active torsions:
REMARK  status: ('A' for Active; 'I' for Inactive)
REMARK    1  A    between atoms: C2_2  and  N1_3 
REMARK       I    between atoms: N1_3  and  C3_5 
REMARK       I    between atoms: C3_5  and  N2_7 
REMARK       I    between atoms: N3_14  and  C10_15 
REMARK       I    between atoms: C10_15  and  N4_17 
REMARK    2  A    between atoms: N4_17  and  C11_19 
REMARK    3  A    between atoms: C11_19  and  C13_21 
REMARK       I    between atoms: C13_21  and  N5_23 
ROOT
HETATM    1  N1  UNL     1      11.440  67.690   8.894  1.00  0.00    -0.343 N 
ATOM      2  H1  UNL     1      10.742  68.434   8.911  1.00  0.00     0.164 HD
HETATM    3  C3  UNL     1      12.464  67.707   9.869  1.00  0.00     0.318 C 
HETATM    4  O1  UNL     1      13.307  66.752   9.797  1.00  0.00    -0.247 OA
HETATM    5  N2  UNL     1      12.621  68.672  10.884  1.00  0.00    -0.333 N 
HETATM    6  C4  UNL     1      11.700  69.770  11.016  1.00  0.00     0.127 C 
HETATM    7  C5  UNL     1      11.274  69.841  12.474  1.00  0.00     0.021 C 
HETATM    8  C6  UNL     1      12.439  69.920  13.409  1.00  0.00     0.014 C 
HETATM    9  C7  UNL     1      13.422  68.793  13.212  1.00  0.00    -0.006 C 
HETATM   10  C8  UNL     1      12.742  67.537  13.774  1.00  0.00     0.033 C 
HETATM   11  C9  UNL     1      12.892  67.784  15.252  1.00  0.00     0.128 C 
HETATM   12  N3  UNL     1      14.093  68.579  15.414  1.00  0.00    -0.333 N 
HETATM   13  C10 UNL     1      14.641  68.928  16.674  1.00  0.00     0.319 C 
HETATM   14  O2  UNL     1      15.680  69.610  16.718  1.00  0.00    -0.247 OA
HETATM   15  N4  UNL     1      14.026  68.510  17.882  1.00  0.00    -0.330 N 
ATOM     16  H4  UNL     1      13.175  67.950  17.827  1.00  0.00     0.165 HD
HETATM   17  C19 UNL     1      14.609  68.935  14.101  1.00  0.00     0.138 C 
HETATM   18  C20 UNL     1      13.746  68.525  11.790  1.00  0.00     0.138 C 
ENDROOT
BRANCH  15  19
HETATM   19  C11 UNL     1      14.555  68.845  19.198  1.00  0.00     0.174 C 
HETATM   20  C12 UNL     1      13.542  69.619  20.011  1.00  0.00     0.042 C 
BRANCH  19  21
HETATM   21  C13 UNL     1      15.015  67.626  19.886  1.00  0.00     0.249 C 
HETATM   22  O3  UNL     1      14.109  66.912  20.436  1.00  0.00    -0.271 OA
HETATM   23  N5  UNL     1      16.347  67.175  19.995  1.00  0.00    -0.280 N 
HETATM   24  C14 UNL     1      16.763  65.951  20.711  1.00  0.00     0.163 C 
HETATM   25  C18 UNL     1      17.566  67.712  19.499  1.00  0.00     0.282 C 
HETATM   26  C15 UNL     1      18.263  66.072  20.842  1.00  0.00     0.267 C 
HETATM   27  N6  UNL     1      18.595  67.427  20.481  1.00  0.00    -0.013 N 
HETATM   28  C16 UNL     1      18.577  68.355  21.565  1.00  0.00     0.283 C 
HETATM   29  C17 UNL     1      19.840  67.407  19.750  1.00  0.00     0.283 C 
HETATM   30  N7  UNL     1      17.704  68.319  18.394  1.00  0.00    -0.365 N 
ATOM     31  H72 UNL     1      16.981  68.520  17.704  1.00  0.00     0.159 HD
ATOM     32  H71 UNL     1      18.579  68.704  18.039  1.00  0.00     0.159 HD
ENDBRANCH  19  21
ENDBRANCH  15  19
BRANCH   1  33
HETATM   33  C2  UNL     1      11.333  66.679   7.884  1.00  0.00     0.120 C 
HETATM   34  C1  UNL     1      12.127  67.067   6.675  1.00  0.00     0.026 C 
ENDBRANCH   1  33
TORSDOF 3
ENDMDL
MODEL 3
REMARK VINA RESULT: -6.626440529      4.322      5.277
REMARK  3 active torsions:
REMARK  status: ('A' for Active; 'I' for Inactive)
REMARK    1  A    between atoms: C2_2  and  N1_3 
REMARK       I    between atoms: N1_3  and  C3_5 
REMARK       I    between atoms: C3_5  and  N2_7 
REMARK       I    between atoms: N3_14  and  C10_15 
REMARK       I    between atoms: C10_15  and  N4_17 
REMARK    2  A    between atoms: N4_17  and  C11_19 
REMARK    3  A    between atoms: C11_19  and  C13_21 
REMARK       I    between atoms: C13_21  and  N5_23 
ROOT
HETATM    1  N1  UNL     1      13.561  76.288  10.654  1.00  0.00    -0.343 N 
ATOM      2  H1  UNL     1      12.788  75.952  10.079  1.00  0.00     0.164 HD
HETATM    3  C3  UNL     1      13.856  75.599  11.853  1.00  0.00     0.318 C 
HETATM    4  O1  UNL     1      14.831  76.065  12.530  1.00  0.00    -0.247 OA
HETATM    5  N2  UNL     1      13.172  74.469  12.344  1.00  0.00    -0.333 N 
HETATM    6  C4  UNL     1      12.066  73.896  11.624  1.00  0.00     0.127 C 
HETATM    7  C5  UNL     1      12.305  72.398  11.526  1.00  0.00     0.021 C 
HETATM    8  C6  UNL     1      12.542  71.766  12.861  1.00  0.00     0.014 C 
HETATM    9  C7  UNL     1      13.667  72.420  13.624  1.00  0.00    -0.006 C 
HETATM   10  C8  UNL     1      14.960  71.993  12.918  1.00  0.00     0.033 C 
HETATM   11  C9  UNL     1      15.081  70.573  13.406  1.00  0.00     0.128 C 
HETATM   12  N3  UNL     1      14.445  70.533  14.708  1.00  0.00    -0.333 N 
HETATM   13  C10 UNL     1      14.447  69.392  15.549  1.00  0.00     0.319 C 
HETATM   14  O2  UNL     1      13.879  69.449  16.654  1.00  0.00    -0.247 OA
HETATM   15  N4  UNL     1      15.086  68.189  15.151  1.00  0.00    -0.330 N 
ATOM     16  H4  UNL     1      15.548  68.160  14.242  1.00  0.00     0.165 HD
HETATM   17  C19 UNL     1      13.833  71.824  14.979  1.00  0.00     0.138 C 
HETATM   18  C20 UNL     1      13.617  73.903  13.605  1.00  0.00     0.138 C 
ENDROOT
BRANCH  15  19
HETATM   19  C11 UNL     1      15.113  66.993  15.984  1.00  0.00     0.174 C 
HETATM   20  C12 UNL     1      14.704  65.771  15.194  1.00  0.00     0.042 C 
BRANCH  19  21
HETATM   21  C13 UNL     1      16.438  66.840  16.609  1.00  0.00     0.249 C 
HETATM   22  O3  UNL     1      17.426  66.688  15.812  1.00  0.00    -0.271 OA
HETATM   23  N5  UNL     1      16.720  66.845  17.991  1.00  0.00    -0.280 N 
HETATM   24  C14 UNL     1      18.067  66.671  18.574  1.00  0.00     0.163 C 
HETATM   25  C18 UNL     1      15.875  67.001  19.124  1.00  0.00     0.282 C 
HETATM   26  C15 UNL     1      17.821  66.410  20.042  1.00  0.00     0.267 C 
HETATM   27  N6  UNL     1      16.409  66.163  20.181  1.00  0.00    -0.013 N 
HETATM   28  C16 UNL     1      16.024  64.796  20.028  1.00  0.00     0.283 C 
HETATM   29  C17 UNL     1      15.964  66.759  21.417  1.00  0.00     0.283 C 
HETATM   30  N7  UNL     1      14.852  67.749  19.177  1.00  0.00    -0.365 N 
ATOM     31  H72 UNL     1      14.477  68.338  18.435  1.00  0.00     0.159 HD
ATOM     32  H71 UNL     1      14.246  67.861  19.990  1.00  0.00     0.159 HD
ENDBRANCH  19  21
ENDBRANCH  15  19
BRANCH   1  33
HETATM   33  C2  UNL     1      14.294  77.435  10.207  1.00  0.00     0.120 C 
HETATM   34  C1  UNL     1      13.987  77.721   8.770  1.00  0.00     0.026 C 
ENDBRANCH   1  33
TORSDOF 3
ENDMDL
MODEL 4
REMARK VINA RESULT: -6.573132785      7.095     10.131
REMARK  3 active torsions:
REMARK  status: ('A' for Active; 'I' for Inactive)
REMARK    1  A    between atoms: C2_2  and  N1_3 
REMARK       I    between atoms: N1_3  and  C3_5 
REMARK       I    between atoms: C3_5  and  N2_7 
REMARK       I    between atoms: N3_14  and  C10_15 
REMARK       I    between atoms: C10_15  and  N4_17 
REMARK    2  A    between atoms: N4_17  and  C11_19 
REMARK    3  A    between atoms: C11_19  and  C13_21 
REMARK       I    between atoms: C13_21  and  N5_23 
ROOT
HETATM    1  N1  UNL     1      13.728  80.415   8.965  1.00  0.00    -0.343 N 
ATOM      2  H1  UNL     1      13.169  80.963   9.619  1.00  0.00     0.164 HD
HETATM    3  C3  UNL     1      14.043  79.079   9.306  1.00  0.00     0.318 C 
HETATM    4  O1  UNL     1      14.744  78.444   8.450  1.00  0.00    -0.247 OA
HETATM    5  N2  UNL     1      13.653  78.415  10.486  1.00  0.00    -0.333 N 
HETATM    6  C4  UNL     1      12.859  79.079  11.487  1.00  0.00     0.127 C 
HETATM    7  C5  UNL     1      11.703  78.158  11.842  1.00  0.00     0.021 C 
HETATM    8  C6  UNL     1      12.159  76.793  12.248  1.00  0.00     0.014 C 
HETATM    9  C7  UNL     1      13.039  76.140  11.211  1.00  0.00    -0.006 C 
HETATM   10  C8  UNL     1      12.109  75.753  10.053  1.00  0.00     0.033 C 
HETATM   11  C9  UNL     1      11.428  74.545  10.641  1.00  0.00     0.128 C 
HETATM   12  N3  UNL     1      12.373  73.956  11.569  1.00  0.00    -0.333 N 
HETATM   13  C10 UNL     1      12.147  72.731  12.247  1.00  0.00     0.319 C 
HETATM   14  O2  UNL     1      13.016  72.297  13.024  1.00  0.00    -0.247 OA
HETATM   15  N4  UNL     1      10.950  71.995  12.054  1.00  0.00    -0.330 N 
ATOM     16  H4  UNL     1      10.248  72.367  11.412  1.00  0.00     0.165 HD
HETATM   17  C19 UNL     1      13.542  74.815  11.670  1.00  0.00     0.138 C 
HETATM   18  C20 UNL     1      14.083  77.039  10.663  1.00  0.00     0.138 C 
ENDROOT
BRANCH  15  19
HETATM   19  C11 UNL     1      10.677  70.733  12.729  1.00  0.00     0.174 C 
HETATM   20  C12 UNL     1       9.558  70.884  13.734  1.00  0.00     0.042 C 
BRANCH  19  21
HETATM   21  C13 UNL     1      10.405  69.676  11.740  1.00  0.00     0.249 C 
HETATM   22  O3  UNL     1       9.176  69.476  11.450  1.00  0.00    -0.271 OA
HETATM   23  N5  UNL     1      11.361  68.871  11.087  1.00  0.00    -0.280 N 
HETATM   24  C14 UNL     1      11.038  67.808  10.112  1.00  0.00     0.163 C 
HETATM   25  C18 UNL     1      12.780  68.841  11.167  1.00  0.00     0.282 C 
HETATM   26  C15 UNL     1      12.320  67.023   9.959  1.00  0.00     0.267 C 
HETATM   27  N6  UNL     1      13.193  67.458  11.018  1.00  0.00    -0.013 N 
HETATM   28  C16 UNL     1      13.066  66.725  12.236  1.00  0.00     0.283 C 
HETATM   29  C17 UNL     1      14.540  67.505  10.503  1.00  0.00     0.283 C 
HETATM   30  N7  UNL     1      13.525  69.853  11.332  1.00  0.00    -0.365 N 
ATOM     31  H72 UNL     1      13.235  70.825  11.437  1.00  0.00     0.159 HD
ATOM     32  H71 UNL     1      14.544  69.832  11.390  1.00  0.00     0.159 HD
ENDBRANCH  19  21
ENDBRANCH  15  19
BRANCH   1  33
HETATM   33  C2  UNL     1      14.155  81.037   7.747  1.00  0.00     0.120 C 
HETATM   34  C1  UNL     1      14.052  82.526   7.859  1.00  0.00     0.026 C 
ENDBRANCH   1  33
TORSDOF 3
ENDMDL
MODEL 5
REMARK VINA RESULT: -6.514171411      2.167      3.742
REMARK  3 active torsions:
REMARK  status: ('A' for Active; 'I' for Inactive)
REMARK    1  A    between atoms: C2_2  and  N1_3 
REMARK       I    between atoms: N1_3  and  C3_5 
REMARK       I    between atoms: C3_5  and  N2_7 
REMARK       I    between atoms: N3_14  and  C10_15 
REMARK       I    between atoms: C10_15  and  N4_17 
REMARK    2  A    between atoms: N4_17  and  C11_19 
REMARK    3  A    between atoms: C11_19  and  C13_21 
REMARK       I    between atoms: C13_21  and  N5_23 
ROOT
HETATM    1  N1  UNL     1      11.918  67.224   9.335  1.00  0.00    -0.343 N 
ATOM      2  H1  UNL     1      10.942  67.352   9.605  1.00  0.00     0.164 HD
HETATM    3  C3  UNL     1      12.925  67.611  10.248  1.00  0.00     0.318 C 
HETATM    4  O1  UNL     1      14.125  67.427   9.854  1.00  0.00    -0.247 OA
HETATM    5  N2  UNL     1      12.712  68.171  11.524  1.00  0.00    -0.333 N 
HETATM    6  C4  UNL     1      11.381  68.399  12.023  1.00  0.00     0.127 C 
HETATM    7  C5  UNL     1      11.310  67.820  13.427  1.00  0.00     0.021 C 
HETATM    8  C6  UNL     1      12.386  68.349  14.322  1.00  0.00     0.014 C 
HETATM    9  C7  UNL     1      13.768  68.152  13.751  1.00  0.00    -0.006 C 
HETATM   10  C8  UNL     1      14.065  66.652  13.873  1.00  0.00     0.033 C 
HETATM   11  C9  UNL     1      14.355  66.550  15.347  1.00  0.00     0.128 C 
HETATM   12  N3  UNL     1      14.887  67.837  15.749  1.00  0.00    -0.333 N 
HETATM   13  C10 UNL     1      15.387  68.109  17.048  1.00  0.00     0.319 C 
HETATM   14  O2  UNL     1      15.829  69.243  17.303  1.00  0.00    -0.247 OA
HETATM   15  N4  UNL     1      15.392  67.111  18.056  1.00  0.00    -0.330 N 
ATOM     16  H4  UNL     1      15.026  66.187  17.828  1.00  0.00     0.165 HD
HETATM   17  C19 UNL     1      14.815  68.754  14.623  1.00  0.00     0.138 C 
HETATM   18  C20 UNL     1      13.879  68.514  12.317  1.00  0.00     0.138 C 
ENDROOT
BRANCH  15  19
HETATM   19  C11 UNL     1      15.897  67.348  19.403  1.00  0.00     0.174 C 
HETATM   20  C12 UNL     1      14.895  68.118  20.232  1.00  0.00     0.042 C 
BRANCH  19  21
HETATM   21  C13 UNL     1      16.285  66.073  20.031  1.00  0.00     0.249 C 
HETATM   22  O3  UNL     1      17.451  66.032  20.553  1.00  0.00    -0.271 OA
HETATM   23  N5  UNL     1      15.501  64.903  20.110  1.00  0.00    -0.280 N 
HETATM   24  C14 UNL     1      15.940  63.639  20.737  1.00  0.00     0.163 C 
HETATM   25  C18 UNL     1      14.185  64.618  19.653  1.00  0.00     0.282 C 
HETATM   26  C15 UNL     1      14.930  62.612  20.282  1.00  0.00     0.267 C 
HETATM   27  N6  UNL     1      14.164  63.231  19.231  1.00  0.00    -0.013 N 
HETATM   28  C16 UNL     1      14.703  63.059  17.920  1.00  0.00     0.283 C 
HETATM   29  C17 UNL     1      12.792  62.803  19.359  1.00  0.00     0.283 C 
HETATM   30  N7  UNL     1      13.222  65.443  19.635  1.00  0.00    -0.365 N 
ATOM     31  H72 UNL     1      13.236  66.418  19.931  1.00  0.00     0.159 HD
ATOM     32  H71 UNL     1      12.277  65.239  19.307  1.00  0.00     0.159 HD
ENDBRANCH  19  21
ENDBRANCH  15  19
BRANCH   1  33
HETATM   33  C2  UNL     1      12.199  66.659   8.048  1.00  0.00     0.120 C 
HETATM   34  C1  UNL     1      11.440  67.389   6.984  1.00  0.00     0.026 C 
ENDBRANCH   1  33
TORSDOF 3
ENDMDL
