MODEL 1
REMARK VINA RESULT: -6.997767439      0.000      0.000
REMARK  8 active torsions:
REMARK  status: ('A' for Active; 'I' for Inactive)
REMARK    1  A    between atoms: C2_2  and  N1_3 
REMARK    2  A    between atoms: N1_3  and  C3_4 
REMARK    3  A    between atoms: C3_4  and  C4_5 
REMARK    4  A    between atoms: C5_6  and  C6_7 
REMARK    5  A    between atoms: C11_12  and  N2_13 
REMARK    6  A    between atoms: N2_13  and  C12_15 
REMARK    7  A    between atoms: C12_15  and  C13_16 
REMARK    8  A    between atoms: C13_16  and  O1_17 
ROOT
HETATM    1  C3  UNL     1      15.576  66.581  16.703  1.00  0.00     0.353 C 
ENDROOT
BRANCH   1   2
HETATM    2  N1  UNL     1      15.042  67.192  17.870  1.00  0.00     0.061 N 
HETATM    3  C14 UNL     1      14.606  66.338  18.903  1.00  0.00     0.257 C 
HETATM    4  C15 UNL     1      14.008  65.032  18.478  1.00  0.00     0.273 C 
HETATM    5  C19 UNL     1      15.666  65.971  19.833  1.00  0.00     0.135 C 
HETATM    6  N4  UNL     1      14.673  63.992  19.244  1.00  0.00    -0.071 N 
HETATM    7  C16 UNL     1      14.738  62.744  18.515  1.00  0.00     0.272 C 
HETATM    8  C17 UNL     1      13.949  63.773  20.475  1.00  0.00     0.272 C 
HETATM    9  C18 UNL     1      15.982  64.512  19.525  1.00  0.00     0.259 C 
HETATM   10  N5  UNL     1      16.780  66.824  19.798  1.00  0.00    -0.183 NA
HETATM   11  C20 UNL     1      18.032  66.209  19.440  1.00  0.00     0.131 C 
HETATM   12  S1  UNL     1      16.368  68.035  18.652  1.00  0.00     0.389 S 
HETATM   13  O2  UNL     1      15.886  69.270  19.339  1.00  0.00    -0.181 OA
HETATM   14  O3  UNL     1      17.491  68.276  17.721  1.00  0.00    -0.181 OA
BRANCH   2  15
HETATM   15  C2  UNL     1      14.087  68.238  17.528  1.00  0.00     0.256 C 
HETATM   16  C1  UNL     1      12.811  68.168  18.291  1.00  0.00     0.036 C 
ENDBRANCH   2  15
ENDBRANCH   1   2
BRANCH   1  17
HETATM   17  C4  UNL     1      14.711  66.769  15.512  1.00  0.00    -0.070 C 
HETATM   18  C5  UNL     1      13.991  66.912  14.555  1.00  0.00    -0.047 C 
BRANCH  18  19
HETATM   19  C6  UNL     1      13.116  67.065  13.417  1.00  0.00     0.088 A 
HETATM   20  C7  UNL     1      11.766  67.273  13.575  1.00  0.00     0.046 A 
HETATM   21  C8  UNL     1      10.914  67.422  12.493  1.00  0.00    -0.056 A 
HETATM   22  C9  UNL     1       9.446  67.647  12.664  1.00  0.00     0.048 C 
HETATM   23  C10 UNL     1      11.465  67.354  11.239  1.00  0.00     0.055 A 
HETATM   24  C11 UNL     1      12.849  67.141  11.051  1.00  0.00     0.106 A 
HETATM   25  N3  UNL     1      13.596  67.008  12.150  1.00  0.00    -0.335 N 
ATOM     26  H3  UNL     1      14.597  66.854  12.028  1.00  0.00     0.168 HD
BRANCH  24  27
HETATM   27  N2  UNL     1      13.232  67.099   9.875  1.00  0.00    -0.354 N 
ATOM     28  H2  UNL     1      13.981  67.784   9.767  1.00  0.00     0.166 HD
BRANCH  27  29
HETATM   29  C12 UNL     1      13.044  66.490   8.659  1.00  0.00     0.088 C 
BRANCH  29  30
HETATM   30  C13 UNL     1      11.972  67.022   7.734  1.00  0.00     0.208 C 
BRANCH  30  31
HETATM   31  O1  UNL     1      12.106  66.352   6.495  1.00  0.00    -0.396 OA
ATOM     32  H1  UNL     1      11.731  66.911   5.825  1.00  0.00     0.209 HD
ENDBRANCH  30  31
ENDBRANCH  29  30
ENDBRANCH  27  29
ENDBRANCH  24  27
ENDBRANCH  18  19
ENDBRANCH   1  17
TORSDOF 8
ENDMDL
MODEL 2
REMARK VINA RESULT: -6.899027462      6.102      8.725
REMARK  8 active torsions:
REMARK  status: ('A' for Active; 'I' for Inactive)
REMARK    1  A    between atoms: C2_2  and  N1_3 
REMARK    2  A    between atoms: N1_3  and  C3_4 
REMARK    3  A    between atoms: C3_4  and  C4_5 
REMARK    4  A    between atoms: C5_6  and  C6_7 
REMARK    5  A    between atoms: C11_12  and  N2_13 
REMARK    6  A    between atoms: N2_13  and  C12_15 
REMARK    7  A    between atoms: C12_15  and  C13_16 
REMARK    8  A    between atoms: C13_16  and  O1_17 
ROOT
HETATM    1  C3  UNL     1      12.623  69.924  11.482  1.00  0.00     0.353 C 
ENDROOT
BRANCH   1   2
HETATM    2  N1  UNL     1      12.742  68.872  12.431  1.00  0.00     0.061 N 
HETATM    3  C14 UNL     1      11.565  68.462  13.089  1.00  0.00     0.257 C 
HETATM    4  C15 UNL     1      10.555  69.530  13.374  1.00  0.00     0.273 C 
HETATM    5  C19 UNL     1      10.823  67.440  12.360  1.00  0.00     0.135 C 
HETATM    6  N4  UNL     1       9.275  69.044  12.893  1.00  0.00    -0.071 N 
HETATM    7  C16 UNL     1       8.414  70.124  12.462  1.00  0.00     0.272 C 
HETATM    8  C17 UNL     1       8.613  68.319  13.953  1.00  0.00     0.272 C 
HETATM    9  C18 UNL     1       9.594  68.155  11.810  1.00  0.00     0.259 C 
HETATM   10  N5  UNL     1      11.580  66.763  11.393  1.00  0.00    -0.183 NA
HETATM   11  C20 UNL     1      11.113  66.876  10.036  1.00  0.00     0.131 C 
HETATM   12  S1  UNL     1      13.160  67.425  11.531  1.00  0.00     0.389 S 
HETATM   13  O2  UNL     1      14.039  66.528  12.338  1.00  0.00    -0.181 OA
HETATM   14  O3  UNL     1      13.708  67.747  10.196  1.00  0.00    -0.181 OA
BRANCH   2  15
HETATM   15  C2  UNL     1      13.871  69.092  13.325  1.00  0.00     0.256 C 
HETATM   16  C1  UNL     1      13.581  68.792  14.754  1.00  0.00     0.036 C 
ENDBRANCH   2  15
ENDBRANCH   1   2
BRANCH   1  17
HETATM   17  C4  UNL     1      13.133  71.219  11.997  1.00  0.00    -0.070 C 
HETATM   18  C5  UNL     1      13.540  72.282  12.398  1.00  0.00    -0.047 C 
BRANCH  18  19
HETATM   19  C6  UNL     1      14.029  73.561  12.854  1.00  0.00     0.088 A 
HETATM   20  C7  UNL     1      14.698  73.686  14.050  1.00  0.00     0.046 A 
HETATM   21  C8  UNL     1      15.172  74.907  14.500  1.00  0.00    -0.056 A 
HETATM   22  C9  UNL     1      15.898  75.045  15.800  1.00  0.00     0.048 C 
HETATM   23  C10 UNL     1      14.953  76.005  13.708  1.00  0.00     0.055 A 
HETATM   24  C11 UNL     1      14.270  75.901  12.476  1.00  0.00     0.106 A 
HETATM   25  N3  UNL     1      13.846  74.684  12.118  1.00  0.00    -0.335 N 
ATOM     26  H3  UNL     1      13.350  74.596  11.231  1.00  0.00     0.168 HD
BRANCH  24  27
HETATM   27  N2  UNL     1      14.131  76.956  11.846  1.00  0.00    -0.354 N 
ATOM     28  H2  UNL     1      14.789  77.636  12.229  1.00  0.00     0.166 HD
BRANCH  27  29
HETATM   29  C12 UNL     1      13.438  77.572  10.833  1.00  0.00     0.088 C 
BRANCH  29  30
HETATM   30  C13 UNL     1      13.736  77.183   9.402  1.00  0.00     0.208 C 
BRANCH  30  31
HETATM   31  O1  UNL     1      15.111  76.864   9.324  1.00  0.00    -0.396 OA
ATOM     32  H1  UNL     1      15.296  76.221   9.999  1.00  0.00     0.209 HD
ENDBRANCH  30  31
ENDBRANCH  29  30
ENDBRANCH  27  29
ENDBRANCH  24  27
ENDBRANCH  18  19
ENDBRANCH   1  17
TORSDOF 8
ENDMDL
MODEL 3
REMARK VINA RESULT: -6.875268493      5.822      8.889
REMARK  8 active torsions:
REMARK  status: ('A' for Active; 'I' for Inactive)
REMARK    1  A    between atoms: C2_2  and  N1_3 
REMARK    2  A    between atoms: N1_3  and  C3_4 
REMARK    3  A    between atoms: C3_4  and  C4_5 
REMARK    4  A    between atoms: C5_6  and  C6_7 
REMARK    5  A    between atoms: C11_12  and  N2_13 
REMARK    6  A    between atoms: N2_13  and  C12_15 
REMARK    7  A    between atoms: C12_15  and  C13_16 
REMARK    8  A    between atoms: C13_16  and  O1_17 
ROOT
HETATM    1  C3  UNL     1      12.202  70.141  11.582  1.00  0.00     0.353 C 
ENDROOT
BRANCH   1   2
HETATM    2  N1  UNL     1      12.879  69.113  12.293  1.00  0.00     0.061 N 
HETATM    3  C14 UNL     1      12.183  68.494  13.350  1.00  0.00     0.257 C 
HETATM    4  C15 UNL     1      11.249  69.365  14.132  1.00  0.00     0.273 C 
HETATM    5  C19 UNL     1      11.363  67.369  12.920  1.00  0.00     0.135 C 
HETATM    6  N4  UNL     1       9.977  68.669  14.201  1.00  0.00    -0.071 N 
HETATM    7  C16 UNL     1       8.861  69.587  14.275  1.00  0.00     0.272 C 
HETATM    8  C17 UNL     1       9.960  67.824  15.374  1.00  0.00     0.272 C 
HETATM    9  C18 UNL     1       9.924  67.865  13.011  1.00  0.00     0.259 C 
HETATM   10  N5  UNL     1      11.717  66.848  11.666  1.00  0.00    -0.183 NA
HETATM   11  C20 UNL     1      10.694  66.897  10.654  1.00  0.00     0.131 C 
HETATM   12  S1  UNL     1      13.078  67.774  11.176  1.00  0.00     0.389 S 
HETATM   13  O2  UNL     1      14.345  67.033  11.449  1.00  0.00    -0.181 OA
HETATM   14  O3  UNL     1      12.936  68.205   9.769  1.00  0.00    -0.181 OA
BRANCH   2  15
HETATM   15  C2  UNL     1      14.237  69.515  12.637  1.00  0.00     0.256 C 
HETATM   16  C1  UNL     1      14.641  69.164  14.025  1.00  0.00     0.036 C 
ENDBRANCH   2  15
ENDBRANCH   1   2
BRANCH   1  17
HETATM   17  C4  UNL     1      12.752  71.490  11.865  1.00  0.00    -0.070 C 
HETATM   18  C5  UNL     1      13.192  72.593  12.075  1.00  0.00    -0.047 C 
BRANCH  18  19
HETATM   19  C6  UNL     1      13.718  73.918  12.303  1.00  0.00     0.088 A 
HETATM   20  C7  UNL     1      13.675  74.884  11.325  1.00  0.00     0.046 A 
HETATM   21  C8  UNL     1      14.177  76.158  11.529  1.00  0.00    -0.056 A 
HETATM   22  C9  UNL     1      14.132  77.208  10.466  1.00  0.00     0.048 C 
HETATM   23  C10 UNL     1      14.727  76.435  12.755  1.00  0.00     0.055 A 
HETATM   24  C11 UNL     1      14.782  75.460  13.776  1.00  0.00     0.106 A 
HETATM   25  N3  UNL     1      14.275  74.256  13.492  1.00  0.00    -0.335 N 
ATOM     26  H3  UNL     1      14.309  73.543  14.221  1.00  0.00     0.168 HD
BRANCH  24  27
HETATM   27  N2  UNL     1      15.299  75.822  14.839  1.00  0.00    -0.354 N 
ATOM     28  H2  UNL     1      15.497  76.820  14.765  1.00  0.00     0.166 HD
BRANCH  27  29
HETATM   29  C12 UNL     1      15.711  75.407  16.081  1.00  0.00     0.088 C 
BRANCH  29  30
HETATM   30  C13 UNL     1      16.924  74.508  16.186  1.00  0.00     0.208 C 
BRANCH  30  31
HETATM   31  O1  UNL     1      18.072  75.330  16.109  1.00  0.00    -0.396 OA
ATOM     32  H1  UNL     1      18.407  75.440  16.991  1.00  0.00     0.209 HD
ENDBRANCH  30  31
ENDBRANCH  29  30
ENDBRANCH  27  29
ENDBRANCH  24  27
ENDBRANCH  18  19
ENDBRANCH   1  17
TORSDOF 8
ENDMDL
MODEL 4
REMARK VINA RESULT: -6.802901281      5.152      9.113
REMARK  8 active torsions:
REMARK  status: ('A' for Active; 'I' for Inactive)
REMARK    1  A    between atoms: C2_2  and  N1_3 
REMARK    2  A    between atoms: N1_3  and  C3_4 
REMARK    3  A    between atoms: C3_4  and  C4_5 
REMARK    4  A    between atoms: C5_6  and  C6_7 
REMARK    5  A    between atoms: C11_12  and  N2_13 
REMARK    6  A    between atoms: N2_13  and  C12_15 
REMARK    7  A    between atoms: C12_15  and  C13_16 
REMARK    8  A    between atoms: C13_16  and  O1_17 
ROOT
HETATM    1  C3  UNL     1      13.085  69.692  11.679  1.00  0.00     0.353 C 
ENDROOT
BRANCH   1   2
HETATM    2  N1  UNL     1      13.001  68.504  12.454  1.00  0.00     0.061 N 
HETATM    3  C14 UNL     1      11.729  68.138  12.938  1.00  0.00     0.257 C 
HETATM    4  C15 UNL     1      10.808  69.262  13.305  1.00  0.00     0.273 C 
HETATM    5  C19 UNL     1      10.964  67.330  11.996  1.00  0.00     0.135 C 
HETATM    6  N4  UNL     1       9.540  69.004  12.646  1.00  0.00    -0.071 N 
HETATM    7  C16 UNL     1       8.841  70.229  12.323  1.00  0.00     0.272 C 
HETATM    8  C17 UNL     1       8.705  68.210  13.519  1.00  0.00     0.272 C 
HETATM    9  C18 UNL     1       9.875  68.257  11.466  1.00  0.00     0.259 C 
HETATM   10  N5  UNL     1      11.742  66.722  10.999  1.00  0.00    -0.183 NA
HETATM   11  C20 UNL     1      11.426  67.090   9.644  1.00  0.00     0.131 C 
HETATM   12  S1  UNL     1      13.358  67.168  11.373  1.00  0.00     0.389 S 
HETATM   13  O2  UNL     1      14.056  66.065  12.096  1.00  0.00    -0.181 OA
HETATM   14  O3  UNL     1      14.068  67.621  10.156  1.00  0.00    -0.181 OA
BRANCH   2  15
HETATM   15  C2  UNL     1      14.051  68.455  13.463  1.00  0.00     0.256 C 
HETATM   16  C1  UNL     1      13.604  67.923  14.779  1.00  0.00     0.036 C 
ENDBRANCH   2  15
ENDBRANCH   1   2
BRANCH   1  17
HETATM   17  C4  UNL     1      13.733  70.808  12.411  1.00  0.00    -0.070 C 
HETATM   18  C5  UNL     1      14.240  71.726  13.007  1.00  0.00    -0.047 C 
BRANCH  18  19
HETATM   19  C6  UNL     1      14.832  72.840  13.709  1.00  0.00     0.088 A 
HETATM   20  C7  UNL     1      14.444  74.135  13.453  1.00  0.00     0.046 A 
HETATM   21  C8  UNL     1      15.003  75.213  14.119  1.00  0.00    -0.056 A 
HETATM   22  C9  UNL     1      14.582  76.621  13.842  1.00  0.00     0.048 C 
HETATM   23  C10 UNL     1      15.969  74.949  15.056  1.00  0.00     0.055 A 
HETATM   24  C11 UNL     1      16.384  73.628  15.336  1.00  0.00     0.106 A 
HETATM   25  N3  UNL     1      15.792  72.648  14.646  1.00  0.00    -0.335 N 
ATOM     26  H3  UNL     1      16.083  71.689  14.839  1.00  0.00     0.168 HD
BRANCH  24  27
HETATM   27  N2  UNL     1      17.262  73.511  16.199  1.00  0.00    -0.354 N 
ATOM     28  H2  UNL     1      17.729  72.617  16.049  1.00  0.00     0.166 HD
BRANCH  27  29
HETATM   29  C12 UNL     1      17.854  74.114  17.282  1.00  0.00     0.088 C 
BRANCH  29  30
HETATM   30  C13 UNL     1      19.029  73.431  17.947  1.00  0.00     0.208 C 
BRANCH  30  31
HETATM   31  O1  UNL     1      20.195  74.149  17.595  1.00  0.00    -0.396 OA
ATOM     32  H1  UNL     1      20.909  73.525  17.537  1.00  0.00     0.209 HD
ENDBRANCH  30  31
ENDBRANCH  29  30
ENDBRANCH  27  29
ENDBRANCH  24  27
ENDBRANCH  18  19
ENDBRANCH   1  17
TORSDOF 8
ENDMDL
MODEL 5
REMARK VINA RESULT: -6.774708619      5.764      8.739
REMARK  8 active torsions:
REMARK  status: ('A' for Active; 'I' for Inactive)
REMARK    1  A    between atoms: C2_2  and  N1_3 
REMARK    2  A    between atoms: N1_3  and  C3_4 
REMARK    3  A    between atoms: C3_4  and  C4_5 
REMARK    4  A    between atoms: C5_6  and  C6_7 
REMARK    5  A    between atoms: C11_12  and  N2_13 
REMARK    6  A    between atoms: N2_13  and  C12_15 
REMARK    7  A    between atoms: C12_15  and  C13_16 
REMARK    8  A    between atoms: C13_16  and  O1_17 
ROOT
HETATM    1  C3  UNL     1      13.097  69.643  11.674  1.00  0.00     0.353 C 
ENDROOT
BRANCH   1   2
HETATM    2  N1  UNL     1      13.002  68.481  12.486  1.00  0.00     0.061 N 
HETATM    3  C14 UNL     1      11.726  68.141  12.978  1.00  0.00     0.257 C 
HETATM    4  C15 UNL     1      10.814  69.283  13.307  1.00  0.00     0.273 C 
HETATM    5  C19 UNL     1      10.957  67.309  12.061  1.00  0.00     0.135 C 
HETATM    6  N4  UNL     1       9.545  69.014  12.654  1.00  0.00    -0.071 N 
HETATM    7  C16 UNL     1       8.856  70.233  12.290  1.00  0.00     0.272 C 
HETATM    8  C17 UNL     1       8.702  68.255  13.549  1.00  0.00     0.272 C 
HETATM    9  C18 UNL     1       9.877  68.227  11.499  1.00  0.00     0.259 C 
HETATM   10  N5  UNL     1      11.732  66.664  11.086  1.00  0.00    -0.183 NA
HETATM   11  C20 UNL     1      11.423  66.991   9.719  1.00  0.00     0.131 C 
HETATM   12  S1  UNL     1      13.351  67.109  11.449  1.00  0.00     0.389 S 
HETATM   13  O2  UNL     1      14.039  66.024  12.210  1.00  0.00    -0.181 OA
HETATM   14  O3  UNL     1      14.067  67.517  10.221  1.00  0.00    -0.181 OA
BRANCH   2  15
HETATM   15  C2  UNL     1      14.049  68.457  13.499  1.00  0.00     0.256 C 
HETATM   16  C1  UNL     1      13.594  67.977  14.832  1.00  0.00     0.036 C 
ENDBRANCH   2  15
ENDBRANCH   1   2
BRANCH   1  17
HETATM   17  C4  UNL     1      13.720  70.788  12.384  1.00  0.00    -0.070 C 
HETATM   18  C5  UNL     1      14.208  71.729  12.961  1.00  0.00    -0.047 C 
BRANCH  18  19
HETATM   19  C6  UNL     1      14.775  72.869  13.639  1.00  0.00     0.088 A 
HETATM   20  C7  UNL     1      15.711  72.717  14.636  1.00  0.00     0.046 A 
HETATM   21  C8  UNL     1      16.263  73.802  15.296  1.00  0.00    -0.056 A 
HETATM   22  C9  UNL     1      17.280  73.638  16.379  1.00  0.00     0.048 C 
HETATM   23  C10 UNL     1      15.844  75.053  14.922  1.00  0.00     0.055 A 
HETATM   24  C11 UNL     1      14.884  75.235  13.901  1.00  0.00     0.106 A 
HETATM   25  N3  UNL     1      14.403  74.133  13.318  1.00  0.00    -0.335 N 
ATOM     26  H3  UNL     1      13.709  74.250  12.579  1.00  0.00     0.168 HD
BRANCH  24  27
HETATM   27  N2  UNL     1      14.582  76.408  13.648  1.00  0.00    -0.354 N 
ATOM     28  H2  UNL     1      15.282  77.010  14.082  1.00  0.00     0.166 HD
BRANCH  27  29
HETATM   29  C12 UNL     1      13.673  77.217  13.011  1.00  0.00     0.088 C 
BRANCH  29  30
HETATM   30  C13 UNL     1      13.557  77.141  11.505  1.00  0.00     0.208 C 
BRANCH  30  31
HETATM   31  O1  UNL     1      14.823  77.459  10.962  1.00  0.00    -0.396 OA
ATOM     32  H1  UNL     1      15.463  76.892  11.376  1.00  0.00     0.209 HD
ENDBRANCH  30  31
ENDBRANCH  29  30
ENDBRANCH  27  29
ENDBRANCH  24  27
ENDBRANCH  18  19
ENDBRANCH   1  17
TORSDOF 8
ENDMDL
