MODEL 1
REMARK VINA RESULT: -8.281430791      0.000      0.000
REMARK  5 active torsions:
REMARK  status: ('A' for Active; 'I' for Inactive)
REMARK    1  A    between atoms: C2_2  and  C4_4 
REMARK    2  A    between atoms: C4_4  and  N1_5 
REMARK    3  A    between atoms: C4_4  and  C18_24 
REMARK       I    between atoms: N1_5  and  C5_7 
REMARK       I    between atoms: C5_7  and  N2_9 
REMARK    4  A    between atoms: N4_15  and  C10_16 
REMARK    5  A    between atoms: C10_16  and  C11_17 
REMARK       I    between atoms: C18_24  and  N5_26 
REMARK       I    between atoms: N6_29  and  C21_30 
ROOT
HETATM    1  N1  UNL     1      16.227 -12.769  19.638  1.00  0.00    -0.326 N 
ATOM      2  H1  UNL     1      16.145 -13.780  19.744  1.00  0.00     0.165 HD
HETATM    3  C5  UNL     1      17.364 -12.144  20.145  1.00  0.00     0.319 C 
HETATM    4  O1  UNL     1      17.491 -10.906  20.027  1.00  0.00    -0.247 OA
HETATM    5  N2  UNL     1      18.372 -12.883  20.787  1.00  0.00    -0.331 N 
HETATM    6  C6  UNL     1      18.378 -14.304  21.013  1.00  0.00     0.155 C 
HETATM    7  C7  UNL     1      19.026 -14.705  22.320  1.00  0.00     0.257 C 
HETATM    8  N3  UNL     1      20.333 -14.127  22.522  1.00  0.00    -0.061 N 
HETATM    9  C8  UNL     1      21.320 -15.179  22.379  1.00  0.00     0.268 C 
HETATM   10  C9  UNL     1      21.451 -16.011  23.637  1.00  0.00     0.300 C 
HETATM   11  N4  UNL     1      21.881 -15.203  24.729  1.00  0.00     0.092 N 
HETATM   12  C14 UNL     1      21.610 -13.807  24.599  1.00  0.00     0.300 C 
HETATM   13  C15 UNL     1      20.337 -13.524  23.836  1.00  0.00     0.268 C 
HETATM   14  C16 UNL     1      20.657 -13.147  21.487  1.00  0.00     0.257 C 
HETATM   15  C17 UNL     1      19.549 -12.160  21.283  1.00  0.00     0.155 C 
ENDROOT
BRANCH   1  16
HETATM   16  C4  UNL     1      15.140 -12.054  18.960  1.00  0.00     0.207 C 
BRANCH  16  17
HETATM   17  C2  UNL     1      15.149 -12.600  17.555  1.00  0.00    -0.061 C 
HETATM   18  C1  UNL     1      15.489 -13.829  17.346  1.00  0.00     0.016 C 
HETATM   19  C3  UNL     1      14.798 -11.685  16.452  1.00  0.00     0.045 C 
ENDBRANCH  16  17
BRANCH  16  20
HETATM   20  C18 UNL     1      13.851 -12.312  19.583  1.00  0.00     0.248 C 
HETATM   21  O2  UNL     1      13.104 -13.209  19.126  1.00  0.00    -0.271 OA
HETATM   22  N5  UNL     1      13.418 -11.575  20.704  1.00  0.00    -0.332 N 
HETATM   23  C19 UNL     1      14.106 -10.542  21.440  1.00  0.00     0.147 C 
HETATM   24  C22 UNL     1      12.104 -11.772  21.320  1.00  0.00     0.254 C 
HETATM   25  C20 UNL     1      13.088  -9.938  22.390  1.00  0.00     0.147 C 
HETATM   26  N6  UNL     1      12.062 -10.948  22.491  1.00  0.00    -0.338 N 
HETATM   27  C21 UNL     1      11.166 -11.106  23.557  1.00  0.00     0.185 C 
HETATM   28  N7  UNL     1      10.056 -11.741  23.411  1.00  0.00    -0.374 N 
HETATM   29  N8  UNL     1      11.447 -10.568  24.844  1.00  0.00    -0.064 NA
ATOM     30  H72 UNL     1       9.854 -12.127  22.489  1.00  0.00     0.158 HD
ATOM     31  H71 UNL     1       9.403 -11.857  24.186  1.00  0.00     0.158 HD
ENDBRANCH  16  20
ENDBRANCH   1  16
BRANCH  11  32
HETATM   32  C10 UNL     1      23.247 -15.400  25.104  1.00  0.00     0.277 C 
BRANCH  32  33
HETATM   33  C11 UNL     1      23.944 -16.589  24.516  1.00  0.00     0.014 A 
HETATM   34  C12 UNL     1      25.266 -16.254  23.801  1.00  0.00     0.007 A 
HETATM   35  C13 UNL     1      25.218 -17.133  25.019  1.00  0.00     0.007 A 
ENDBRANCH  32  33
ENDBRANCH  11  32
TORSDOF 5
ENDMDL
MODEL 2
REMARK VINA RESULT: -8.207709525      1.642      1.982
REMARK  5 active torsions:
REMARK  status: ('A' for Active; 'I' for Inactive)
REMARK    1  A    between atoms: C2_2  and  C4_4 
REMARK    2  A    between atoms: C4_4  and  N1_5 
REMARK    3  A    between atoms: C4_4  and  C18_24 
REMARK       I    between atoms: N1_5  and  C5_7 
REMARK       I    between atoms: C5_7  and  N2_9 
REMARK    4  A    between atoms: N4_15  and  C10_16 
REMARK    5  A    between atoms: C10_16  and  C11_17 
REMARK       I    between atoms: C18_24  and  N5_26 
REMARK       I    between atoms: N6_29  and  C21_30 
ROOT
HETATM    1  N1  UNL     1      16.647 -13.918  20.692  1.00  0.00    -0.326 N 
ATOM      2  H1  UNL     1      16.636 -14.938  20.697  1.00  0.00     0.165 HD
HETATM    3  C5  UNL     1      17.730 -13.268  21.279  1.00  0.00     0.319 C 
HETATM    4  O1  UNL     1      17.770 -12.019  21.283  1.00  0.00    -0.247 OA
HETATM    5  N2  UNL     1      18.779 -13.995  21.867  1.00  0.00    -0.331 N 
HETATM    6  C6  UNL     1      18.883 -15.427  21.955  1.00  0.00     0.155 C 
HETATM    7  C7  UNL     1      19.541 -15.908  23.229  1.00  0.00     0.257 C 
HETATM    8  N3  UNL     1      20.800 -15.263  23.512  1.00  0.00    -0.061 N 
HETATM    9  C8  UNL     1      21.862 -16.226  23.288  1.00  0.00     0.268 C 
HETATM   10  C9  UNL     1      22.035 -17.166  24.462  1.00  0.00     0.300 C 
HETATM   11  N4  UNL     1      22.392 -16.440  25.636  1.00  0.00     0.092 N 
HETATM   12  C14 UNL     1      22.024 -15.060  25.635  1.00  0.00     0.300 C 
HETATM   13  C15 UNL     1      20.744 -14.792  24.878  1.00  0.00     0.268 C 
HETATM   14  C16 UNL     1      21.068 -14.167  22.583  1.00  0.00     0.257 C 
HETATM   15  C17 UNL     1      19.895 -13.244  22.454  1.00  0.00     0.155 C 
ENDROOT
BRANCH   1  16
HETATM   16  C4  UNL     1      15.520 -13.218  20.064  1.00  0.00     0.207 C 
BRANCH  16  17
HETATM   17  C2  UNL     1      15.217 -14.025  18.828  1.00  0.00    -0.061 C 
HETATM   18  C1  UNL     1      14.397 -13.560  17.943  1.00  0.00     0.016 C 
HETATM   19  C3  UNL     1      15.851 -15.350  18.690  1.00  0.00     0.045 C 
ENDBRANCH  16  17
BRANCH  16  20
HETATM   20  C18 UNL     1      14.353 -13.183  20.932  1.00  0.00     0.248 C 
HETATM   21  O2  UNL     1      13.818 -14.255  21.302  1.00  0.00    -0.271 OA
HETATM   22  N5  UNL     1      13.808 -11.962  21.377  1.00  0.00    -0.332 N 
HETATM   23  C19 UNL     1      14.266 -10.615  21.139  1.00  0.00     0.147 C 
HETATM   24  C22 UNL     1      12.602 -11.891  22.205  1.00  0.00     0.254 C 
HETATM   25  C20 UNL     1      13.175  -9.691  21.650  1.00  0.00     0.147 C 
HETATM   26  N6  UNL     1      12.418 -10.515  22.560  1.00  0.00    -0.338 N 
HETATM   27  C21 UNL     1      11.627 -10.056  23.623  1.00  0.00     0.185 C 
HETATM   28  N7  UNL     1      10.690 -10.782  24.124  1.00  0.00    -0.374 N 
HETATM   29  N8  UNL     1      11.828  -8.765  24.188  1.00  0.00    -0.064 NA
ATOM     30  H72 UNL     1      10.546 -11.707  23.720  1.00  0.00     0.158 HD
ATOM     31  H71 UNL     1      10.114 -10.448  24.897  1.00  0.00     0.158 HD
ENDBRANCH  16  20
ENDBRANCH   1  16
BRANCH  11  32
HETATM   32  C10 UNL     1      23.763 -16.577  26.017  1.00  0.00     0.277 C 
BRANCH  32  33
HETATM   33  C11 UNL     1      24.150 -17.856  26.698  1.00  0.00     0.014 A 
HETATM   34  C12 UNL     1      24.643 -17.675  28.145  1.00  0.00     0.007 A 
HETATM   35  C13 UNL     1      23.402 -18.456  27.816  1.00  0.00     0.007 A 
ENDBRANCH  32  33
ENDBRANCH  11  32
TORSDOF 5
ENDMDL
MODEL 3
REMARK VINA RESULT: -8.007556780      1.638      1.879
REMARK  5 active torsions:
REMARK  status: ('A' for Active; 'I' for Inactive)
REMARK    1  A    between atoms: C2_2  and  C4_4 
REMARK    2  A    between atoms: C4_4  and  N1_5 
REMARK    3  A    between atoms: C4_4  and  C18_24 
REMARK       I    between atoms: N1_5  and  C5_7 
REMARK       I    between atoms: C5_7  and  N2_9 
REMARK    4  A    between atoms: N4_15  and  C10_16 
REMARK    5  A    between atoms: C10_16  and  C11_17 
REMARK       I    between atoms: C18_24  and  N5_26 
REMARK       I    between atoms: N6_29  and  C21_30 
ROOT
HETATM    1  N1  UNL     1      15.892 -14.327  20.734  1.00  0.00    -0.326 N 
ATOM      2  H1  UNL     1      15.755 -14.928  21.547  1.00  0.00     0.165 HD
HETATM    3  C5  UNL     1      17.196 -13.980  20.384  1.00  0.00     0.319 C 
HETATM    4  O1  UNL     1      17.393 -13.247  19.391  1.00  0.00    -0.247 OA
HETATM    5  N2  UNL     1      18.293 -14.441  21.130  1.00  0.00    -0.331 N 
HETATM    6  C6  UNL     1      18.242 -15.279  22.298  1.00  0.00     0.155 C 
HETATM    7  C7  UNL     1      19.312 -14.960  23.319  1.00  0.00     0.257 C 
HETATM    8  N3  UNL     1      20.643 -14.899  22.765  1.00  0.00    -0.061 N 
HETATM    9  C8  UNL     1      21.376 -16.065  23.218  1.00  0.00     0.268 C 
HETATM   10  C9  UNL     1      21.912 -15.889  24.624  1.00  0.00     0.300 C 
HETATM   11  N4  UNL     1      22.823 -14.795  24.680  1.00  0.00     0.092 N 
HETATM   12  C14 UNL     1      22.668 -13.819  23.648  1.00  0.00     0.300 C 
HETATM   13  C15 UNL     1      21.234 -13.654  23.204  1.00  0.00     0.268 C 
HETATM   14  C16 UNL     1      20.627 -14.993  21.306  1.00  0.00     0.257 C 
HETATM   15  C17 UNL     1      19.638 -14.048  20.695  1.00  0.00     0.155 C 
ENDROOT
BRANCH   1  16
HETATM   16  C4  UNL     1      14.705 -13.876  19.999  1.00  0.00     0.207 C 
BRANCH  16  17
HETATM   17  C2  UNL     1      14.331 -15.052  19.133  1.00  0.00    -0.061 C 
HETATM   18  C1  UNL     1      13.634 -14.863  18.060  1.00  0.00     0.016 C 
HETATM   19  C3  UNL     1      14.751 -16.398  19.568  1.00  0.00     0.045 C 
ENDBRANCH  16  17
BRANCH  16  20
HETATM   20  C18 UNL     1      13.606 -13.549  20.893  1.00  0.00     0.248 C 
HETATM   21  O2  UNL     1      12.856 -14.459  21.320  1.00  0.00    -0.271 OA
HETATM   22  N5  UNL     1      13.363 -12.222  21.300  1.00  0.00    -0.332 N 
HETATM   23  C19 UNL     1      14.104 -11.022  20.995  1.00  0.00     0.147 C 
HETATM   24  C22 UNL     1      12.233 -11.852  22.154  1.00  0.00     0.254 C 
HETATM   25  C20 UNL     1      13.266  -9.859  21.494  1.00  0.00     0.147 C 
HETATM   26  N6  UNL     1      12.374 -10.458  22.456  1.00  0.00    -0.338 N 
HETATM   27  C21 UNL     1      11.743  -9.796  23.518  1.00  0.00     0.185 C 
HETATM   28  N7  UNL     1      10.684 -10.273  24.072  1.00  0.00    -0.374 N 
HETATM   29  N8  UNL     1      12.247  -8.565  24.023  1.00  0.00    -0.064 NA
ATOM     30  H72 UNL     1      10.322 -11.156  23.710  1.00  0.00     0.158 HD
ATOM     31  H71 UNL     1      10.224  -9.792  24.845  1.00  0.00     0.158 HD
ENDBRANCH  16  20
ENDBRANCH   1  16
BRANCH  11  32
HETATM   32  C10 UNL     1      24.196 -15.179  24.784  1.00  0.00     0.277 C 
BRANCH  32  33
HETATM   33  C11 UNL     1      24.473 -16.593  25.199  1.00  0.00     0.014 A 
HETATM   34  C12 UNL     1      25.668 -17.239  24.476  1.00  0.00     0.007 A 
HETATM   35  C13 UNL     1      25.662 -17.012  25.962  1.00  0.00     0.007 A 
ENDBRANCH  32  33
ENDBRANCH  11  32
TORSDOF 5
ENDMDL
MODEL 4
REMARK VINA RESULT: -7.656247614      3.412      9.772
REMARK  5 active torsions:
REMARK  status: ('A' for Active; 'I' for Inactive)
REMARK    1  A    between atoms: C2_2  and  C4_4 
REMARK    2  A    between atoms: C4_4  and  N1_5 
REMARK    3  A    between atoms: C4_4  and  C18_24 
REMARK       I    between atoms: N1_5  and  C5_7 
REMARK       I    between atoms: C5_7  and  N2_9 
REMARK    4  A    between atoms: N4_15  and  C10_16 
REMARK    5  A    between atoms: C10_16  and  C11_17 
REMARK       I    between atoms: C18_24  and  N5_26 
REMARK       I    between atoms: N6_29  and  C21_30 
ROOT
HETATM    1  N1  UNL     1      17.791 -14.882  23.105  1.00  0.00    -0.326 N 
ATOM      2  H1  UNL     1      17.078 -15.483  22.692  1.00  0.00     0.165 HD
HETATM    3  C5  UNL     1      18.022 -13.638  22.520  1.00  0.00     0.319 C 
HETATM    4  O1  UNL     1      18.888 -12.880  23.008  1.00  0.00    -0.247 OA
HETATM    5  N2  UNL     1      17.297 -13.222  21.392  1.00  0.00    -0.331 N 
HETATM    6  C6  UNL     1      16.278 -13.971  20.705  1.00  0.00     0.155 C 
HETATM    7  C7  UNL     1      16.269 -13.749  19.209  1.00  0.00     0.257 C 
HETATM    8  N3  UNL     1      16.254 -12.357  18.829  1.00  0.00    -0.061 N 
HETATM    9  C8  UNL     1      14.941 -12.046  18.298  1.00  0.00     0.268 C 
HETATM   10  C9  UNL     1      14.792 -12.482  16.856  1.00  0.00     0.300 C 
HETATM   11  N4  UNL     1      15.731 -11.801  16.028  1.00  0.00     0.092 N 
HETATM   12  C14 UNL     1      16.887 -11.299  16.701  1.00  0.00     0.300 C 
HETATM   13  C15 UNL     1      17.313 -12.165  17.863  1.00  0.00     0.268 C 
HETATM   14  C16 UNL     1      16.424 -11.478  19.985  1.00  0.00     0.257 C 
HETATM   15  C17 UNL     1      17.583 -11.894  20.838  1.00  0.00     0.155 C 
ENDROOT
BRANCH   1  16
HETATM   16  C4  UNL     1      18.515 -15.375  24.281  1.00  0.00     0.207 C 
BRANCH  16  17
HETATM   17  C2  UNL     1      17.769 -16.620  24.688  1.00  0.00    -0.061 C 
HETATM   18  C1  UNL     1      16.815 -17.070  23.940  1.00  0.00     0.016 C 
HETATM   19  C3  UNL     1      18.138 -17.267  25.962  1.00  0.00     0.045 C 
ENDBRANCH  16  17
BRANCH  16  20
HETATM   20  C18 UNL     1      19.896 -15.706  23.968  1.00  0.00     0.248 C 
HETATM   21  O2  UNL     1      20.153 -16.710  23.262  1.00  0.00    -0.271 OA
HETATM   22  N5  UNL     1      20.963 -14.915  24.437  1.00  0.00    -0.332 N 
HETATM   23  C19 UNL     1      20.928 -13.697  25.211  1.00  0.00     0.147 C 
HETATM   24  C22 UNL     1      22.367 -15.251  24.186  1.00  0.00     0.254 C 
HETATM   25  C20 UNL     1      22.358 -13.412  25.633  1.00  0.00     0.147 C 
HETATM   26  N6  UNL     1      23.155 -14.172  24.701  1.00  0.00    -0.338 N 
HETATM   27  C21 UNL     1      24.486 -13.906  24.348  1.00  0.00     0.185 C 
HETATM   28  N7  UNL     1      25.242 -14.818  23.845  1.00  0.00    -0.374 N 
HETATM   29  N8  UNL     1      25.055 -12.615  24.536  1.00  0.00    -0.064 NA
ATOM     30  H72 UNL     1      24.834 -15.743  23.710  1.00  0.00     0.158 HD
ATOM     31  H71 UNL     1      26.210 -14.625  23.589  1.00  0.00     0.158 HD
ENDBRANCH  16  20
ENDBRANCH   1  16
BRANCH  11  32
HETATM   32  C10 UNL     1      15.160 -10.775  15.212  1.00  0.00     0.277 C 
BRANCH  32  33
HETATM   33  C11 UNL     1      15.005 -11.080  13.753  1.00  0.00     0.014 A 
HETATM   34  C12 UNL     1      16.312 -10.977  12.946  1.00  0.00     0.007 A 
HETATM   35  C13 UNL     1      15.566 -12.273  13.094  1.00  0.00     0.007 A 
ENDBRANCH  32  33
ENDBRANCH  11  32
TORSDOF 5
ENDMDL
MODEL 5
REMARK VINA RESULT: -7.648042876      3.515      9.967
REMARK  5 active torsions:
REMARK  status: ('A' for Active; 'I' for Inactive)
REMARK    1  A    between atoms: C2_2  and  C4_4 
REMARK    2  A    between atoms: C4_4  and  N1_5 
REMARK    3  A    between atoms: C4_4  and  C18_24 
REMARK       I    between atoms: N1_5  and  C5_7 
REMARK       I    between atoms: C5_7  and  N2_9 
REMARK    4  A    between atoms: N4_15  and  C10_16 
REMARK    5  A    between atoms: C10_16  and  C11_17 
REMARK       I    between atoms: C18_24  and  N5_26 
REMARK       I    between atoms: N6_29  and  C21_30 
ROOT
HETATM    1  N1  UNL     1      17.783 -14.791  22.216  1.00  0.00    -0.326 N 
ATOM      2  H1  UNL     1      17.295 -15.513  21.685  1.00  0.00     0.165 HD
HETATM    3  C5  UNL     1      17.818 -13.500  21.693  1.00  0.00     0.319 C 
HETATM    4  O1  UNL     1      18.408 -12.596  22.325  1.00  0.00    -0.247 OA
HETATM    5  N2  UNL     1      17.202 -13.197  20.468  1.00  0.00    -0.331 N 
HETATM    6  C6  UNL     1      16.494 -14.115  19.617  1.00  0.00     0.155 C 
HETATM    7  C7  UNL     1      16.666 -13.827  18.142  1.00  0.00     0.257 C 
HETATM    8  N3  UNL     1      16.400 -12.455  17.783  1.00  0.00    -0.061 N 
HETATM    9  C8  UNL     1      15.149 -12.412  17.052  1.00  0.00     0.268 C 
HETATM   10  C9  UNL     1      15.325 -12.798  15.599  1.00  0.00     0.300 C 
HETATM   11  N4  UNL     1      16.205 -11.889  14.942  1.00  0.00     0.092 N 
HETATM   12  C14 UNL     1      17.101 -11.181  15.800  1.00  0.00     0.300 C 
HETATM   13  C15 UNL     1      17.526 -11.989  17.004  1.00  0.00     0.268 C 
HETATM   14  C16 UNL     1      16.190 -11.618  18.963  1.00  0.00     0.257 C 
HETATM   15  C17 UNL     1      17.266 -11.812  19.986  1.00  0.00     0.155 C 
ENDROOT
BRANCH   1  16
HETATM   16  C4  UNL     1      18.409 -15.172  23.487  1.00  0.00     0.207 C 
BRANCH  16  17
HETATM   17  C2  UNL     1      17.632 -16.381  23.941  1.00  0.00    -0.061 C 
HETATM   18  C1  UNL     1      16.799 -16.950  23.133  1.00  0.00     0.016 C 
HETATM   19  C3  UNL     1      17.830 -16.855  25.325  1.00  0.00     0.045 C 
ENDBRANCH  16  17
BRANCH  16  20
HETATM   20  C18 UNL     1      19.811 -15.519  23.318  1.00  0.00     0.248 C 
HETATM   21  O2  UNL     1      20.130 -16.507  22.615  1.00  0.00    -0.271 OA
HETATM   22  N5  UNL     1      20.832 -14.761  23.925  1.00  0.00    -0.332 N 
HETATM   23  C19 UNL     1      20.729 -13.565  24.726  1.00  0.00     0.147 C 
HETATM   24  C22 UNL     1      22.249 -15.116  23.820  1.00  0.00     0.254 C 
HETATM   25  C20 UNL     1      22.108 -13.318  25.312  1.00  0.00     0.147 C 
HETATM   26  N6  UNL     1      22.992 -14.065  24.451  1.00  0.00    -0.338 N 
HETATM   27  C21 UNL     1      24.357 -13.814  24.255  1.00  0.00     0.185 C 
HETATM   28  N7  UNL     1      25.150 -14.725  23.812  1.00  0.00    -0.374 N 
HETATM   29  N8  UNL     1      24.921 -12.540  24.543  1.00  0.00    -0.064 NA
ATOM     30  H72 UNL     1      24.746 -15.639  23.605  1.00  0.00     0.158 HD
ATOM     31  H71 UNL     1      26.143 -14.543  23.669  1.00  0.00     0.158 HD
ENDBRANCH  16  20
ENDBRANCH   1  16
BRANCH  11  32
HETATM   32  C10 UNL     1      15.552 -10.973  14.059  1.00  0.00     0.277 C 
BRANCH  32  33
HETATM   33  C11 UNL     1      14.867 -11.561  12.862  1.00  0.00     0.014 A 
HETATM   34  C12 UNL     1      13.751 -10.677  12.278  1.00  0.00     0.007 A 
HETATM   35  C13 UNL     1      14.986 -11.022  11.495  1.00  0.00     0.007 A 
ENDBRANCH  32  33
ENDBRANCH  11  32
TORSDOF 5
ENDMDL
