MODEL 1
REMARK VINA RESULT: -8.255768689      0.000      0.000
REMARK  5 active torsions:
REMARK  status: ('A' for Active; 'I' for Inactive)
REMARK    1  A    between atoms: N1_2  and  C2_3 
REMARK    2  A    between atoms: C2_3  and  C3_4 
REMARK       I    between atoms: N3_9  and  C6_10 
REMARK    3  A    between atoms: C6_10  and  C7_12 
REMARK    4  A    between atoms: N4_14  and  C10_16 
REMARK    5  A    between atoms: C10_16  and  C11_17 
REMARK       I    between atoms: N5_27  and  C21_28 
ROOT
HETATM    1  C7  UNL     1      17.069 -13.130  18.942  1.00  0.00     0.205 C 
HETATM    2  C8  UNL     1      17.840 -12.945  20.225  1.00  0.00     0.272 C 
HETATM    3  N4  UNL     1      17.743 -14.128  21.041  1.00  0.00    -0.064 N 
HETATM    4  C9  UNL     1      16.835 -13.925  22.151  1.00  0.00     0.273 C 
HETATM    5  C19 UNL     1      17.428 -15.311  20.270  1.00  0.00     0.257 C 
HETATM    6  C20 UNL     1      16.112 -15.291  19.575  1.00  0.00     0.154 C 
HETATM    7  N5  UNL     1      15.861 -13.897  19.169  1.00  0.00    -0.339 N 
HETATM    8  C21 UNL     1      14.553 -13.372  19.039  1.00  0.00     0.184 C 
HETATM    9  N6  UNL     1      13.593 -14.114  18.619  1.00  0.00    -0.374 N 
ATOM     10  H61 UNL     1      12.651 -13.734  18.525  1.00  0.00     0.158 HD
ATOM     11  H62 UNL     1      13.781 -15.087  18.379  1.00  0.00     0.158 HD
HETATM   12  N7  UNL     1      14.294 -12.025  19.371  1.00  0.00    -0.064 NA
ENDROOT
BRANCH   1  13
HETATM   13  C6  UNL     1      16.842 -11.911  18.175  1.00  0.00     0.244 C 
HETATM   14  N3  UNL     1      16.651 -11.951  16.777  1.00  0.00    -0.347 N 
HETATM   15  C5  UNL     1      16.383 -10.697  16.057  1.00  0.00     0.154 C 
HETATM   16  C22 UNL     1      16.727 -13.122  15.943  1.00  0.00     0.154 C 
HETATM   17  C4  UNL     1      15.600 -11.009  14.825  1.00  0.00     0.257 C 
HETATM   18  N1  UNL     1      16.319 -11.864  13.881  1.00  0.00    -0.060 N 
HETATM   19  C1  UNL     1      17.060 -10.974  13.013  1.00  0.00     0.273 C 
HETATM   20  C23 UNL     1      17.275 -12.706  14.574  1.00  0.00     0.257 C 
HETATM   21  O2  UNL     1      16.819 -10.773  18.775  1.00  0.00    -0.271 OA
BRANCH  18  22
HETATM   22  C2  UNL     1      15.334 -12.582  13.135  1.00  0.00     0.336 C 
BRANCH  22  23
HETATM   23  C3  UNL     1      14.699 -11.877  12.028  1.00  0.00     0.257 C 
HETATM   24  N2  UNL     1      13.677 -10.913  12.131  1.00  0.00    -0.061 NA
HETATM   25  O1  UNL     1      15.098 -12.149  10.855  1.00  0.00    -0.275 OA
ENDBRANCH  22  23
ENDBRANCH  18  22
ENDBRANCH   1  13
BRANCH   3  26
HETATM   26  C10 UNL     1      19.054 -14.440  21.656  1.00  0.00     0.265 C 
BRANCH  26  27
HETATM   27  C11 UNL     1      19.173 -13.863  23.019  1.00  0.00     0.003 C 
HETATM   28  C12 UNL     1      20.303 -13.633  23.659  1.00  0.00    -0.082 C 
HETATM   29  C13 UNL     1      21.528 -13.991  22.926  1.00  0.00     0.034 C 
HETATM   30  C18 UNL     1      20.111 -13.051  25.008  1.00  0.00     0.034 C 
HETATM   31  C14 UNL     1      22.800 -13.516  23.592  1.00  0.00     0.004 C 
HETATM   32  C15 UNL     1      23.128 -14.265  24.836  1.00  0.00     0.000 C 
HETATM   33  C16 UNL     1      21.999 -14.354  25.813  1.00  0.00     0.000 C 
HETATM   34  C17 UNL     1      21.335 -12.983  25.850  1.00  0.00     0.004 C 
ENDBRANCH  26  27
ENDBRANCH   3  26
TORSDOF 5
ENDMDL
MODEL 2
REMARK VINA RESULT: -7.936522815      1.759      1.971
REMARK  5 active torsions:
REMARK  status: ('A' for Active; 'I' for Inactive)
REMARK    1  A    between atoms: N1_2  and  C2_3 
REMARK    2  A    between atoms: C2_3  and  C3_4 
REMARK       I    between atoms: N3_9  and  C6_10 
REMARK    3  A    between atoms: C6_10  and  C7_12 
REMARK    4  A    between atoms: N4_14  and  C10_16 
REMARK    5  A    between atoms: C10_16  and  C11_17 
REMARK       I    between atoms: N5_27  and  C21_28 
ROOT
HETATM    1  C7  UNL     1      17.659 -13.433  19.757  1.00  0.00     0.205 C 
HETATM    2  C8  UNL     1      18.526 -13.640  20.975  1.00  0.00     0.272 C 
HETATM    3  N4  UNL     1      17.746 -14.182  22.057  1.00  0.00    -0.064 N 
HETATM    4  C9  UNL     1      17.465 -13.173  23.056  1.00  0.00     0.273 C 
HETATM    5  C19 UNL     1      16.555 -14.863  21.598  1.00  0.00     0.257 C 
HETATM    6  C20 UNL     1      15.566 -14.010  20.884  1.00  0.00     0.154 C 
HETATM    7  N5  UNL     1      16.330 -12.997  20.136  1.00  0.00    -0.339 N 
HETATM    8  C21 UNL     1      15.804 -11.717  19.843  1.00  0.00     0.184 C 
HETATM    9  N6  UNL     1      14.552 -11.569  19.596  1.00  0.00    -0.374 N 
ATOM     10  H61 UNL     1      14.173 -10.646  19.384  1.00  0.00     0.158 HD
ATOM     11  H62 UNL     1      13.939 -12.385  19.612  1.00  0.00     0.158 HD
HETATM   12  N7  UNL     1      16.652 -10.589  19.821  1.00  0.00    -0.064 NA
ENDROOT
BRANCH   1  13
HETATM   13  C6  UNL     1      18.255 -12.620  18.705  1.00  0.00     0.244 C 
HETATM   14  N3  UNL     1      17.648 -12.507  17.435  1.00  0.00    -0.347 N 
HETATM   15  C5  UNL     1      18.267 -11.639  16.422  1.00  0.00     0.154 C 
HETATM   16  C22 UNL     1      16.467 -13.202  16.995  1.00  0.00     0.154 C 
HETATM   17  C4  UNL     1      17.206 -11.162  15.487  1.00  0.00     0.257 C 
HETATM   18  N1  UNL     1      16.559 -12.242  14.743  1.00  0.00    -0.060 N 
HETATM   19  C1  UNL     1      17.339 -12.427  13.538  1.00  0.00     0.273 C 
HETATM   20  C23 UNL     1      16.602 -13.482  15.494  1.00  0.00     0.257 C 
HETATM   21  O2  UNL     1      19.356 -11.991  18.926  1.00  0.00    -0.271 OA
BRANCH  18  22
HETATM   22  C2  UNL     1      15.241 -11.793  14.419  1.00  0.00     0.336 C 
BRANCH  22  23
HETATM   23  C3  UNL     1      14.724 -10.659  15.174  1.00  0.00     0.257 C 
HETATM   24  N2  UNL     1      14.302 -10.674  16.518  1.00  0.00    -0.061 NA
HETATM   25  O1  UNL     1      14.644  -9.544  14.573  1.00  0.00    -0.275 OA
ENDBRANCH  22  23
ENDBRANCH  18  22
ENDBRANCH   1  13
BRANCH   3  26
HETATM   26  C10 UNL     1      18.509 -15.235  22.766  1.00  0.00     0.265 C 
BRANCH  26  27
HETATM   27  C11 UNL     1      19.014 -14.760  24.079  1.00  0.00     0.003 C 
HETATM   28  C12 UNL     1      20.233 -14.321  24.320  1.00  0.00    -0.082 C 
HETATM   29  C13 UNL     1      21.143 -14.315  23.162  1.00  0.00     0.034 C 
HETATM   30  C18 UNL     1      20.448 -13.914  25.729  1.00  0.00     0.034 C 
HETATM   31  C14 UNL     1      22.454 -13.607  23.419  1.00  0.00     0.004 C 
HETATM   32  C15 UNL     1      23.358 -14.356  24.334  1.00  0.00     0.000 C 
HETATM   33  C16 UNL     1      22.713 -14.791  25.611  1.00  0.00     0.000 C 
HETATM   34  C17 UNL     1      21.860 -13.626  26.097  1.00  0.00     0.004 C 
ENDBRANCH  26  27
ENDBRANCH   3  26
TORSDOF 5
ENDMDL
MODEL 3
REMARK VINA RESULT: -7.820813216      3.324      6.072
REMARK  5 active torsions:
REMARK  status: ('A' for Active; 'I' for Inactive)
REMARK    1  A    between atoms: N1_2  and  C2_3 
REMARK    2  A    between atoms: C2_3  and  C3_4 
REMARK       I    between atoms: N3_9  and  C6_10 
REMARK    3  A    between atoms: C6_10  and  C7_12 
REMARK    4  A    between atoms: N4_14  and  C10_16 
REMARK    5  A    between atoms: C10_16  and  C11_17 
REMARK       I    between atoms: N5_27  and  C21_28 
ROOT
HETATM    1  C7  UNL     1      14.444 -13.248  20.414  1.00  0.00     0.205 C 
HETATM    2  C8  UNL     1      15.469 -14.133  21.079  1.00  0.00     0.272 C 
HETATM    3  N4  UNL     1      16.710 -13.422  21.246  1.00  0.00    -0.064 N 
HETATM    4  C9  UNL     1      17.699 -13.862  20.283  1.00  0.00     0.273 C 
HETATM    5  C19 UNL     1      16.532 -11.987  21.250  1.00  0.00     0.257 C 
HETATM    6  C20 UNL     1      15.995 -11.404  19.990  1.00  0.00     0.154 C 
HETATM    7  N5  UNL     1      15.063 -12.393  19.421  1.00  0.00    -0.339 N 
HETATM    8  C21 UNL     1      14.825 -12.496  18.030  1.00  0.00     0.184 C 
HETATM    9  N6  UNL     1      14.829 -11.445  17.291  1.00  0.00    -0.374 N 
ATOM     10  H61 UNL     1      14.657 -11.519  16.288  1.00  0.00     0.158 HD
ATOM     11  H62 UNL     1      15.006 -10.534  17.715  1.00  0.00     0.158 HD
HETATM   12  N7  UNL     1      14.581 -13.755  17.443  1.00  0.00    -0.064 NA
ENDROOT
BRANCH   1  13
HETATM   13  C6  UNL     1      13.256 -13.936  19.923  1.00  0.00     0.244 C 
HETATM   14  N3  UNL     1      13.260 -15.329  19.696  1.00  0.00    -0.347 N 
HETATM   15  C5  UNL     1      12.022 -15.981  19.241  1.00  0.00     0.154 C 
HETATM   16  C22 UNL     1      14.392 -16.208  19.829  1.00  0.00     0.154 C 
HETATM   17  C4  UNL     1      12.041 -17.407  19.685  1.00  0.00     0.257 C 
HETATM   18  N1  UNL     1      13.136 -18.181  19.102  1.00  0.00    -0.060 N 
HETATM   19  C1  UNL     1      12.631 -18.723  17.858  1.00  0.00     0.273 C 
HETATM   20  C23 UNL     1      14.263 -17.325  18.788  1.00  0.00     0.257 C 
HETATM   21  O2  UNL     1      12.182 -13.269  19.687  1.00  0.00    -0.271 OA
BRANCH  18  22
HETATM   22  C2  UNL     1      13.434 -19.236  20.019  1.00  0.00     0.336 C 
BRANCH  22  23
HETATM   23  C3  UNL     1      12.974 -19.069  21.392  1.00  0.00     0.257 C 
HETATM   24  N2  UNL     1      13.615 -18.323  22.401  1.00  0.00    -0.061 NA
HETATM   25  O1  UNL     1      11.892 -19.644  21.721  1.00  0.00    -0.275 OA
ENDBRANCH  22  23
ENDBRANCH  18  22
ENDBRANCH   1  13
BRANCH   3  26
HETATM   26  C10 UNL     1      17.297 -13.714  22.574  1.00  0.00     0.265 C 
BRANCH  26  27
HETATM   27  C11 UNL     1      18.776 -13.576  22.565  1.00  0.00     0.003 C 
HETATM   28  C12 UNL     1      19.571 -13.768  23.598  1.00  0.00    -0.082 C 
HETATM   29  C13 UNL     1      18.899 -14.153  24.850  1.00  0.00     0.034 C 
HETATM   30  C18 UNL     1      21.005 -13.557  23.288  1.00  0.00     0.034 C 
HETATM   31  C14 UNL     1      19.848 -14.577  25.949  1.00  0.00     0.004 C 
HETATM   32  C15 UNL     1      20.627 -13.445  26.521  1.00  0.00     0.000 C 
HETATM   33  C16 UNL     1      21.316 -12.597  25.500  1.00  0.00     0.000 C 
HETATM   34  C17 UNL     1      21.913 -13.544  24.467  1.00  0.00     0.004 C 
ENDBRANCH  26  27
ENDBRANCH   3  26
TORSDOF 5
ENDMDL
MODEL 4
REMARK VINA RESULT: -7.739700137      3.430      5.673
REMARK  5 active torsions:
REMARK  status: ('A' for Active; 'I' for Inactive)
REMARK    1  A    between atoms: N1_2  and  C2_3 
REMARK    2  A    between atoms: C2_3  and  C3_4 
REMARK       I    between atoms: N3_9  and  C6_10 
REMARK    3  A    between atoms: C6_10  and  C7_12 
REMARK    4  A    between atoms: N4_14  and  C10_16 
REMARK    5  A    between atoms: C10_16  and  C11_17 
REMARK       I    between atoms: N5_27  and  C21_28 
ROOT
HETATM    1  C7  UNL     1      16.112 -14.182  19.824  1.00  0.00     0.205 C 
HETATM    2  C8  UNL     1      17.553 -13.745  19.733  1.00  0.00     0.272 C 
HETATM    3  N4  UNL     1      17.884 -12.879  20.836  1.00  0.00    -0.064 N 
HETATM    4  C9  UNL     1      17.967 -11.498  20.411  1.00  0.00     0.273 C 
HETATM    5  C19 UNL     1      17.004 -13.064  21.970  1.00  0.00     0.257 C 
HETATM    6  C20 UNL     1      15.571 -12.744  21.728  1.00  0.00     0.154 C 
HETATM    7  N5  UNL     1      15.277 -13.112  20.332  1.00  0.00    -0.339 N 
HETATM    8  C21 UNL     1      14.282 -12.456  19.570  1.00  0.00     0.184 C 
HETATM    9  N6  UNL     1      13.206 -12.034  20.131  1.00  0.00    -0.374 N 
ATOM     10  H61 UNL     1      12.489 -11.561  19.581  1.00  0.00     0.158 HD
ATOM     11  H62 UNL     1      13.074 -12.177  21.132  1.00  0.00     0.158 HD
HETATM   12  N7  UNL     1      14.464 -12.258  18.185  1.00  0.00    -0.064 NA
ENDROOT
BRANCH   1  13
HETATM   13  C6  UNL     1      15.579 -14.809  18.621  1.00  0.00     0.244 C 
HETATM   14  N3  UNL     1      14.687 -15.901  18.698  1.00  0.00    -0.347 N 
HETATM   15  C5  UNL     1      14.144 -16.468  17.455  1.00  0.00     0.154 C 
HETATM   16  C22 UNL     1      14.264 -16.567  19.902  1.00  0.00     0.154 C 
HETATM   17  C4  UNL     1      12.822 -17.094  17.751  1.00  0.00     0.257 C 
HETATM   18  N1  UNL     1      12.905 -18.208  18.694  1.00  0.00    -0.060 N 
HETATM   19  C1  UNL     1      13.129 -19.396  17.898  1.00  0.00     0.273 C 
HETATM   20  C23 UNL     1      14.041 -18.049  19.582  1.00  0.00     0.257 C 
HETATM   21  O2  UNL     1      15.924 -14.367  17.462  1.00  0.00    -0.271 OA
BRANCH  18  22
HETATM   22  C2  UNL     1      11.643 -18.286  19.361  1.00  0.00     0.336 C 
BRANCH  22  23
HETATM   23  C3  UNL     1      11.426 -19.430  20.237  1.00  0.00     0.257 C 
HETATM   24  N2  UNL     1      11.887 -19.565  21.561  1.00  0.00    -0.061 NA
HETATM   25  O1  UNL     1      10.758 -20.404  19.773  1.00  0.00    -0.275 OA
ENDBRANCH  22  23
ENDBRANCH  18  22
ENDBRANCH   1  13
BRANCH   3  26
HETATM   26  C10 UNL     1      19.226 -13.210  21.367  1.00  0.00     0.265 C 
BRANCH  26  27
HETATM   27  C11 UNL     1      19.271 -13.112  22.848  1.00  0.00     0.003 C 
HETATM   28  C12 UNL     1      20.337 -13.309  23.599  1.00  0.00    -0.082 C 
HETATM   29  C13 UNL     1      21.569 -13.651  22.868  1.00  0.00     0.034 C 
HETATM   30  C18 UNL     1      20.079 -13.142  25.049  1.00  0.00     0.034 C 
HETATM   31  C14 UNL     1      22.810 -13.654  23.732  1.00  0.00     0.004 C 
HETATM   32  C15 UNL     1      22.861 -14.796  24.685  1.00  0.00     0.000 C 
HETATM   33  C16 UNL     1      21.623 -14.963  25.507  1.00  0.00     0.000 C 
HETATM   34  C17 UNL     1      21.188 -13.570  25.943  1.00  0.00     0.004 C 
ENDBRANCH  26  27
ENDBRANCH   3  26
TORSDOF 5
ENDMDL
MODEL 5
REMARK VINA RESULT: -7.738295713      1.634      1.811
REMARK  5 active torsions:
REMARK  status: ('A' for Active; 'I' for Inactive)
REMARK    1  A    between atoms: N1_2  and  C2_3 
REMARK    2  A    between atoms: C2_3  and  C3_4 
REMARK       I    between atoms: N3_9  and  C6_10 
REMARK    3  A    between atoms: C6_10  and  C7_12 
REMARK    4  A    between atoms: N4_14  and  C10_16 
REMARK    5  A    between atoms: C10_16  and  C11_17 
REMARK       I    between atoms: N5_27  and  C21_28 
ROOT
HETATM    1  C7  UNL     1      17.241 -12.708  18.073  1.00  0.00     0.205 C 
HETATM    2  C8  UNL     1      18.027 -12.192  19.252  1.00  0.00     0.272 C 
HETATM    3  N4  UNL     1      17.925 -13.106  20.360  1.00  0.00    -0.064 N 
HETATM    4  C9  UNL     1      17.031 -12.595  21.379  1.00  0.00     0.273 C 
HETATM    5  C19 UNL     1      17.589 -14.449  19.943  1.00  0.00     0.257 C 
HETATM    6  C20 UNL     1      16.266 -14.602  19.277  1.00  0.00     0.154 C 
HETATM    7  N5  UNL     1      16.027 -13.368  18.509  1.00  0.00    -0.339 N 
HETATM    8  C21 UNL     1      14.724 -12.880  18.249  1.00  0.00     0.184 C 
HETATM    9  N6  UNL     1      13.751 -13.695  18.053  1.00  0.00    -0.374 N 
ATOM     10  H61 UNL     1      12.812 -13.343  17.866  1.00  0.00     0.158 HD
ATOM     11  H62 UNL     1      13.925 -14.700  18.087  1.00  0.00     0.158 HD
HETATM   12  N7  UNL     1      14.483 -11.490  18.203  1.00  0.00    -0.064 NA
ENDROOT
BRANCH   1  13
HETATM   13  C6  UNL     1      17.021 -11.742  17.004  1.00  0.00     0.244 C 
HETATM   14  N3  UNL     1      16.903 -12.153  15.658  1.00  0.00    -0.347 N 
HETATM   15  C5  UNL     1      16.638 -11.141  14.624  1.00  0.00     0.154 C 
HETATM   16  C22 UNL     1      17.055 -13.496  15.165  1.00  0.00     0.154 C 
HETATM   17  C4  UNL     1      15.929 -11.796  13.485  1.00  0.00     0.257 C 
HETATM   18  N1  UNL     1      16.719 -12.837  12.830  1.00  0.00    -0.060 N 
HETATM   19  C1  UNL     1      17.479 -12.175  11.791  1.00  0.00     0.273 C 
HETATM   20  C23 UNL     1      17.662 -13.429  13.760  1.00  0.00     0.257 C 
HETATM   21  O2  UNL     1      16.934 -10.488  17.283  1.00  0.00    -0.271 OA
BRANCH  18  22
HETATM   22  C2  UNL     1      15.795 -13.764  12.257  1.00  0.00     0.336 C 
BRANCH  22  23
HETATM   23  C3  UNL     1      16.292 -15.104  11.973  1.00  0.00     0.257 C 
HETATM   24  N2  UNL     1      17.192 -15.460  10.950  1.00  0.00    -0.061 NA
HETATM   25  O1  UNL     1      15.881 -16.049  12.714  1.00  0.00    -0.275 OA
ENDBRANCH  22  23
ENDBRANCH  18  22
ENDBRANCH   1  13
BRANCH   3  26
HETATM   26  C10 UNL     1      19.238 -13.256  21.028  1.00  0.00     0.265 C 
BRANCH  26  27
HETATM   27  C11 UNL     1      19.104 -13.286  22.506  1.00  0.00     0.003 C 
HETATM   28  C12 UNL     1      20.089 -13.467  23.364  1.00  0.00    -0.082 C 
HETATM   29  C13 UNL     1      21.422 -13.649  22.765  1.00  0.00     0.034 C 
HETATM   30  C18 UNL     1      19.652 -13.448  24.780  1.00  0.00     0.034 C 
HETATM   31  C14 UNL     1      22.551 -13.635  23.770  1.00  0.00     0.004 C 
HETATM   32  C15 UNL     1      22.589 -14.849  24.630  1.00  0.00     0.000 C 
HETATM   33  C16 UNL     1      21.283 -15.181  25.279  1.00  0.00     0.000 C 
HETATM   34  C17 UNL     1      20.684 -13.868  25.766  1.00  0.00     0.004 C 
ENDBRANCH  26  27
ENDBRANCH   3  26
TORSDOF 5
ENDMDL
