MODEL 1
REMARK VINA RESULT: -8.793617588      0.000      0.000
REMARK  5 active torsions:
REMARK  status: ('A' for Active; 'I' for Inactive)
REMARK    1  A    between atoms: C2_2  and  N1_3 
REMARK    2  A    between atoms: N2_8  and  C6_9 
REMARK    3  A    between atoms: C6_9  and  C7_10 
REMARK       I    between atoms: C7_10  and  N3_12 
REMARK    4  A    between atoms: N3_12  and  C8_14 
REMARK    5  A    between atoms: C19_26  and  O3_27 
ROOT
HETATM    1  C8  UNL     1      18.442 -12.866  19.908  1.00  0.00     0.039 C 
HETATM    2  C9  UNL     1      17.857 -11.523  20.312  1.00  0.00     0.039 C 
HETATM    3  C10 UNL     1      19.967 -12.738  19.780  1.00  0.00     0.124 C 
HETATM    4  C11 UNL     1      20.628 -13.016  20.984  1.00  0.00    -0.102 C 
HETATM    5  C12 UNL     1      21.119 -13.249  21.977  1.00  0.00    -0.079 C 
HETATM    6  C13 UNL     1      21.671 -13.545  23.240  1.00  0.00     0.330 C 
HETATM    7  N4  UNL     1      20.729 -14.194  24.148  1.00  0.00    -0.055 N 
HETATM    8  C14 UNL     1      20.410 -13.326  25.220  1.00  0.00     0.238 C 
HETATM    9  C15 UNL     1      21.714 -13.149  25.969  1.00  0.00     0.030 C 
HETATM   10  C16 UNL     1      22.534 -14.366  25.660  1.00  0.00     0.030 C 
HETATM   11  C17 UNL     1      21.557 -15.198  24.859  1.00  0.00     0.238 C 
HETATM   12  C18 UNL     1      19.690 -14.879  23.491  1.00  0.00     0.270 C 
HETATM   13  C19 UNL     1      18.327 -14.373  23.417  1.00  0.00     0.144 C 
HETATM   14  C20 UNL     1      17.917 -13.450  22.314  1.00  0.00     0.036 C 
HETATM   15  C21 UNL     1      18.142 -13.939  20.932  1.00  0.00     0.034 C 
ENDROOT
BRANCH   1  16
HETATM   16  N3  UNL     1      17.899 -13.257  18.664  1.00  0.00    -0.350 N 
HETATM   17  C7  UNL     1      16.544 -13.531  18.342  1.00  0.00     0.244 C 
HETATM   18  O2  UNL     1      15.719 -13.409  19.280  1.00  0.00    -0.272 OA
ATOM     19  H3  UNL     1      18.567 -13.355  17.899  1.00  0.00     0.163 HD
BRANCH  17  20
HETATM   20  C6  UNL     1      16.089 -13.933  17.019  1.00  0.00     0.342 C 
BRANCH  20  21
HETATM   21  N2  UNL     1      15.997 -12.896  16.023  1.00  0.00    -0.035 N 
HETATM   22  C5  UNL     1      15.158 -11.782  16.413  1.00  0.00     0.405 C 
HETATM   23  O1  UNL     1      15.718 -10.536  16.115  1.00  0.00    -0.362 OA
HETATM   24  C4  UNL     1      15.414 -10.137  14.815  1.00  0.00     0.198 C 
HETATM   25  C3  UNL     1      16.586 -10.410  13.953  1.00  0.00     0.263 C 
HETATM   26  N1  UNL     1      16.821 -11.777  13.598  1.00  0.00    -0.062 N 
HETATM   27  C23 UNL     1      17.835 -12.398  14.442  1.00  0.00     0.265 C 
HETATM   28  C25 UNL     1      15.689 -12.635  13.584  1.00  0.00     0.265 C 
HETATM   29  C22 UNL     1      17.354 -12.399  15.860  1.00  0.00     0.268 C 
HETATM   30  C24 UNL     1      15.479 -13.472  14.811  1.00  0.00     0.268 C 
BRANCH  26  31
HETATM   31  C2  UNL     1      17.421 -11.734  12.255  1.00  0.00     0.233 C 
HETATM   32  C1  UNL     1      16.631 -10.893  11.300  1.00  0.00     0.035 C 
ENDBRANCH  26  31
ENDBRANCH  20  21
ENDBRANCH  17  20
ENDBRANCH   1  16
BRANCH  13  33
HETATM   33  O3  UNL     1      17.782 -13.854  24.588  1.00  0.00    -0.394 OA
ATOM     34  H3  UNL     1      17.008 -13.311  24.500  1.00  0.00     0.210 HD
ENDBRANCH  13  33
TORSDOF 5
ENDMDL
MODEL 2
REMARK VINA RESULT: -8.669046526      1.729      8.967
REMARK  5 active torsions:
REMARK  status: ('A' for Active; 'I' for Inactive)
REMARK    1  A    between atoms: C2_2  and  N1_3 
REMARK    2  A    between atoms: N2_8  and  C6_9 
REMARK    3  A    between atoms: C6_9  and  C7_10 
REMARK       I    between atoms: C7_10  and  N3_12 
REMARK    4  A    between atoms: N3_12  and  C8_14 
REMARK    5  A    between atoms: C19_26  and  O3_27 
ROOT
HETATM    1  C8  UNL     1      15.441 -14.251  17.768  1.00  0.00     0.039 C 
HETATM    2  C9  UNL     1      13.932 -14.303  17.939  1.00  0.00     0.039 C 
HETATM    3  C10 UNL     1      15.851 -15.151  16.595  1.00  0.00     0.124 C 
HETATM    4  C11 UNL     1      15.870 -14.462  15.374  1.00  0.00    -0.102 C 
HETATM    5  C12 UNL     1      15.872 -13.865  14.412  1.00  0.00    -0.079 C 
HETATM    6  C13 UNL     1      15.852 -13.071  13.248  1.00  0.00     0.330 C 
HETATM    7  N4  UNL     1      15.803 -11.637  13.524  1.00  0.00    -0.055 N 
HETATM    8  C14 UNL     1      14.555 -11.106  13.117  1.00  0.00     0.238 C 
HETATM    9  C15 UNL     1      14.538 -11.280  11.613  1.00  0.00     0.030 C 
HETATM   10  C16 UNL     1      15.975 -11.332  11.190  1.00  0.00     0.030 C 
HETATM   11  C17 UNL     1      16.689 -11.047  12.493  1.00  0.00     0.238 C 
HETATM   12  C18 UNL     1      16.316 -11.285  14.787  1.00  0.00     0.270 C 
HETATM   13  C19 UNL     1      15.472 -10.911  15.911  1.00  0.00     0.144 C 
HETATM   14  C20 UNL     1      14.927 -11.954  16.835  1.00  0.00     0.036 C 
HETATM   15  C21 UNL     1      15.924 -12.846  17.477  1.00  0.00     0.034 C 
ENDROOT
BRANCH   1  16
HETATM   16  N3  UNL     1      16.061 -14.710  18.951  1.00  0.00    -0.350 N 
HETATM   17  C7  UNL     1      15.815 -14.307  20.290  1.00  0.00     0.244 C 
HETATM   18  O2  UNL     1      14.930 -13.430  20.446  1.00  0.00    -0.272 OA
ATOM     19  H3  UNL     1      16.779 -15.425  18.827  1.00  0.00     0.163 HD
BRANCH  17  20
HETATM   20  C6  UNL     1      16.519 -14.846  21.443  1.00  0.00     0.342 C 
BRANCH  20  21
HETATM   21  N2  UNL     1      17.766 -14.216  21.793  1.00  0.00    -0.035 N 
HETATM   22  C5  UNL     1      18.130 -14.371  23.186  1.00  0.00     0.405 C 
HETATM   23  O1  UNL     1      19.477 -14.698  23.373  1.00  0.00    -0.362 OA
HETATM   24  C4  UNL     1      20.277 -13.559  23.428  1.00  0.00     0.198 C 
HETATM   25  C3  UNL     1      20.930 -13.379  22.112  1.00  0.00     0.263 C 
HETATM   26  N1  UNL     1      20.109 -12.886  21.047  1.00  0.00    -0.062 N 
HETATM   27  C23 UNL     1      19.628 -13.958  20.183  1.00  0.00     0.265 C 
HETATM   28  C25 UNL     1      18.988 -12.098  21.419  1.00  0.00     0.265 C 
HETATM   29  C22 UNL     1      18.775 -14.887  20.989  1.00  0.00     0.268 C 
HETATM   30  C24 UNL     1      17.670 -12.813  21.486  1.00  0.00     0.268 C 
BRANCH  26  31
HETATM   31  C2  UNL     1      21.008 -12.090  20.197  1.00  0.00     0.233 C 
HETATM   32  C1  UNL     1      20.687 -12.222  18.739  1.00  0.00     0.035 C 
ENDBRANCH  26  31
ENDBRANCH  20  21
ENDBRANCH  17  20
ENDBRANCH   1  16
BRANCH  13  33
HETATM   33  O3  UNL     1      14.424 -10.032  15.650  1.00  0.00    -0.394 OA
ATOM     34  H3  UNL     1      14.610  -9.104  15.730  1.00  0.00     0.210 HD
ENDBRANCH  13  33
TORSDOF 5
ENDMDL
MODEL 3
REMARK VINA RESULT: -8.425675062      3.615      5.259
REMARK  5 active torsions:
REMARK  status: ('A' for Active; 'I' for Inactive)
REMARK    1  A    between atoms: C2_2  and  N1_3 
REMARK    2  A    between atoms: N2_8  and  C6_9 
REMARK    3  A    between atoms: C6_9  and  C7_10 
REMARK       I    between atoms: C7_10  and  N3_12 
REMARK    4  A    between atoms: N3_12  and  C8_14 
REMARK    5  A    between atoms: C19_26  and  O3_27 
ROOT
HETATM    1  C8  UNL     1      19.682 -13.739  21.101  1.00  0.00     0.039 C 
HETATM    2  C9  UNL     1      20.814 -12.767  20.814  1.00  0.00     0.039 C 
HETATM    3  C10 UNL     1      20.126 -15.160  20.728  1.00  0.00     0.124 C 
HETATM    4  C11 UNL     1      20.731 -15.829  21.802  1.00  0.00    -0.102 C 
HETATM    5  C12 UNL     1      21.212 -16.330  22.696  1.00  0.00    -0.079 C 
HETATM    6  C13 UNL     1      21.804 -16.897  23.842  1.00  0.00     0.330 C 
HETATM    7  N4  UNL     1      21.520 -16.157  25.069  1.00  0.00    -0.055 N 
HETATM    8  C14 UNL     1      22.704 -15.555  25.559  1.00  0.00     0.238 C 
HETATM    9  C15 UNL     1      23.601 -16.719  25.927  1.00  0.00     0.030 C 
HETATM   10  C16 UNL     1      22.684 -17.873  26.198  1.00  0.00     0.030 C 
HETATM   11  C17 UNL     1      21.324 -17.218  26.086  1.00  0.00     0.238 C 
HETATM   12  C18 UNL     1      20.339 -15.393  25.010  1.00  0.00     0.270 C 
HETATM   13  C19 UNL     1      20.336 -13.946  24.860  1.00  0.00     0.144 C 
HETATM   14  C20 UNL     1      20.369 -13.321  23.501  1.00  0.00     0.036 C 
HETATM   15  C21 UNL     1      19.295 -13.733  22.564  1.00  0.00     0.034 C 
ENDROOT
BRANCH   1  16
HETATM   16  N3  UNL     1      18.554 -13.383  20.329  1.00  0.00    -0.350 N 
HETATM   17  C7  UNL     1      17.995 -12.093  20.128  1.00  0.00     0.244 C 
HETATM   18  O2  UNL     1      18.578 -11.144  20.708  1.00  0.00    -0.272 OA
ATOM     19  H3  UNL     1      18.079 -14.152  19.856  1.00  0.00     0.163 HD
BRANCH  17  20
HETATM   20  C6  UNL     1      16.819 -11.836  19.310  1.00  0.00     0.342 C 
BRANCH  20  21
HETATM   21  N2  UNL     1      15.538 -12.057  19.931  1.00  0.00    -0.035 N 
HETATM   22  C5  UNL     1      15.287 -13.439  20.283  1.00  0.00     0.405 C 
HETATM   23  O1  UNL     1      14.730 -13.594  21.556  1.00  0.00    -0.362 OA
HETATM   24  C4  UNL     1      13.342 -13.490  21.522  1.00  0.00     0.198 C 
HETATM   25  C3  UNL     1      12.961 -12.132  21.972  1.00  0.00     0.263 C 
HETATM   26  N1  UNL     1      13.175 -11.062  21.044  1.00  0.00    -0.062 N 
HETATM   27  C23 UNL     1      14.412 -10.340  21.314  1.00  0.00     0.265 C 
HETATM   28  C25 UNL     1      13.168 -11.403  19.666  1.00  0.00     0.265 C 
HETATM   29  C22 UNL     1      15.568 -11.280  21.160  1.00  0.00     0.268 C 
HETATM   30  C24 UNL     1      14.511 -11.608  19.029  1.00  0.00     0.268 C 
BRANCH  26  31
HETATM   31  C2  UNL     1      12.104 -10.090  21.315  1.00  0.00     0.233 C 
HETATM   32  C1  UNL     1      12.066  -9.661  22.750  1.00  0.00     0.035 C 
ENDBRANCH  26  31
ENDBRANCH  20  21
ENDBRANCH  17  20
ENDBRANCH   1  16
BRANCH  13  33
HETATM   33  O3  UNL     1      21.235 -13.228  25.645  1.00  0.00    -0.394 OA
ATOM     34  H3  UNL     1      21.743 -13.720  26.279  1.00  0.00     0.210 HD
ENDBRANCH  13  33
TORSDOF 5
ENDMDL
MODEL 4
REMARK VINA RESULT: -8.213232489      1.623      2.366
REMARK  5 active torsions:
REMARK  status: ('A' for Active; 'I' for Inactive)
REMARK    1  A    between atoms: C2_2  and  N1_3 
REMARK    2  A    between atoms: N2_8  and  C6_9 
REMARK    3  A    between atoms: C6_9  and  C7_10 
REMARK       I    between atoms: C7_10  and  N3_12 
REMARK    4  A    between atoms: N3_12  and  C8_14 
REMARK    5  A    between atoms: C19_26  and  O3_27 
ROOT
HETATM    1  C8  UNL     1      17.342 -12.518  19.260  1.00  0.00     0.039 C 
HETATM    2  C9  UNL     1      16.803 -11.260  19.919  1.00  0.00     0.039 C 
HETATM    3  C10 UNL     1      18.818 -12.310  18.896  1.00  0.00     0.124 C 
HETATM    4  C11 UNL     1      19.683 -12.698  19.929  1.00  0.00    -0.102 C 
HETATM    5  C12 UNL     1      20.342 -13.025  20.790  1.00  0.00    -0.079 C 
HETATM    6  C13 UNL     1      21.108 -13.443  21.896  1.00  0.00     0.330 C 
HETATM    7  N4  UNL     1      20.351 -14.236  22.861  1.00  0.00    -0.055 N 
HETATM    8  C14 UNL     1      20.200 -13.515  24.071  1.00  0.00     0.238 C 
HETATM    9  C15 UNL     1      21.609 -13.370  24.607  1.00  0.00     0.030 C 
HETATM   10  C16 UNL     1      22.391 -14.505  24.018  1.00  0.00     0.030 C 
HETATM   11  C17 UNL     1      21.311 -15.279  23.294  1.00  0.00     0.238 C 
HETATM   12  C18 UNL     1      19.231 -14.884  22.308  1.00  0.00     0.270 C 
HETATM   13  C19 UNL     1      17.864 -14.433  22.525  1.00  0.00     0.144 C 
HETATM   14  C20 UNL     1      17.250 -13.405  21.630  1.00  0.00     0.036 C 
HETATM   15  C21 UNL     1      17.246 -13.717  20.179  1.00  0.00     0.034 C 
ENDROOT
BRANCH   1  16
HETATM   16  N3  UNL     1      16.603 -12.784  18.086  1.00  0.00    -0.350 N 
HETATM   17  C7  UNL     1      16.297 -11.899  17.018  1.00  0.00     0.244 C 
HETATM   18  O2  UNL     1      16.743 -10.730  17.128  1.00  0.00    -0.272 OA
ATOM     19  H3  UNL     1      16.242 -13.733  17.993  1.00  0.00     0.163 HD
BRANCH  17  20
HETATM   20  C6  UNL     1      15.520 -12.276  15.848  1.00  0.00     0.342 C 
BRANCH  20  21
HETATM   21  N2  UNL     1      16.209 -13.025  14.827  1.00  0.00    -0.035 N 
HETATM   22  C5  UNL     1      16.113 -14.460  14.988  1.00  0.00     0.405 C 
HETATM   23  O1  UNL     1      15.844 -15.134  13.793  1.00  0.00    -0.362 OA
HETATM   24  C4  UNL     1      17.013 -15.424  13.094  1.00  0.00     0.198 C 
HETATM   25  C3  UNL     1      17.176 -14.425  12.014  1.00  0.00     0.263 C 
HETATM   26  N1  UNL     1      17.602 -13.115  12.406  1.00  0.00    -0.062 N 
HETATM   27  C23 UNL     1      16.485 -12.184  12.515  1.00  0.00     0.265 C 
HETATM   28  C25 UNL     1      18.358 -13.023  13.604  1.00  0.00     0.265 C 
HETATM   29  C22 UNL     1      15.550 -12.668  13.580  1.00  0.00     0.268 C 
HETATM   30  C24 UNL     1      17.596 -12.642  14.839  1.00  0.00     0.268 C 
BRANCH  26  31
HETATM   31  C2  UNL     1      18.404 -12.612  11.280  1.00  0.00     0.233 C 
HETATM   32  C1  UNL     1      18.179 -11.154  11.019  1.00  0.00     0.035 C 
ENDBRANCH  26  31
ENDBRANCH  20  21
ENDBRANCH  17  20
ENDBRANCH   1  16
BRANCH  13  33
HETATM   33  O3  UNL     1      17.516 -14.079  23.827  1.00  0.00    -0.394 OA
ATOM     34  H3  UNL     1      16.591 -14.095  24.044  1.00  0.00     0.210 HD
ENDBRANCH  13  33
TORSDOF 5
ENDMDL
MODEL 5
REMARK VINA RESULT: -8.184766302      1.497      2.110
REMARK  5 active torsions:
REMARK  status: ('A' for Active; 'I' for Inactive)
REMARK    1  A    between atoms: C2_2  and  N1_3 
REMARK    2  A    between atoms: N2_8  and  C6_9 
REMARK    3  A    between atoms: C6_9  and  C7_10 
REMARK       I    between atoms: C7_10  and  N3_12 
REMARK    4  A    between atoms: N3_12  and  C8_14 
REMARK    5  A    between atoms: C19_26  and  O3_27 
ROOT
HETATM    1  C8  UNL     1      17.385 -12.526  19.081  1.00  0.00     0.039 C 
HETATM    2  C9  UNL     1      16.886 -11.221  19.679  1.00  0.00     0.039 C 
HETATM    3  C10 UNL     1      18.872 -12.387  18.726  1.00  0.00     0.124 C 
HETATM    4  C11 UNL     1      19.710 -12.761  19.786  1.00  0.00    -0.102 C 
HETATM    5  C12 UNL     1      20.348 -13.074  20.668  1.00  0.00    -0.079 C 
HETATM    6  C13 UNL     1      21.087 -13.470  21.800  1.00  0.00     0.330 C 
HETATM    7  N4  UNL     1      20.290 -14.192  22.789  1.00  0.00    -0.055 N 
HETATM    8  C14 UNL     1      20.153 -13.415  23.965  1.00  0.00     0.238 C 
HETATM    9  C15 UNL     1      21.560 -13.297  24.512  1.00  0.00     0.030 C 
HETATM   10  C16 UNL     1      22.307 -14.485  23.982  1.00  0.00     0.030 C 
HETATM   11  C17 UNL     1      21.207 -15.250  23.279  1.00  0.00     0.238 C 
HETATM   12  C18 UNL     1      19.153 -14.823  22.251  1.00  0.00     0.270 C 
HETATM   13  C19 UNL     1      17.802 -14.313  22.432  1.00  0.00     0.144 C 
HETATM   14  C20 UNL     1      17.235 -13.304  21.485  1.00  0.00     0.036 C 
HETATM   15  C21 UNL     1      17.236 -13.679  20.050  1.00  0.00     0.034 C 
ENDROOT
BRANCH   1  16
HETATM   16  N3  UNL     1      16.649 -12.815  17.910  1.00  0.00    -0.350 N 
HETATM   17  C7  UNL     1      16.333 -11.947  16.832  1.00  0.00     0.244 C 
HETATM   18  O2  UNL     1      16.764 -10.772  16.926  1.00  0.00    -0.272 OA
ATOM     19  H3  UNL     1      16.300 -13.770  17.830  1.00  0.00     0.163 HD
BRANCH  17  20
HETATM   20  C6  UNL     1      15.560 -12.349  15.666  1.00  0.00     0.342 C 
BRANCH  20  21
HETATM   21  N2  UNL     1      16.168 -12.128  14.379  1.00  0.00    -0.035 N 
HETATM   22  C5  UNL     1      16.099 -10.755  13.926  1.00  0.00     0.405 C 
HETATM   23  O1  UNL     1      17.298 -10.292  13.377  1.00  0.00    -0.362 OA
HETATM   24  C4  UNL     1      17.391 -10.594  12.021  1.00  0.00     0.198 C 
HETATM   25  C3  UNL     1      18.256 -11.785  11.862  1.00  0.00     0.263 C 
HETATM   26  N1  UNL     1      17.686 -13.049  12.220  1.00  0.00    -0.062 N 
HETATM   27  C23 UNL     1      18.080 -13.470  13.559  1.00  0.00     0.265 C 
HETATM   28  C25 UNL     1      16.273 -13.157  12.133  1.00  0.00     0.265 C 
HETATM   29  C22 UNL     1      17.571 -12.473  14.553  1.00  0.00     0.268 C 
HETATM   30  C24 UNL     1      15.516 -12.974  13.415  1.00  0.00     0.268 C 
BRANCH  26  31
HETATM   31  C2  UNL     1      18.310 -14.028  11.317  1.00  0.00     0.233 C 
HETATM   32  C1  UNL     1      19.317 -14.893  12.013  1.00  0.00     0.035 C 
ENDBRANCH  26  31
ENDBRANCH  20  21
ENDBRANCH  17  20
ENDBRANCH   1  16
BRANCH  13  33
HETATM   33  O3  UNL     1      17.453 -13.891  23.713  1.00  0.00    -0.394 OA
ATOM     34  H3  UNL     1      16.677 -13.348  23.791  1.00  0.00     0.210 HD
ENDBRANCH  13  33
TORSDOF 5
ENDMDL
