MODEL 1
REMARK VINA RESULT: -7.626027358      0.000      0.000
REMARK  9 active torsions:
REMARK  status: ('A' for Active; 'I' for Inactive)
REMARK    1  A    between atoms: C2_2  and  C3_3 
REMARK    2  A    between atoms: C4_4  and  N1_5 
REMARK    3  A    between atoms: N2_9  and  C8_10 
REMARK    4  A    between atoms: C8_10  and  O1_11 
REMARK    5  A    between atoms: C8_10  and  C9_13 
REMARK    6  A    between atoms: C9_13  and  N3_14 
REMARK    7  A    between atoms: C9_13  and  C17_29 
REMARK       I    between atoms: N3_14  and  C10_16 
REMARK    8  A    between atoms: C10_16  and  C11_18 
REMARK    9  A    between atoms: C15_25  and  C16_26 
ROOT
HETATM    1  C9  UNL     1      18.146 -12.521  18.437  1.00  0.00     0.162 C 
ENDROOT
BRANCH   1   2
HETATM    2  C8  UNL     1      17.134 -12.114  19.404  1.00  0.00     0.137 C 
BRANCH   2   3
HETATM    3  N2  UNL     1      16.153 -12.810  20.108  1.00  0.00    -0.360 N 
HETATM    4  C7  UNL     1      16.439 -13.890  21.021  1.00  0.00     0.156 C 
HETATM    5  C6  UNL     1      15.218 -14.767  21.218  1.00  0.00     0.309 C 
HETATM    6  N1  UNL     1      14.672 -15.337  20.037  1.00  0.00     0.152 N 
HETATM    7  C5  UNL     1      15.734 -15.793  19.176  1.00  0.00     0.328 C 
HETATM    8  N5  UNL     1      13.732 -14.566  19.361  1.00  0.00     0.093 N 
HETATM    9  C21 UNL     1      14.205 -13.327  18.849  1.00  0.00     0.292 C 
HETATM   10  C22 UNL     1      13.349 -15.361  18.173  1.00  0.00     0.310 C 
HETATM   11  C23 UNL     1      12.523 -14.395  20.110  1.00  0.00     0.310 C 
HETATM   12  C20 UNL     1      14.746 -12.373  19.857  1.00  0.00     0.155 C 
BRANCH   6  13
HETATM   13  C4  UNL     1      13.970 -16.514  20.442  1.00  0.00     0.149 C 
HETATM   14  C3  UNL     1      13.398 -17.518  20.791  1.00  0.00    -0.074 C 
BRANCH  14  15
HETATM   15  C2  UNL     1      12.725 -18.766  21.223  1.00  0.00     0.091 C 
HETATM   16  C1  UNL     1      11.559 -19.074  20.278  1.00  0.00     0.018 C 
ENDBRANCH  14  15
ENDBRANCH   6  13
ENDBRANCH   2   3
BRANCH   2  17
HETATM   17  O1  UNL     1      17.143 -10.831  19.663  1.00  0.00    -0.348 OA
ATOM     18  H1  UNL     1      16.661 -10.317  19.026  1.00  0.00     0.219 HD
ENDBRANCH   2  17
ENDBRANCH   1   2
BRANCH   1  19
HETATM   19  N3  UNL     1      17.919 -11.778  17.147  1.00  0.00    -0.348 N 
HETATM   20  C10 UNL     1      17.097 -12.319  16.140  1.00  0.00     0.223 C 
HETATM   21  O2  UNL     1      16.536 -13.452  16.330  1.00  0.00    -0.273 OA
ATOM     22  H3  UNL     1      18.366 -10.872  17.001  1.00  0.00     0.163 HD
BRANCH  20  23
HETATM   23  C11 UNL     1      16.841 -11.636  14.852  1.00  0.00     0.095 C 
HETATM   24  C12 UNL     1      17.594 -12.415  13.793  1.00  0.00     0.042 C 
HETATM   25  C13 UNL     1      17.195 -12.054  12.386  1.00  0.00     0.233 C 
HETATM   26  N4  UNL     1      16.265 -10.962  12.427  1.00  0.00    -0.074 N 
HETATM   27  C14 UNL     1      15.065 -11.400  13.120  1.00  0.00     0.248 C 
ATOM     28  H42 UNL     1      16.667 -10.120  12.838  1.00  0.00     0.277 HD
ATOM     29  H41 UNL     1      16.065 -10.585  11.500  1.00  0.00     0.277 HD
HETATM   30  C15 UNL     1      15.356 -11.634  14.594  1.00  0.00     0.125 C 
BRANCH  30  31
HETATM   31  C16 UNL     1      14.745 -10.518  15.353  1.00  0.00     0.179 C 
HETATM   32  O3  UNL     1      14.311 -10.588  16.522  1.00  0.00    -0.648 OA
HETATM   33  O4  UNL     1      14.656  -9.283  14.680  1.00  0.00    -0.648 OA
ENDBRANCH  30  31
ENDBRANCH  20  23
ENDBRANCH   1  19
BRANCH   1  34
HETATM   34  C17 UNL     1      19.581 -12.277  18.789  1.00  0.00     0.008 C 
HETATM   35  C18 UNL     1      20.144 -13.237  19.810  1.00  0.00     0.012 C 
HETATM   36  C19 UNL     1      20.538 -11.932  17.711  1.00  0.00     0.012 C 
ENDBRANCH   1  34
TORSDOF 9
ENDMDL
MODEL 2
REMARK VINA RESULT: -7.616215328      3.222      7.339
REMARK  9 active torsions:
REMARK  status: ('A' for Active; 'I' for Inactive)
REMARK    1  A    between atoms: C2_2  and  C3_3 
REMARK    2  A    between atoms: C4_4  and  N1_5 
REMARK    3  A    between atoms: N2_9  and  C8_10 
REMARK    4  A    between atoms: C8_10  and  O1_11 
REMARK    5  A    between atoms: C8_10  and  C9_13 
REMARK    6  A    between atoms: C9_13  and  N3_14 
REMARK    7  A    between atoms: C9_13  and  C17_29 
REMARK       I    between atoms: N3_14  and  C10_16 
REMARK    8  A    between atoms: C10_16  and  C11_18 
REMARK    9  A    between atoms: C15_25  and  C16_26 
ROOT
HETATM    1  C9  UNL     1      13.556 -14.309  19.475  1.00  0.00     0.162 C 
ENDROOT
BRANCH   1   2
HETATM    2  C8  UNL     1      14.754 -13.738  18.872  1.00  0.00     0.137 C 
BRANCH   2   3
HETATM    3  N2  UNL     1      16.116 -13.975  19.046  1.00  0.00    -0.360 N 
HETATM    4  C7  UNL     1      16.647 -14.959  19.957  1.00  0.00     0.156 C 
HETATM    5  C6  UNL     1      18.084 -14.640  20.318  1.00  0.00     0.309 C 
HETATM    6  N1  UNL     1      18.306 -13.361  20.893  1.00  0.00     0.152 N 
HETATM    7  C5  UNL     1      17.261 -13.059  21.839  1.00  0.00     0.328 C 
HETATM    8  N5  UNL     1      18.534 -12.318  20.001  1.00  0.00     0.093 N 
HETATM    9  C21 UNL     1      17.461 -12.017  19.118  1.00  0.00     0.292 C 
HETATM   10  C22 UNL     1      18.704 -11.111  20.840  1.00  0.00     0.310 C 
HETATM   11  C23 UNL     1      19.769 -12.465  19.292  1.00  0.00     0.310 C 
HETATM   12  C20 UNL     1      17.028 -13.125  18.222  1.00  0.00     0.155 C 
BRANCH   6  13
HETATM   13  C4  UNL     1      19.505 -13.465  21.663  1.00  0.00     0.149 C 
HETATM   14  C3  UNL     1      20.507 -13.567  22.329  1.00  0.00    -0.074 C 
BRANCH  14  15
HETATM   15  C2  UNL     1      21.719 -13.708  23.171  1.00  0.00     0.091 C 
HETATM   16  C1  UNL     1      21.360 -13.438  24.636  1.00  0.00     0.018 C 
ENDBRANCH  14  15
ENDBRANCH   6  13
ENDBRANCH   2   3
BRANCH   2  17
HETATM   17  O1  UNL     1      14.501 -12.810  17.985  1.00  0.00    -0.348 OA
ATOM     18  H1  UNL     1      13.594 -12.525  17.988  1.00  0.00     0.219 HD
ENDBRANCH   2  17
ENDBRANCH   1   2
BRANCH   1  19
HETATM   19  N3  UNL     1      12.696 -13.195  20.009  1.00  0.00    -0.348 N 
HETATM   20  C10 UNL     1      12.912 -12.674  21.299  1.00  0.00     0.223 C 
HETATM   21  O2  UNL     1      13.852 -13.154  22.020  1.00  0.00    -0.273 OA
ATOM     22  H3  UNL     1      11.949 -12.812  19.429  1.00  0.00     0.163 HD
BRANCH  20  23
HETATM   23  C11 UNL     1      12.096 -11.583  21.877  1.00  0.00     0.095 C 
HETATM   24  C12 UNL     1      11.735 -12.011  23.284  1.00  0.00     0.042 C 
HETATM   25  C13 UNL     1      11.178 -10.894  24.127  1.00  0.00     0.233 C 
HETATM   26  N4  UNL     1      11.033  -9.719  23.315  1.00  0.00    -0.074 N 
HETATM   27  C14 UNL     1      12.348  -9.306  22.857  1.00  0.00     0.248 C 
ATOM     28  H42 UNL     1      10.377  -9.855  22.545  1.00  0.00     0.277 HD
ATOM     29  H41 UNL     1      10.533  -8.972  23.795  1.00  0.00     0.277 HD
HETATM   30  C15 UNL     1      12.913 -10.316  21.871  1.00  0.00     0.125 C 
BRANCH  30  31
HETATM   31  C16 UNL     1      12.839  -9.712  20.520  1.00  0.00     0.179 C 
HETATM   32  O3  UNL     1      12.111  -8.751  20.194  1.00  0.00    -0.648 OA
HETATM   33  O4  UNL     1      13.667 -10.287  19.535  1.00  0.00    -0.648 OA
ENDBRANCH  30  31
ENDBRANCH  20  23
ENDBRANCH   1  19
BRANCH   1  34
HETATM   34  C17 UNL     1      12.655 -15.122  18.597  1.00  0.00     0.008 C 
HETATM   35  C18 UNL     1      13.376 -16.093  17.692  1.00  0.00     0.012 C 
HETATM   36  C19 UNL     1      11.396 -15.664  19.163  1.00  0.00     0.012 C 
ENDBRANCH   1  34
TORSDOF 9
ENDMDL
MODEL 3
REMARK VINA RESULT: -7.561735882      2.488      3.753
REMARK  9 active torsions:
REMARK  status: ('A' for Active; 'I' for Inactive)
REMARK    1  A    between atoms: C2_2  and  C3_3 
REMARK    2  A    between atoms: C4_4  and  N1_5 
REMARK    3  A    between atoms: N2_9  and  C8_10 
REMARK    4  A    between atoms: C8_10  and  O1_11 
REMARK    5  A    between atoms: C8_10  and  C9_13 
REMARK    6  A    between atoms: C9_13  and  N3_14 
REMARK    7  A    between atoms: C9_13  and  C17_29 
REMARK       I    between atoms: N3_14  and  C10_16 
REMARK    8  A    between atoms: C10_16  and  C11_18 
REMARK    9  A    between atoms: C15_25  and  C16_26 
ROOT
HETATM    1  C9  UNL     1      18.463 -12.419  17.982  1.00  0.00     0.162 C 
ENDROOT
BRANCH   1   2
HETATM    2  C8  UNL     1      17.516 -12.143  19.055  1.00  0.00     0.137 C 
BRANCH   2   3
HETATM    3  N2  UNL     1      17.096 -12.869  20.168  1.00  0.00    -0.360 N 
HETATM    4  C7  UNL     1      16.902 -12.290  21.474  1.00  0.00     0.156 C 
HETATM    5  C6  UNL     1      16.965 -13.356  22.551  1.00  0.00     0.309 C 
HETATM    6  N1  UNL     1      18.161 -14.119  22.595  1.00  0.00     0.152 N 
HETATM    7  C5  UNL     1      19.300 -13.259  22.390  1.00  0.00     0.328 C 
HETATM    8  N5  UNL     1      18.197 -15.251  21.786  1.00  0.00     0.093 N 
HETATM    9  C21 UNL     1      18.098 -15.013  20.388  1.00  0.00     0.292 C 
HETATM   10  C22 UNL     1      19.539 -15.840  21.990  1.00  0.00     0.310 C 
HETATM   11  C23 UNL     1      17.271 -16.257  22.212  1.00  0.00     0.310 C 
HETATM   12  C20 UNL     1      16.857 -14.326  19.933  1.00  0.00     0.155 C 
BRANCH   6  13
HETATM   13  C4  UNL     1      18.282 -14.609  23.931  1.00  0.00     0.149 C 
HETATM   14  C3  UNL     1      18.392 -15.001  25.067  1.00  0.00    -0.074 C 
BRANCH  14  15
HETATM   15  C2  UNL     1      18.543 -15.454  26.471  1.00  0.00     0.091 C 
HETATM   16  C1  UNL     1      18.489 -16.984  26.525  1.00  0.00     0.018 C 
ENDBRANCH  14  15
ENDBRANCH   6  13
ENDBRANCH   2   3
BRANCH   2  17
HETATM   17  O1  UNL     1      16.937 -10.973  18.954  1.00  0.00    -0.348 OA
ATOM     18  H1  UNL     1      16.520 -10.834  18.112  1.00  0.00     0.219 HD
ENDBRANCH   2  17
ENDBRANCH   1   2
BRANCH   1  19
HETATM   19  N3  UNL     1      18.055 -11.647  16.756  1.00  0.00    -0.348 N 
HETATM   20  C10 UNL     1      17.217 -12.229  15.785  1.00  0.00     0.223 C 
HETATM   21  O2  UNL     1      16.799 -13.425  15.953  1.00  0.00    -0.273 OA
ATOM     22  H3  UNL     1      18.388 -10.691  16.627  1.00  0.00     0.163 HD
BRANCH  20  23
HETATM   23  C11 UNL     1      16.787 -11.520  14.559  1.00  0.00     0.095 C 
HETATM   24  C12 UNL     1      17.438 -12.235  13.394  1.00  0.00     0.042 C 
HETATM   25  C13 UNL     1      16.864 -11.850  12.056  1.00  0.00     0.233 C 
HETATM   26  N4  UNL     1      15.904 -10.799  12.242  1.00  0.00    -0.074 N 
HETATM   27  C14 UNL     1      14.812 -11.306  13.054  1.00  0.00     0.248 C 
ATOM     28  H42 UNL     1      16.321  -9.953  12.632  1.00  0.00     0.277 HD
ATOM     29  H41 UNL     1      15.583 -10.403  11.358  1.00  0.00     0.277 HD
HETATM   30  C15 UNL     1      15.282 -11.572  14.476  1.00  0.00     0.125 C 
BRANCH  30  31
HETATM   31  C16 UNL     1      14.724 -10.505  15.338  1.00  0.00     0.179 C 
HETATM   32  O3  UNL     1      14.345 -10.650  16.519  1.00  0.00    -0.648 OA
HETATM   33  O4  UNL     1      14.620  -9.225  14.756  1.00  0.00    -0.648 OA
ENDBRANCH  30  31
ENDBRANCH  20  23
ENDBRANCH   1  19
BRANCH   1  34
HETATM   34  C17 UNL     1      19.900 -12.065  18.215  1.00  0.00     0.008 C 
HETATM   35  C18 UNL     1      20.597 -12.928  19.240  1.00  0.00     0.012 C 
HETATM   36  C19 UNL     1      20.754 -11.722  17.052  1.00  0.00     0.012 C 
ENDBRANCH   1  34
TORSDOF 9
ENDMDL
MODEL 4
REMARK VINA RESULT: -7.521460576      3.380      6.966
REMARK  9 active torsions:
REMARK  status: ('A' for Active; 'I' for Inactive)
REMARK    1  A    between atoms: C2_2  and  C3_3 
REMARK    2  A    between atoms: C4_4  and  N1_5 
REMARK    3  A    between atoms: N2_9  and  C8_10 
REMARK    4  A    between atoms: C8_10  and  O1_11 
REMARK    5  A    between atoms: C8_10  and  C9_13 
REMARK    6  A    between atoms: C9_13  and  N3_14 
REMARK    7  A    between atoms: C9_13  and  C17_29 
REMARK       I    between atoms: N3_14  and  C10_16 
REMARK    8  A    between atoms: C10_16  and  C11_18 
REMARK    9  A    between atoms: C15_25  and  C16_26 
ROOT
HETATM    1  C9  UNL     1      15.466 -12.861  18.473  1.00  0.00     0.162 C 
ENDROOT
BRANCH   1   2
HETATM    2  C8  UNL     1      16.734 -12.940  19.190  1.00  0.00     0.137 C 
BRANCH   2   3
HETATM    3  N2  UNL     1      17.063 -13.171  20.524  1.00  0.00    -0.360 N 
HETATM    4  C7  UNL     1      17.519 -12.141  21.425  1.00  0.00     0.156 C 
HETATM    5  C6  UNL     1      18.277 -12.743  22.592  1.00  0.00     0.309 C 
HETATM    6  N1  UNL     1      19.400 -13.542  22.252  1.00  0.00     0.152 N 
HETATM    7  C5  UNL     1      20.138 -12.921  21.180  1.00  0.00     0.328 C 
HETATM    8  N5  UNL     1      19.146 -14.888  22.012  1.00  0.00     0.093 N 
HETATM    9  C21 UNL     1      18.292 -15.168  20.910  1.00  0.00     0.292 C 
HETATM   10  C22 UNL     1      20.454 -15.481  21.655  1.00  0.00     0.310 C 
HETATM   11  C23 UNL     1      18.723 -15.583  23.190  1.00  0.00     0.310 C 
HETATM   12  C20 UNL     1      16.923 -14.585  20.986  1.00  0.00     0.155 C 
BRANCH   6  13
HETATM   13  C4  UNL     1      20.272 -13.521  23.383  1.00  0.00     0.149 C 
HETATM   14  C3  UNL     1      20.995 -13.485  24.349  1.00  0.00    -0.074 C 
BRANCH  14  15
HETATM   15  C2  UNL     1      21.868 -13.413  25.545  1.00  0.00     0.091 C 
HETATM   16  C1  UNL     1      21.117 -12.720  26.686  1.00  0.00     0.018 C 
ENDBRANCH  14  15
ENDBRANCH   6  13
ENDBRANCH   2   3
BRANCH   2  17
HETATM   17  O1  UNL     1      17.779 -12.752  18.425  1.00  0.00    -0.348 OA
ATOM     18  H1  UNL     1      18.048 -13.535  17.959  1.00  0.00     0.219 HD
ENDBRANCH   2  17
ENDBRANCH   1   2
BRANCH   1  19
HETATM   19  N3  UNL     1      14.550 -11.914  19.200  1.00  0.00    -0.348 N 
HETATM   20  C10 UNL     1      13.615 -12.394  20.138  1.00  0.00     0.223 C 
HETATM   21  O2  UNL     1      13.551 -13.648  20.374  1.00  0.00    -0.273 OA
ATOM     22  H3  UNL     1      14.606 -10.913  19.011  1.00  0.00     0.163 HD
BRANCH  20  23
HETATM   23  C11 UNL     1      12.687 -11.510  20.878  1.00  0.00     0.095 C 
HETATM   24  C12 UNL     1      11.872 -12.404  21.789  1.00  0.00     0.042 C 
HETATM   25  C13 UNL     1      11.103 -11.648  22.841  1.00  0.00     0.233 C 
HETATM   26  N4  UNL     1      11.266 -10.239  22.621  1.00  0.00    -0.074 N 
HETATM   27  C14 UNL     1      12.670  -9.904  22.784  1.00  0.00     0.248 C 
ATOM     28  H42 UNL     1      10.895  -9.939  21.719  1.00  0.00     0.277 HD
ATOM     29  H41 UNL     1      10.658  -9.678  23.217  1.00  0.00     0.277 HD
HETATM   30  C15 UNL     1      13.497 -10.506  21.659  1.00  0.00     0.125 C 
BRANCH  30  31
HETATM   31  C16 UNL     1      13.888  -9.404  20.751  1.00  0.00     0.179 C 
HETATM   32  O3  UNL     1      14.883  -8.664  20.893  1.00  0.00    -0.648 OA
HETATM   33  O4  UNL     1      13.049  -9.188  19.638  1.00  0.00    -0.648 OA
ENDBRANCH  30  31
ENDBRANCH  20  23
ENDBRANCH   1  19
BRANCH   1  34
HETATM   34  C17 UNL     1      15.497 -12.378  17.057  1.00  0.00     0.008 C 
HETATM   35  C18 UNL     1      15.532 -13.477  16.022  1.00  0.00     0.012 C 
HETATM   36  C19 UNL     1      14.643 -11.229  16.670  1.00  0.00     0.012 C 
ENDBRANCH   1  34
TORSDOF 9
ENDMDL
MODEL 5
REMARK VINA RESULT: -7.457911722      3.592      7.087
REMARK  9 active torsions:
REMARK  status: ('A' for Active; 'I' for Inactive)
REMARK    1  A    between atoms: C2_2  and  C3_3 
REMARK    2  A    between atoms: C4_4  and  N1_5 
REMARK    3  A    between atoms: N2_9  and  C8_10 
REMARK    4  A    between atoms: C8_10  and  O1_11 
REMARK    5  A    between atoms: C8_10  and  C9_13 
REMARK    6  A    between atoms: C9_13  and  N3_14 
REMARK    7  A    between atoms: C9_13  and  C17_29 
REMARK       I    between atoms: N3_14  and  C10_16 
REMARK    8  A    between atoms: C10_16  and  C11_18 
REMARK    9  A    between atoms: C15_25  and  C16_26 
ROOT
HETATM    1  C9  UNL     1      15.443 -13.296  19.405  1.00  0.00     0.162 C 
ENDROOT
BRANCH   1   2
HETATM    2  C8  UNL     1      15.826 -14.462  20.191  1.00  0.00     0.137 C 
BRANCH   2   3
HETATM    3  N2  UNL     1      16.471 -14.616  21.417  1.00  0.00    -0.360 N 
HETATM    4  C7  UNL     1      16.650 -13.546  22.367  1.00  0.00     0.156 C 
HETATM    5  C6  UNL     1      17.793 -13.851  23.315  1.00  0.00     0.309 C 
HETATM    6  N1  UNL     1      19.052 -14.098  22.704  1.00  0.00     0.152 N 
HETATM    7  C5  UNL     1      19.264 -13.167  21.624  1.00  0.00     0.328 C 
HETATM    8  N5  UNL     1      19.305 -15.413  22.330  1.00  0.00     0.093 N 
HETATM    9  C21 UNL     1      18.435 -15.953  21.344  1.00  0.00     0.292 C 
HETATM   10  C22 UNL     1      20.645 -15.395  21.703  1.00  0.00     0.310 C 
HETATM   11  C23 UNL     1      19.425 -16.289  23.457  1.00  0.00     0.310 C 
HETATM   12  C20 UNL     1      16.990 -15.988  21.704  1.00  0.00     0.155 C 
BRANCH   6  13
HETATM   13  C4  UNL     1      20.045 -13.788  23.683  1.00  0.00     0.149 C 
HETATM   14  C3  UNL     1      20.868 -13.516  24.523  1.00  0.00    -0.074 C 
BRANCH  14  15
HETATM   15  C2  UNL     1      21.856 -13.160  25.569  1.00  0.00     0.091 C 
HETATM   16  C1  UNL     1      21.124 -12.636  26.809  1.00  0.00     0.018 C 
ENDBRANCH  14  15
ENDBRANCH   6  13
ENDBRANCH   2   3
BRANCH   2  17
HETATM   17  O1  UNL     1      15.503 -15.601  19.632  1.00  0.00    -0.348 OA
ATOM     18  H1  UNL     1      14.569 -15.777  19.655  1.00  0.00     0.219 HD
ENDBRANCH   2  17
ENDBRANCH   1   2
BRANCH   1  19
HETATM   19  N3  UNL     1      14.650 -12.357  20.274  1.00  0.00    -0.348 N 
HETATM   20  C10 UNL     1      13.242 -12.356  20.236  1.00  0.00     0.223 C 
HETATM   21  O2  UNL     1      12.635 -13.165  19.455  1.00  0.00    -0.273 OA
ATOM     22  H3  UNL     1      15.138 -11.715  20.899  1.00  0.00     0.163 HD
BRANCH  20  23
HETATM   23  C11 UNL     1      12.413 -11.453  21.064  1.00  0.00     0.095 C 
HETATM   24  C12 UNL     1      11.748 -12.318  22.114  1.00  0.00     0.042 C 
HETATM   25  C13 UNL     1      11.121 -11.528  23.233  1.00  0.00     0.233 C 
HETATM   26  N4  UNL     1      11.228 -10.128  22.938  1.00  0.00    -0.074 N 
HETATM   27  C14 UNL     1      12.636  -9.771  22.889  1.00  0.00     0.248 C 
ATOM     28  H42 UNL     1      10.730  -9.868  22.086  1.00  0.00     0.277 HD
ATOM     29  H41 UNL     1      10.701  -9.549  23.592  1.00  0.00     0.277 HD
HETATM   30  C15 UNL     1      13.307 -10.409  21.684  1.00  0.00     0.125 C 
BRANCH  30  31
HETATM   31  C16 UNL     1      13.549  -9.340  20.687  1.00  0.00     0.179 C 
HETATM   32  O3  UNL     1      12.805  -9.066  19.722  1.00  0.00    -0.648 OA
HETATM   33  O4  UNL     1      14.724  -8.582  20.861  1.00  0.00    -0.648 OA
ENDBRANCH  30  31
ENDBRANCH  20  23
ENDBRANCH   1  19
BRANCH   1  34
HETATM   34  C17 UNL     1      16.539 -12.464  18.816  1.00  0.00     0.008 C 
HETATM   35  C18 UNL     1      16.433 -12.256  17.323  1.00  0.00     0.012 C 
HETATM   36  C19 UNL     1      17.002 -11.261  19.549  1.00  0.00     0.012 C 
ENDBRANCH   1  34
TORSDOF 9
ENDMDL
