MODEL 1
REMARK VINA RESULT: -8.158234394      0.000      0.000
REMARK  8 active torsions:
REMARK  status: ('A' for Active; 'I' for Inactive)
REMARK    1  A    between atoms: N1_2  and  N2_3 
REMARK    2  A    between atoms: N2_3  and  C2_5 
REMARK    3  A    between atoms: C2_5  and  O1_6 
REMARK    4  A    between atoms: C2_5  and  N3_8 
REMARK    5  A    between atoms: N4_11  and  C5_12 
REMARK    6  A    between atoms: N4_11  and  C7_16 
REMARK    7  A    between atoms: C5_12  and  C6_13 
REMARK    8  A    between atoms: C7_16  and  C8_17 
ROOT
HETATM    1  N3  UNL     1      18.066 -13.946  20.827  1.00  0.00    -0.334 N 
HETATM    2  C3  UNL     1      17.485 -14.607  22.029  1.00  0.00     0.155 C 
HETATM    3  C4  UNL     1      18.599 -15.311  22.726  1.00  0.00     0.258 C 
HETATM    4  N4  UNL     1      19.549 -14.386  23.329  1.00  0.00    -0.049 N 
HETATM    5  C11 UNL     1      19.792 -13.280  22.476  1.00  0.00     0.269 C 
HETATM    6  C12 UNL     1      19.319 -13.334  21.043  1.00  0.00     0.060 C 
HETATM    7  C13 UNL     1      20.430 -13.599  20.051  1.00  0.00     0.033 C 
HETATM    8  C14 UNL     1      20.669 -12.119  19.919  1.00  0.00     0.005 C 
HETATM    9  C15 UNL     1      19.320 -11.874  20.541  1.00  0.00     0.033 C 
ENDROOT
BRANCH   1  10
HETATM   10  C2  UNL     1      17.335 -13.999  19.659  1.00  0.00     0.240 C 
BRANCH  10  11
HETATM   11  N2  UNL     1      16.920 -13.025  18.741  1.00  0.00    -0.180 N 
ATOM     12  H2  UNL     1      17.505 -12.810  17.933  1.00  0.00     0.197 HD
BRANCH  11  13
HETATM   13  N1  UNL     1      15.693 -12.336  18.927  1.00  0.00     0.014 N 
HETATM   14  C1  UNL     1      15.368 -11.753  17.626  1.00  0.00     0.302 C 
HETATM   15  C16 UNL     1      14.682 -13.255  19.330  1.00  0.00     0.292 C 
HETATM   16  C17 UNL     1      13.416 -12.604  19.777  1.00  0.00     0.267 C 
HETATM   17  N7  UNL     1      13.606 -11.704  20.897  1.00  0.00    -0.064 N 
HETATM   18  C18 UNL     1      12.989 -12.321  22.058  1.00  0.00     0.237 C 
HETATM   19  C21 UNL     1      12.940 -10.460  20.659  1.00  0.00     0.237 C 
HETATM   20  C22 UNL     1      15.008 -11.592  21.161  1.00  0.00     0.267 C 
HETATM   21  C19 UNL     1      11.623 -11.675  22.186  1.00  0.00     0.029 C 
HETATM   22  C20 UNL     1      11.948 -10.252  21.783  1.00  0.00     0.029 C 
HETATM   23  C23 UNL     1      15.857 -11.350  19.949  1.00  0.00     0.292 C 
ENDBRANCH  11  13
ENDBRANCH  10  11
BRANCH  10  24
HETATM   24  O1  UNL     1      16.947 -15.212  19.338  1.00  0.00    -0.331 OA
ATOM     25  H1  UNL     1      17.667 -15.828  19.264  1.00  0.00     0.221 HD
ENDBRANCH  10  24
ENDBRANCH   1  10
BRANCH   4  26
HETATM   26  C5  UNL     1      18.935 -13.899  24.543  1.00  0.00     0.350 C 
BRANCH  26  27
HETATM   27  C6  UNL     1      18.564 -14.886  25.543  1.00  0.00     0.199 C 
HETATM   28  O2  UNL     1      19.300 -14.936  26.601  1.00  0.00    -0.647 OA
HETATM   29  O3  UNL     1      17.538 -15.788  25.535  1.00  0.00    -0.647 OA
ENDBRANCH  26  27
ENDBRANCH   4  26
BRANCH   4  30
HETATM   30  C7  UNL     1      20.752 -15.124  23.523  1.00  0.00     0.296 C 
BRANCH  30  31
HETATM   31  C8  UNL     1      21.940 -14.419  23.969  1.00  0.00     0.051 A 
HETATM   32  C9  UNL     1      22.297 -13.843  25.158  1.00  0.00     0.115 A 
HETATM   33  N5  UNL     1      23.535 -13.308  25.039  1.00  0.00    -0.360 N 
HETATM   34  C10 UNL     1      23.945 -13.541  23.804  1.00  0.00     0.180 A 
ATOM     35  H5  UNL     1      24.054 -12.816  25.766  1.00  0.00     0.166 HD
HETATM   36  N6  UNL     1      23.012 -14.202  23.148  1.00  0.00    -0.353 N 
ATOM     37  H6  UNL     1      23.079 -14.504  22.175  1.00  0.00     0.166 HD
ENDBRANCH  30  31
ENDBRANCH   4  30
TORSDOF 8
ENDMDL
MODEL 2
REMARK VINA RESULT: -7.967266570      2.513      7.543
REMARK  8 active torsions:
REMARK  status: ('A' for Active; 'I' for Inactive)
REMARK    1  A    between atoms: N1_2  and  N2_3 
REMARK    2  A    between atoms: N2_3  and  C2_5 
REMARK    3  A    between atoms: C2_5  and  O1_6 
REMARK    4  A    between atoms: C2_5  and  N3_8 
REMARK    5  A    between atoms: N4_11  and  C5_12 
REMARK    6  A    between atoms: N4_11  and  C7_16 
REMARK    7  A    between atoms: C5_12  and  C6_13 
REMARK    8  A    between atoms: C7_16  and  C8_17 
ROOT
HETATM    1  N3  UNL     1      16.029 -12.711  20.235  1.00  0.00    -0.334 N 
HETATM    2  C3  UNL     1      15.610 -12.922  21.648  1.00  0.00     0.155 C 
HETATM    3  C4  UNL     1      14.250 -12.331  21.797  1.00  0.00     0.258 C 
HETATM    4  N4  UNL     1      13.235 -13.086  21.074  1.00  0.00    -0.049 N 
HETATM    5  C11 UNL     1      13.722 -13.513  19.812  1.00  0.00     0.269 C 
HETATM    6  C12 UNL     1      15.011 -12.930  19.283  1.00  0.00     0.060 C 
HETATM    7  C13 UNL     1      14.803 -11.894  18.200  1.00  0.00     0.033 C 
HETATM    8  C14 UNL     1      14.858 -12.974  17.153  1.00  0.00     0.005 C 
HETATM    9  C15 UNL     1      15.484 -13.890  18.170  1.00  0.00     0.033 C 
ENDROOT
BRANCH   1  10
HETATM   10  C2  UNL     1      17.336 -12.335  20.011  1.00  0.00     0.240 C 
BRANCH  10  11
HETATM   11  N2  UNL     1      18.504 -13.052  19.712  1.00  0.00    -0.180 N 
ATOM     12  H2  UNL     1      18.774 -13.196  18.739  1.00  0.00     0.197 HD
BRANCH  11  13
HETATM   13  N1  UNL     1      19.313 -13.577  20.753  1.00  0.00     0.014 N 
HETATM   14  C1  UNL     1      20.675 -13.593  20.224  1.00  0.00     0.302 C 
HETATM   15  C16 UNL     1      19.230 -12.734  21.898  1.00  0.00     0.292 C 
HETATM   16  C17 UNL     1      19.853 -13.314  23.124  1.00  0.00     0.267 C 
HETATM   17  N7  UNL     1      19.262 -14.578  23.516  1.00  0.00    -0.064 N 
HETATM   18  C18 UNL     1      18.515 -14.345  24.740  1.00  0.00     0.237 C 
HETATM   19  C21 UNL     1      20.281 -15.540  23.804  1.00  0.00     0.237 C 
HETATM   20  C22 UNL     1      18.328 -14.979  22.509  1.00  0.00     0.267 C 
HETATM   21  C19 UNL     1      19.428 -14.790  25.866  1.00  0.00     0.029 C 
HETATM   22  C20 UNL     1      20.084 -15.999  25.233  1.00  0.00     0.029 C 
HETATM   23  C23 UNL     1      18.840 -14.882  21.104  1.00  0.00     0.292 C 
ENDBRANCH  11  13
ENDBRANCH  10  11
BRANCH  10  24
HETATM   24  O1  UNL     1      17.531 -11.039  20.092  1.00  0.00    -0.331 OA
ATOM     25  H1  UNL     1      17.997 -10.780  20.878  1.00  0.00     0.221 HD
ENDBRANCH  10  24
ENDBRANCH   1  10
BRANCH   4  26
HETATM   26  C5  UNL     1      12.947 -14.256  21.871  1.00  0.00     0.350 C 
BRANCH  26  27
HETATM   27  C6  UNL     1      12.973 -15.543  21.196  1.00  0.00     0.199 C 
HETATM   28  O2  UNL     1      11.832 -16.022  20.829  1.00  0.00    -0.647 OA
HETATM   29  O3  UNL     1      14.037 -16.340  20.884  1.00  0.00    -0.647 OA
ENDBRANCH  26  27
ENDBRANCH   4  26
BRANCH   4  30
HETATM   30  C7  UNL     1      12.135 -12.200  20.895  1.00  0.00     0.296 C 
BRANCH  30  31
HETATM   31  C8  UNL     1      11.745 -11.338  21.997  1.00  0.00     0.051 A 
HETATM   32  C9  UNL     1      11.029 -11.549  23.145  1.00  0.00     0.115 A 
HETATM   33  N5  UNL     1      10.954 -10.391  23.841  1.00  0.00    -0.360 N 
HETATM   34  C10 UNL     1      11.606  -9.473  23.147  1.00  0.00     0.180 A 
ATOM     35  H5  UNL     1      10.481 -10.251  24.734  1.00  0.00     0.166 HD
HETATM   36  N6  UNL     1      12.086 -10.014  22.045  1.00  0.00    -0.353 N 
ATOM     37  H6  UNL     1      12.629  -9.520  21.336  1.00  0.00     0.166 HD
ENDBRANCH  30  31
ENDBRANCH   4  30
TORSDOF 8
ENDMDL
MODEL 3
REMARK VINA RESULT: -7.656571013      2.032      7.967
REMARK  8 active torsions:
REMARK  status: ('A' for Active; 'I' for Inactive)
REMARK    1  A    between atoms: N1_2  and  N2_3 
REMARK    2  A    between atoms: N2_3  and  C2_5 
REMARK    3  A    between atoms: C2_5  and  O1_6 
REMARK    4  A    between atoms: C2_5  and  N3_8 
REMARK    5  A    between atoms: N4_11  and  C5_12 
REMARK    6  A    between atoms: N4_11  and  C7_16 
REMARK    7  A    between atoms: C5_12  and  C6_13 
REMARK    8  A    between atoms: C7_16  and  C8_17 
ROOT
HETATM    1  N3  UNL     1      16.489 -13.789  21.172  1.00  0.00    -0.334 N 
HETATM    2  C3  UNL     1      15.017 -14.013  21.173  1.00  0.00     0.155 C 
HETATM    3  C4  UNL     1      14.372 -12.704  21.477  1.00  0.00     0.258 C 
HETATM    4  N4  UNL     1      14.524 -11.746  20.390  1.00  0.00    -0.049 N 
HETATM    5  C11 UNL     1      15.823 -11.817  19.827  1.00  0.00     0.269 C 
HETATM    6  C12 UNL     1      16.899 -12.592  20.549  1.00  0.00     0.060 C 
HETATM    7  C13 UNL     1      17.895 -11.710  21.271  1.00  0.00     0.033 C 
HETATM    8  C14 UNL     1      18.753 -11.663  20.035  1.00  0.00     0.005 C 
HETATM    9  C15 UNL     1      18.004 -12.856  19.504  1.00  0.00     0.033 C 
ENDROOT
BRANCH   1  10
HETATM   10  C2  UNL     1      17.277 -14.754  21.764  1.00  0.00     0.240 C 
BRANCH  10  11
HETATM   11  N2  UNL     1      18.524 -15.307  21.440  1.00  0.00    -0.180 N 
ATOM     12  H2  UNL     1      18.593 -15.990  20.686  1.00  0.00     0.197 HD
BRANCH  11  13
HETATM   13  N1  UNL     1      19.689 -14.924  22.154  1.00  0.00     0.014 N 
HETATM   14  C1  UNL     1      20.735 -14.765  21.145  1.00  0.00     0.302 C 
HETATM   15  C16 UNL     1      19.455 -13.692  22.830  1.00  0.00     0.292 C 
HETATM   16  C17 UNL     1      20.530 -13.318  23.796  1.00  0.00     0.267 C 
HETATM   17  N7  UNL     1      20.731 -14.310  24.833  1.00  0.00    -0.064 N 
HETATM   18  C18 UNL     1      20.250 -13.738  26.078  1.00  0.00     0.237 C 
HETATM   19  C21 UNL     1      22.124 -14.593  24.993  1.00  0.00     0.237 C 
HETATM   20  C22 UNL     1      19.919 -15.451  24.539  1.00  0.00     0.267 C 
HETATM   21  C19 UNL     1      21.482 -13.214  26.789  1.00  0.00     0.029 C 
HETATM   22  C20 UNL     1      22.490 -14.285  26.429  1.00  0.00     0.029 C 
HETATM   23  C23 UNL     1      20.002 -15.931  23.121  1.00  0.00     0.292 C 
ENDBRANCH  11  13
ENDBRANCH  10  11
BRANCH  10  24
HETATM   24  O1  UNL     1      16.755 -15.260  22.857  1.00  0.00    -0.331 OA
ATOM     25  H1  UNL     1      16.869 -16.201  22.925  1.00  0.00     0.221 HD
ENDBRANCH  10  24
ENDBRANCH   1  10
BRANCH   4  26
HETATM   26  C5  UNL     1      13.565 -12.119  19.375  1.00  0.00     0.350 C 
BRANCH  26  27
HETATM   27  C6  UNL     1      13.889 -11.782  18.000  1.00  0.00     0.199 C 
HETATM   28  O2  UNL     1      14.297 -12.751  17.252  1.00  0.00    -0.647 OA
HETATM   29  O3  UNL     1      13.828 -10.576  17.363  1.00  0.00    -0.647 OA
ENDBRANCH  26  27
ENDBRANCH   4  26
BRANCH   4  30
HETATM   30  C7  UNL     1      14.314 -10.459  20.965  1.00  0.00     0.296 C 
BRANCH  30  31
HETATM   31  C8  UNL     1      13.157 -10.256  21.820  1.00  0.00     0.051 A 
HETATM   32  C9  UNL     1      11.898 -10.794  21.837  1.00  0.00     0.115 A 
HETATM   33  N5  UNL     1      11.197 -10.250  22.859  1.00  0.00    -0.360 N 
HETATM   34  C10 UNL     1      11.996  -9.390  23.469  1.00  0.00     0.180 A 
ATOM     35  H5  UNL     1      10.232 -10.463  23.112  1.00  0.00     0.166 HD
HETATM   36  N6  UNL     1      13.169  -9.377  22.867  1.00  0.00    -0.353 N 
ATOM     37  H6  UNL     1      13.964  -8.799  23.141  1.00  0.00     0.166 HD
ENDBRANCH  30  31
ENDBRANCH   4  30
TORSDOF 8
ENDMDL
MODEL 4
REMARK VINA RESULT: -7.573283296      1.356      1.849
REMARK  8 active torsions:
REMARK  status: ('A' for Active; 'I' for Inactive)
REMARK    1  A    between atoms: N1_2  and  N2_3 
REMARK    2  A    between atoms: N2_3  and  C2_5 
REMARK    3  A    between atoms: C2_5  and  O1_6 
REMARK    4  A    between atoms: C2_5  and  N3_8 
REMARK    5  A    between atoms: N4_11  and  C5_12 
REMARK    6  A    between atoms: N4_11  and  C7_16 
REMARK    7  A    between atoms: C5_12  and  C6_13 
REMARK    8  A    between atoms: C7_16  and  C8_17 
ROOT
HETATM    1  N3  UNL     1      18.452 -13.836  21.032  1.00  0.00    -0.334 N 
HETATM    2  C3  UNL     1      18.014 -14.259  22.392  1.00  0.00     0.155 C 
HETATM    3  C4  UNL     1      19.177 -14.927  23.041  1.00  0.00     0.258 C 
HETATM    4  N4  UNL     1      20.249 -13.992  23.355  1.00  0.00    -0.049 N 
HETATM    5  C11 UNL     1      20.426 -13.051  22.309  1.00  0.00     0.269 C 
HETATM    6  C12 UNL     1      19.752 -13.291  20.979  1.00  0.00     0.060 C 
HETATM    7  C13 UNL     1      20.696 -13.786  19.906  1.00  0.00     0.033 C 
HETATM    8  C14 UNL     1      20.990 -12.365  19.505  1.00  0.00     0.005 C 
HETATM    9  C15 UNL     1      19.757 -11.930  20.251  1.00  0.00     0.033 C 
ENDROOT
BRANCH   1  10
HETATM   10  C2  UNL     1      17.561 -14.014  19.995  1.00  0.00     0.240 C 
BRANCH  10  11
HETATM   11  N2  UNL     1      17.133 -13.192  18.944  1.00  0.00    -0.180 N 
ATOM     12  H2  UNL     1      17.690 -13.128  18.093  1.00  0.00     0.197 HD
BRANCH  11  13
HETATM   13  N1  UNL     1      15.930 -12.446  19.057  1.00  0.00     0.014 N 
HETATM   14  C1  UNL     1      15.730 -11.822  17.750  1.00  0.00     0.302 C 
HETATM   15  C16 UNL     1      14.849 -13.322  19.364  1.00  0.00     0.292 C 
HETATM   16  C17 UNL     1      13.586 -12.618  19.734  1.00  0.00     0.267 C 
HETATM   17  N7  UNL     1      13.737 -11.751  20.885  1.00  0.00    -0.064 N 
HETATM   18  C18 UNL     1      13.007 -12.359  21.983  1.00  0.00     0.237 C 
HETATM   19  C21 UNL     1      13.151 -10.471  20.629  1.00  0.00     0.237 C 
HETATM   20  C22 UNL     1      15.119 -11.714  21.253  1.00  0.00     0.267 C 
HETATM   21  C19 UNL     1      11.668 -11.649  22.027  1.00  0.00     0.029 C 
HETATM   22  C20 UNL     1      12.090 -10.237  21.682  1.00  0.00     0.029 C 
HETATM   23  C23 UNL     1      16.065 -11.490  20.112  1.00  0.00     0.292 C 
ENDBRANCH  11  13
ENDBRANCH  10  11
BRANCH  10  24
HETATM   24  O1  UNL     1      16.996 -15.200  19.987  1.00  0.00    -0.331 OA
ATOM     25  H1  UNL     1      17.398 -15.810  20.595  1.00  0.00     0.221 HD
ENDBRANCH  10  24
ENDBRANCH   1  10
BRANCH   4  26
HETATM   26  C5  UNL     1      19.839 -13.280  24.544  1.00  0.00     0.350 C 
BRANCH  26  27
HETATM   27  C6  UNL     1      20.078 -13.928  25.823  1.00  0.00     0.199 C 
HETATM   28  O2  UNL     1      20.922 -13.351  26.610  1.00  0.00    -0.647 OA
HETATM   29  O3  UNL     1      19.540 -15.076  26.330  1.00  0.00    -0.647 OA
ENDBRANCH  26  27
ENDBRANCH   4  26
BRANCH   4  30
HETATM   30  C7  UNL     1      21.428 -14.777  23.506  1.00  0.00     0.296 C 
BRANCH  30  31
HETATM   31  C8  UNL     1      21.402 -16.165  23.079  1.00  0.00     0.051 A 
HETATM   32  C9  UNL     1      21.069 -17.334  23.709  1.00  0.00     0.115 A 
HETATM   33  N5  UNL     1      21.224 -18.364  22.845  1.00  0.00    -0.360 N 
HETATM   34  C10 UNL     1      21.646 -17.855  21.700  1.00  0.00     0.180 A 
ATOM     35  H5  UNL     1      21.049 -19.350  23.041  1.00  0.00     0.166 HD
HETATM   36  N6  UNL     1      21.759 -16.547  21.815  1.00  0.00    -0.353 N 
ATOM     37  H6  UNL     1      22.067 -15.916  21.075  1.00  0.00     0.166 HD
ENDBRANCH  30  31
ENDBRANCH   4  30
TORSDOF 8
ENDMDL
MODEL 5
REMARK VINA RESULT: -7.536338308      2.358      7.936
REMARK  8 active torsions:
REMARK  status: ('A' for Active; 'I' for Inactive)
REMARK    1  A    between atoms: N1_2  and  N2_3 
REMARK    2  A    between atoms: N2_3  and  C2_5 
REMARK    3  A    between atoms: C2_5  and  O1_6 
REMARK    4  A    between atoms: C2_5  and  N3_8 
REMARK    5  A    between atoms: N4_11  and  C5_12 
REMARK    6  A    between atoms: N4_11  and  C7_16 
REMARK    7  A    between atoms: C5_12  and  C6_13 
REMARK    8  A    between atoms: C7_16  and  C8_17 
ROOT
HETATM    1  N3  UNL     1      16.504 -12.692  20.441  1.00  0.00    -0.334 N 
HETATM    2  C3  UNL     1      15.888 -12.945  21.773  1.00  0.00     0.155 C 
HETATM    3  C4  UNL     1      14.547 -12.294  21.769  1.00  0.00     0.258 C 
HETATM    4  N4  UNL     1      13.609 -12.964  20.878  1.00  0.00    -0.049 N 
HETATM    5  C11 UNL     1      14.244 -13.357  19.673  1.00  0.00     0.269 C 
HETATM    6  C12 UNL     1      15.617 -12.816  19.352  1.00  0.00     0.060 C 
HETATM    7  C13 UNL     1      15.604 -11.724  18.305  1.00  0.00     0.033 C 
HETATM    8  C14 UNL     1      15.754 -12.757  17.221  1.00  0.00     0.005 C 
HETATM    9  C15 UNL     1      16.195 -13.748  18.265  1.00  0.00     0.033 C 
ENDROOT
BRANCH   1  10
HETATM   10  C2  UNL     1      17.845 -12.373  20.414  1.00  0.00     0.240 C 
BRANCH  10  11
HETATM   11  N2  UNL     1      19.011 -13.136  20.264  1.00  0.00    -0.180 N 
ATOM     12  H2  UNL     1      19.588 -13.020  19.431  1.00  0.00     0.197 HD
BRANCH  11  13
HETATM   13  N1  UNL     1      19.395 -14.070  21.261  1.00  0.00     0.014 N 
HETATM   14  C1  UNL     1      18.547 -15.243  21.050  1.00  0.00     0.302 C 
HETATM   15  C16 UNL     1      20.769 -14.410  21.098  1.00  0.00     0.292 C 
HETATM   16  C17 UNL     1      21.335 -15.201  22.230  1.00  0.00     0.267 C 
HETATM   17  N7  UNL     1      21.242 -14.516  23.504  1.00  0.00    -0.064 N 
HETATM   18  C18 UNL     1      22.589 -14.136  23.890  1.00  0.00     0.237 C 
HETATM   19  C21 UNL     1      20.732 -15.395  24.510  1.00  0.00     0.237 C 
HETATM   20  C22 UNL     1      20.489 -13.313  23.322  1.00  0.00     0.267 C 
HETATM   21  C19 UNL     1      23.051 -15.203  24.863  1.00  0.00     0.029 C 
HETATM   22  C20 UNL     1      21.764 -15.472  25.614  1.00  0.00     0.029 C 
HETATM   23  C23 UNL     1      19.213 -13.482  22.552  1.00  0.00     0.292 C 
ENDBRANCH  11  13
ENDBRANCH  10  11
BRANCH  10  24
HETATM   24  O1  UNL     1      18.083 -11.089  20.557  1.00  0.00    -0.331 OA
ATOM     25  H1  UNL     1      17.899 -10.585  19.773  1.00  0.00     0.221 HD
ENDBRANCH  10  24
ENDBRANCH   1  10
BRANCH   4  26
HETATM   26  C5  UNL     1      13.163 -14.153  21.568  1.00  0.00     0.350 C 
BRANCH  26  27
HETATM   27  C6  UNL     1      12.746 -15.278  20.750  1.00  0.00     0.199 C 
HETATM   28  O2  UNL     1      13.377 -16.388  20.935  1.00  0.00    -0.647 OA
HETATM   29  O3  UNL     1      11.770 -15.346  19.796  1.00  0.00    -0.647 OA
ENDBRANCH  26  27
ENDBRANCH   4  26
BRANCH   4  30
HETATM   30  C7  UNL     1      12.582 -12.016  20.599  1.00  0.00     0.296 C 
BRANCH  30  31
HETATM   31  C8  UNL     1      12.022 -11.249  21.698  1.00  0.00     0.051 A 
HETATM   32  C9  UNL     1      11.202 -11.575  22.745  1.00  0.00     0.115 A 
HETATM   33  N5  UNL     1      10.976 -10.469  23.493  1.00  0.00    -0.360 N 
HETATM   34  C10 UNL     1      11.638  -9.472  22.928  1.00  0.00     0.180 A 
ATOM     35  H5  UNL     1      10.402 -10.414  24.334  1.00  0.00     0.166 HD
HETATM   36  N6  UNL     1      12.268  -9.914  21.858  1.00  0.00    -0.353 N 
ATOM     37  H6  UNL     1      12.850  -9.345  21.242  1.00  0.00     0.166 HD
ENDBRANCH  30  31
ENDBRANCH   4  30
TORSDOF 8
ENDMDL
