MODEL 1
REMARK VINA RESULT: -7.901515983      0.000      0.000
REMARK  6 active torsions:
REMARK  status: ('A' for Active; 'I' for Inactive)
REMARK       I    between atoms: C2_4  and  N2_5 
REMARK       I    between atoms: C2_4  and  N9_31 
REMARK    1  A    between atoms: C3_7  and  N3_8 
REMARK    2  A    between atoms: C3_7  and  C11_24 
REMARK       I    between atoms: N3_8  and  C4_10 
REMARK       I    between atoms: N5_12  and  C5_14 
REMARK    3  A    between atoms: C5_14  and  C6_16 
REMARK    4  A    between atoms: N6_18  and  C8_20 
REMARK    5  A    between atoms: C8_20  and  C9_21 
REMARK    6  A    between atoms: N9_31  and  C17_33 
ROOT
HETATM    1  C9  UNL     1      16.330 -11.138  11.704  1.00  0.00     0.143 C 
HETATM    2  C10 UNL     1      14.903 -11.392  11.865  1.00  0.00     0.060 C 
HETATM    3  N7  UNL     1      13.761 -11.588  11.992  1.00  0.00    -0.197 NA
ENDROOT
BRANCH   1   4
HETATM    4  C8  UNL     1      17.069 -11.241  13.020  1.00  0.00     0.134 C 
BRANCH   4   5
HETATM    5  N6  UNL     1      16.225 -11.751  14.074  1.00  0.00    -0.388 N 
HETATM    6  C6  UNL     1      16.245 -11.164  15.237  1.00  0.00     0.070 C 
HETATM    7  C7  UNL     1      17.126  -9.991  15.476  1.00  0.00     0.074 C 
ATOM      8  H6  UNL     1      15.622 -12.557  13.911  1.00  0.00     0.159 HD
BRANCH   6   9
HETATM    9  C5  UNL     1      15.417 -11.630  16.342  1.00  0.00     0.269 C 
HETATM   10  N5  UNL     1      15.649 -11.231  17.664  1.00  0.00    -0.296 N 
HETATM   11  C4  UNL     1      15.856 -12.000  18.655  1.00  0.00     0.196 C 
ATOM     12  H5  UNL     1      15.653 -10.228  17.850  1.00  0.00     0.171 HD
HETATM   13  N3  UNL     1      16.074 -11.415  19.936  1.00  0.00    -0.319 N 
HETATM   14  N4  UNL     1      15.860 -13.397  18.457  1.00  0.00    -0.063 NA
ATOM     15  H3  UNL     1      15.852 -10.426  20.055  1.00  0.00     0.169 HD
HETATM   16  O1  UNL     1      14.456 -12.425  16.067  1.00  0.00    -0.266 OA
BRANCH  13  17
HETATM   17  C3  UNL     1      16.578 -12.119  21.051  1.00  0.00     0.105 C 
HETATM   18  N2  UNL     1      15.820 -12.826  21.771  1.00  0.00    -0.180 N 
HETATM   19  C2  UNL     1      14.431 -13.044  21.629  1.00  0.00     0.675 C 
ATOM     20  H2  UNL     1      16.266 -13.299  22.556  1.00  0.00     0.185 HD
HETATM   21  N1  UNL     1      13.638 -12.087  21.399  1.00  0.00    -0.231 N 
HETATM   22  N9  UNL     1      13.938 -14.363  21.758  1.00  0.00    -0.220 N 
HETATM   23  C1  UNL     1      12.226 -12.106  21.227  1.00  0.00     0.165 C 
ATOM     24  H1  UNL     1      14.074 -11.167  21.325  1.00  0.00     0.177 HD
ATOM     25  H9  UNL     1      13.966 -14.823  22.668  1.00  0.00     0.178 HD
BRANCH  22  26
HETATM   26  C17 UNL     1      13.397 -15.066  20.624  1.00  0.00     0.127 C 
HETATM   27  C18 UNL     1      14.410 -16.000  20.059  1.00  0.00     0.055 C 
HETATM   28  C19 UNL     1      13.742 -17.351  20.111  1.00  0.00     0.238 C 
HETATM   29  N10 UNL     1      12.345 -17.037  20.108  1.00  0.00    -0.073 N 
HETATM   30  C20 UNL     1      11.524 -18.138  20.581  1.00  0.00     0.272 C 
HETATM   31  C21 UNL     1      11.912 -16.717  18.769  1.00  0.00     0.272 C 
HETATM   32  C22 UNL     1      12.188 -15.902  21.004  1.00  0.00     0.262 C 
ENDBRANCH  22  26
BRANCH  17  33
HETATM   33  C11 UNL     1      18.016 -12.053  21.421  1.00  0.00     0.082 C 
HETATM   34  C12 UNL     1      18.652 -13.403  21.572  1.00  0.00     0.042 C 
HETATM   35  C13 UNL     1      19.301 -13.666  20.222  1.00  0.00     0.237 C 
HETATM   36  N8  UNL     1      19.787 -12.374  19.850  1.00  0.00    -0.074 N 
HETATM   37  C14 UNL     1      19.825 -12.344  18.380  1.00  0.00     0.272 C 
HETATM   38  C15 UNL     1      21.140 -12.108  20.293  1.00  0.00     0.272 C 
HETATM   39  C16 UNL     1      18.846 -11.399  20.349  1.00  0.00     0.248 C 
ENDBRANCH  17  33
ENDBRANCH  13  17
ENDBRANCH   6   9
ENDBRANCH   4   5
ENDBRANCH   1   4
TORSDOF 6
ENDMDL
MODEL 2
REMARK VINA RESULT: -7.804152936      0.761      1.162
REMARK  6 active torsions:
REMARK  status: ('A' for Active; 'I' for Inactive)
REMARK       I    between atoms: C2_4  and  N2_5 
REMARK       I    between atoms: C2_4  and  N9_31 
REMARK    1  A    between atoms: C3_7  and  N3_8 
REMARK    2  A    between atoms: C3_7  and  C11_24 
REMARK       I    between atoms: N3_8  and  C4_10 
REMARK       I    between atoms: N5_12  and  C5_14 
REMARK    3  A    between atoms: C5_14  and  C6_16 
REMARK    4  A    between atoms: N6_18  and  C8_20 
REMARK    5  A    between atoms: C8_20  and  C9_21 
REMARK    6  A    between atoms: N9_31  and  C17_33 
ROOT
HETATM    1  C9  UNL     1      17.775 -12.215  12.241  1.00  0.00     0.143 C 
HETATM    2  C10 UNL     1      17.784 -13.477  12.973  1.00  0.00     0.060 C 
HETATM    3  N7  UNL     1      17.787 -14.488  13.552  1.00  0.00    -0.197 NA
ENDROOT
BRANCH   1   4
HETATM    4  C8  UNL     1      17.092 -11.117  13.028  1.00  0.00     0.134 C 
BRANCH   4   5
HETATM    5  N6  UNL     1      16.243 -11.647  14.068  1.00  0.00    -0.388 N 
HETATM    6  C6  UNL     1      16.275 -11.096  15.248  1.00  0.00     0.070 C 
HETATM    7  C7  UNL     1      17.172  -9.944  15.520  1.00  0.00     0.074 C 
ATOM      8  H6  UNL     1      15.629 -12.439  13.882  1.00  0.00     0.159 HD
BRANCH   6   9
HETATM    9  C5  UNL     1      15.442 -11.584  16.341  1.00  0.00     0.269 C 
HETATM   10  N5  UNL     1      15.663 -11.203  17.670  1.00  0.00    -0.296 N 
HETATM   11  C4  UNL     1      15.868 -11.985  18.651  1.00  0.00     0.196 C 
ATOM     12  H5  UNL     1      15.658 -10.203  17.870  1.00  0.00     0.171 HD
HETATM   13  N3  UNL     1      16.074 -11.416  19.942  1.00  0.00    -0.319 N 
HETATM   14  N4  UNL     1      15.884 -13.379  18.433  1.00  0.00    -0.063 NA
ATOM     15  H3  UNL     1      15.844 -10.431  20.073  1.00  0.00     0.169 HD
HETATM   16  O1  UNL     1      14.490 -12.382  16.047  1.00  0.00    -0.266 OA
BRANCH  13  17
HETATM   17  C3  UNL     1      16.576 -12.133  21.050  1.00  0.00     0.105 C 
HETATM   18  N2  UNL     1      15.814 -12.840  21.766  1.00  0.00    -0.180 N 
HETATM   19  C2  UNL     1      14.423 -13.047  21.625  1.00  0.00     0.675 C 
ATOM     20  H2  UNL     1      16.259 -13.323  22.546  1.00  0.00     0.185 HD
HETATM   21  N1  UNL     1      13.637 -12.083  21.405  1.00  0.00    -0.231 N 
HETATM   22  N9  UNL     1      13.921 -14.364  21.745  1.00  0.00    -0.220 N 
HETATM   23  C1  UNL     1      12.224 -12.091  21.236  1.00  0.00     0.165 C 
ATOM     24  H1  UNL     1      14.078 -11.166  21.338  1.00  0.00     0.177 HD
ATOM     25  H9  UNL     1      13.949 -14.832  22.651  1.00  0.00     0.178 HD
BRANCH  22  26
HETATM   26  C17 UNL     1      13.372 -15.054  20.607  1.00  0.00     0.127 C 
HETATM   27  C18 UNL     1      14.382 -15.983  20.026  1.00  0.00     0.055 C 
HETATM   28  C19 UNL     1      13.713 -17.334  20.066  1.00  0.00     0.238 C 
HETATM   29  N10 UNL     1      12.316 -17.018  20.076  1.00  0.00    -0.073 N 
HETATM   30  C20 UNL     1      11.497 -18.124  20.542  1.00  0.00     0.272 C 
HETATM   31  C21 UNL     1      11.875 -16.684  18.743  1.00  0.00     0.272 C 
HETATM   32  C22 UNL     1      12.165 -15.893  20.985  1.00  0.00     0.262 C 
ENDBRANCH  22  26
BRANCH  17  33
HETATM   33  C11 UNL     1      18.014 -12.080  21.417  1.00  0.00     0.082 C 
HETATM   34  C12 UNL     1      18.648 -13.434  21.530  1.00  0.00     0.042 C 
HETATM   35  C13 UNL     1      19.293 -13.662  20.171  1.00  0.00     0.237 C 
HETATM   36  N8  UNL     1      19.780 -12.362  19.832  1.00  0.00    -0.074 N 
HETATM   37  C14 UNL     1      19.813 -12.293  18.364  1.00  0.00     0.272 C 
HETATM   38  C15 UNL     1      21.135 -12.111  20.278  1.00  0.00     0.272 C 
HETATM   39  C16 UNL     1      18.843 -11.399  20.361  1.00  0.00     0.248 C 
ENDBRANCH  17  33
ENDBRANCH  13  17
ENDBRANCH   6   9
ENDBRANCH   4   5
ENDBRANCH   1   4
TORSDOF 6
ENDMDL
MODEL 3
REMARK VINA RESULT: -7.674589514      3.004      7.608
REMARK  6 active torsions:
REMARK  status: ('A' for Active; 'I' for Inactive)
REMARK       I    between atoms: C2_4  and  N2_5 
REMARK       I    between atoms: C2_4  and  N9_31 
REMARK    1  A    between atoms: C3_7  and  N3_8 
REMARK    2  A    between atoms: C3_7  and  C11_24 
REMARK       I    between atoms: N3_8  and  C4_10 
REMARK       I    between atoms: N5_12  and  C5_14 
REMARK    3  A    between atoms: C5_14  and  C6_16 
REMARK    4  A    between atoms: N6_18  and  C8_20 
REMARK    5  A    between atoms: C8_20  and  C9_21 
REMARK    6  A    between atoms: N9_31  and  C17_33 
ROOT
HETATM    1  C9  UNL     1      20.404 -13.906  26.317  1.00  0.00     0.143 C 
HETATM    2  C10 UNL     1      19.295 -14.773  25.938  1.00  0.00     0.060 C 
HETATM    3  N7  UNL     1      18.412 -15.473  25.636  1.00  0.00    -0.197 NA
ENDROOT
BRANCH   1   4
HETATM    4  C8  UNL     1      20.731 -12.908  25.228  1.00  0.00     0.134 C 
BRANCH   4   5
HETATM    5  N6  UNL     1      19.916 -13.106  24.053  1.00  0.00    -0.388 N 
HETATM    6  C6  UNL     1      20.493 -13.440  22.934  1.00  0.00     0.070 C 
HETATM    7  C7  UNL     1      21.968 -13.611  22.867  1.00  0.00     0.074 C 
ATOM      8  H6  UNL     1      18.904 -12.986  24.098  1.00  0.00     0.159 HD
BRANCH   6   9
HETATM    9  C5  UNL     1      19.727 -13.654  21.713  1.00  0.00     0.269 C 
HETATM   10  N5  UNL     1      18.968 -12.636  21.124  1.00  0.00    -0.296 N 
HETATM   11  C4  UNL     1      17.724 -12.682  20.863  1.00  0.00     0.196 C 
ATOM     12  H5  UNL     1      19.458 -11.775  20.882  1.00  0.00     0.171 HD
HETATM   13  N3  UNL     1      17.115 -11.545  20.258  1.00  0.00    -0.319 N 
HETATM   14  N4  UNL     1      16.995 -13.849  21.175  1.00  0.00    -0.063 NA
ATOM     15  H3  UNL     1      17.724 -10.825  19.868  1.00  0.00     0.169 HD
HETATM   16  O1  UNL     1      19.769 -14.816  21.186  1.00  0.00    -0.266 OA
BRANCH  13  17
HETATM   17  C3  UNL     1      15.719 -11.353  20.165  1.00  0.00     0.105 C 
HETATM   18  N2  UNL     1      15.118 -11.472  19.060  1.00  0.00    -0.180 N 
HETATM   19  C2  UNL     1      15.664 -11.793  17.797  1.00  0.00     0.675 C 
ATOM     20  H2  UNL     1      14.111 -11.315  19.083  1.00  0.00     0.185 HD
HETATM   21  N1  UNL     1      16.721 -11.239  17.381  1.00  0.00    -0.231 N 
HETATM   22  N9  UNL     1      14.996 -12.747  16.996  1.00  0.00    -0.220 N 
HETATM   23  C1  UNL     1      17.415 -11.427  16.153  1.00  0.00     0.165 C 
ATOM     24  H1  UNL     1      17.137 -10.559  18.017  1.00  0.00     0.177 HD
ATOM     25  H9  UNL     1      14.084 -12.520  16.599  1.00  0.00     0.178 HD
BRANCH  22  26
HETATM   26  C17 UNL     1      15.583 -14.036  16.733  1.00  0.00     0.127 C 
HETATM   27  C18 UNL     1      16.199 -14.589  17.971  1.00  0.00     0.055 C 
HETATM   28  C19 UNL     1      15.511 -15.916  18.169  1.00  0.00     0.238 C 
HETATM   29  N10 UNL     1      15.068 -16.266  16.853  1.00  0.00    -0.073 N 
HETATM   30  C20 UNL     1      14.023 -17.276  16.865  1.00  0.00     0.272 C 
HETATM   31  C21 UNL     1      16.170 -16.793  16.084  1.00  0.00     0.272 C 
HETATM   32  C22 UNL     1      14.547 -15.042  16.266  1.00  0.00     0.262 C 
ENDBRANCH  22  26
BRANCH  17  33
HETATM   33  C11 UNL     1      14.906 -11.002  21.357  1.00  0.00     0.082 C 
HETATM   34  C12 UNL     1      13.957  -9.865  21.115  1.00  0.00     0.042 C 
HETATM   35  C13 UNL     1      12.641 -10.542  20.766  1.00  0.00     0.237 C 
HETATM   36  N8  UNL     1      12.631 -11.677  21.636  1.00  0.00    -0.074 N 
HETATM   37  C14 UNL     1      11.816 -12.707  20.975  1.00  0.00     0.272 C 
HETATM   38  C15 UNL     1      12.003 -11.427  22.916  1.00  0.00     0.272 C 
HETATM   39  C16 UNL     1      13.996 -12.127  21.774  1.00  0.00     0.248 C 
ENDBRANCH  17  33
ENDBRANCH  13  17
ENDBRANCH   6   9
ENDBRANCH   4   5
ENDBRANCH   1   4
TORSDOF 6
ENDMDL
MODEL 4
REMARK VINA RESULT: -7.519189967      2.698      5.651
REMARK  6 active torsions:
REMARK  status: ('A' for Active; 'I' for Inactive)
REMARK       I    between atoms: C2_4  and  N2_5 
REMARK       I    between atoms: C2_4  and  N9_31 
REMARK    1  A    between atoms: C3_7  and  N3_8 
REMARK    2  A    between atoms: C3_7  and  C11_24 
REMARK       I    between atoms: N3_8  and  C4_10 
REMARK       I    between atoms: N5_12  and  C5_14 
REMARK    3  A    between atoms: C5_14  and  C6_16 
REMARK    4  A    between atoms: N6_18  and  C8_20 
REMARK    5  A    between atoms: C8_20  and  C9_21 
REMARK    6  A    between atoms: N9_31  and  C17_33 
ROOT
HETATM    1  C9  UNL     1      17.068 -11.174  11.233  1.00  0.00     0.143 C 
HETATM    2  C10 UNL     1      17.883 -10.057  11.697  1.00  0.00     0.060 C 
HETATM    3  N7  UNL     1      18.540  -9.168  12.065  1.00  0.00    -0.197 NA
ENDROOT
BRANCH   1   4
HETATM    4  C8  UNL     1      16.303 -11.818  12.369  1.00  0.00     0.134 C 
BRANCH   4   5
HETATM    5  N6  UNL     1      17.040 -11.774  13.609  1.00  0.00    -0.388 N 
HETATM    6  C6  UNL     1      16.525 -12.328  14.669  1.00  0.00     0.070 C 
HETATM    7  C7  UNL     1      15.197 -12.992  14.603  1.00  0.00     0.074 C 
ATOM      8  H6  UNL     1      17.951 -11.316  13.654  1.00  0.00     0.159 HD
BRANCH   6   9
HETATM    9  C5  UNL     1      17.218 -12.317  15.951  1.00  0.00     0.269 C 
HETATM   10  N5  UNL     1      16.699 -12.958  17.082  1.00  0.00    -0.296 N 
HETATM   11  C4  UNL     1      16.459 -12.417  18.207  1.00  0.00     0.196 C 
ATOM     12  H5  UNL     1      16.492 -13.952  16.995  1.00  0.00     0.171 HD
HETATM   13  N3  UNL     1      15.928 -13.228  19.252  1.00  0.00    -0.319 N 
HETATM   14  N4  UNL     1      16.726 -11.043  18.385  1.00  0.00    -0.063 NA
ATOM     15  H3  UNL     1      15.955 -14.240  19.132  1.00  0.00     0.169 HD
HETATM   16  O1  UNL     1      18.333 -11.697  16.014  1.00  0.00    -0.266 OA
BRANCH  13  17
HETATM   17  C3  UNL     1      15.367 -12.716  20.442  1.00  0.00     0.105 C 
HETATM   18  N2  UNL     1      15.553 -13.293  21.549  1.00  0.00    -0.180 N 
HETATM   19  C2  UNL     1      16.294 -14.468  21.811  1.00  0.00     0.675 C 
ATOM     20  H2  UNL     1      15.111 -12.856  22.358  1.00  0.00     0.185 HD
HETATM   21  N1  UNL     1      16.177 -15.491  21.079  1.00  0.00    -0.231 N 
HETATM   22  N9  UNL     1      17.169 -14.480  22.921  1.00  0.00    -0.220 N 
HETATM   23  C1  UNL     1      16.829 -16.752  21.180  1.00  0.00     0.165 C 
ATOM     24  H1  UNL     1      15.521 -15.401  20.303  1.00  0.00     0.177 HD
ATOM     25  H9  UNL     1      16.784 -14.455  23.865  1.00  0.00     0.178 HD
BRANCH  22  26
HETATM   26  C17 UNL     1      18.597 -14.529  22.739  1.00  0.00     0.127 C 
HETATM   27  C18 UNL     1      19.183 -13.165  22.860  1.00  0.00     0.055 C 
HETATM   28  C19 UNL     1      20.198 -13.293  23.968  1.00  0.00     0.238 C 
HETATM   29  N10 UNL     1      20.527 -14.686  23.965  1.00  0.00    -0.073 N 
HETATM   30  C20 UNL     1      21.149 -15.116  25.206  1.00  0.00     0.272 C 
HETATM   31  C21 UNL     1      21.451 -14.975  22.894  1.00  0.00     0.272 C 
HETATM   32  C22 UNL     1      19.270 -15.395  23.788  1.00  0.00     0.262 C 
ENDBRANCH  22  26
BRANCH  17  33
HETATM   33  C11 UNL     1      14.537 -11.483  20.438  1.00  0.00     0.082 C 
HETATM   34  C12 UNL     1      13.290 -11.611  19.614  1.00  0.00     0.042 C 
HETATM   35  C13 UNL     1      12.214 -11.995  20.619  1.00  0.00     0.237 C 
HETATM   36  N8  UNL     1      12.571 -11.225  21.770  1.00  0.00    -0.074 N 
HETATM   37  C14 UNL     1      12.065 -11.958  22.940  1.00  0.00     0.272 C 
HETATM   38  C15 UNL     1      11.951  -9.918  21.814  1.00  0.00     0.272 C 
HETATM   39  C16 UNL     1      14.012 -11.150  21.809  1.00  0.00     0.248 C 
ENDBRANCH  17  33
ENDBRANCH  13  17
ENDBRANCH   6   9
ENDBRANCH   4   5
ENDBRANCH   1   4
TORSDOF 6
ENDMDL
MODEL 5
REMARK VINA RESULT: -7.515846807      2.730      7.618
REMARK  6 active torsions:
REMARK  status: ('A' for Active; 'I' for Inactive)
REMARK       I    between atoms: C2_4  and  N2_5 
REMARK       I    between atoms: C2_4  and  N9_31 
REMARK    1  A    between atoms: C3_7  and  N3_8 
REMARK    2  A    between atoms: C3_7  and  C11_24 
REMARK       I    between atoms: N3_8  and  C4_10 
REMARK       I    between atoms: N5_12  and  C5_14 
REMARK    3  A    between atoms: C5_14  and  C6_16 
REMARK    4  A    between atoms: N6_18  and  C8_20 
REMARK    5  A    between atoms: C8_20  and  C9_21 
REMARK    6  A    between atoms: N9_31  and  C17_33 
ROOT
HETATM    1  C9  UNL     1      18.805 -14.251  24.100  1.00  0.00     0.143 C 
HETATM    2  C10 UNL     1      17.866 -14.968  23.246  1.00  0.00     0.060 C 
HETATM    3  N7  UNL     1      17.118 -15.548  22.565  1.00  0.00    -0.197 NA
ENDROOT
BRANCH   1   4
HETATM    4  C8  UNL     1      19.665 -13.292  23.305  1.00  0.00     0.134 C 
BRANCH   4   5
HETATM    5  N6  UNL     1      19.077 -12.975  22.026  1.00  0.00    -0.388 N 
HETATM    6  C6  UNL     1      19.859 -12.798  20.999  1.00  0.00     0.070 C 
HETATM    7  C7  UNL     1      21.334 -12.917  21.144  1.00  0.00     0.074 C 
ATOM      8  H6  UNL     1      18.066 -12.891  21.927  1.00  0.00     0.159 HD
BRANCH   6   9
HETATM    9  C5  UNL     1      19.329 -12.475  19.681  1.00  0.00     0.269 C 
HETATM   10  N5  UNL     1      18.116 -11.796  19.514  1.00  0.00    -0.296 N 
HETATM   11  C4  UNL     1      17.113 -12.203  18.846  1.00  0.00     0.196 C 
ATOM     12  H5  UNL     1      18.027 -10.889  19.972  1.00  0.00     0.171 HD
HETATM   13  N3  UNL     1      15.956 -11.374  18.785  1.00  0.00    -0.319 N 
HETATM   14  N4  UNL     1      17.179 -13.451  18.190  1.00  0.00    -0.063 NA
ATOM     15  H3  UNL     1      16.042 -10.407  19.097  1.00  0.00     0.169 HD
HETATM   16  O1  UNL     1      20.013 -12.835  18.664  1.00  0.00    -0.266 OA
BRANCH  13  17
HETATM   17  C3  UNL     1      14.696 -11.810  18.320  1.00  0.00     0.105 C 
HETATM   18  N2  UNL     1      14.415 -11.790  17.089  1.00  0.00    -0.180 N 
HETATM   19  C2  UNL     1      15.227 -11.368  16.012  1.00  0.00     0.675 C 
ATOM     20  H2  UNL     1      13.483 -12.121  16.840  1.00  0.00     0.185 HD
HETATM   21  N1  UNL     1      15.888 -10.292  16.074  1.00  0.00    -0.231 N 
HETATM   22  N9  UNL     1      15.279 -12.172  14.851  1.00  0.00    -0.220 N 
HETATM   23  C1  UNL     1      16.750  -9.707  15.105  1.00  0.00     0.165 C 
ATOM     24  H1  UNL     1      15.790  -9.769  16.944  1.00  0.00     0.177 HD
ATOM     25  H9  UNL     1      14.453 -12.255  14.259  1.00  0.00     0.178 HD
BRANCH  22  26
HETATM   26  C17 UNL     1      16.483 -12.876  14.491  1.00  0.00     0.127 C 
HETATM   27  C18 UNL     1      16.323 -14.336  14.735  1.00  0.00     0.055 C 
HETATM   28  C19 UNL     1      16.593 -14.971  13.394  1.00  0.00     0.238 C 
HETATM   29  N10 UNL     1      17.404 -14.003  12.720  1.00  0.00    -0.073 N 
HETATM   30  C20 UNL     1      17.427 -14.198  11.280  1.00  0.00     0.272 C 
HETATM   31  C21 UNL     1      18.766 -14.086  13.190  1.00  0.00     0.272 C 
HETATM   32  C22 UNL     1      16.815 -12.708  13.019  1.00  0.00     0.262 C 
ENDBRANCH  22  26
BRANCH  17  33
HETATM   33  C11 UNL     1      13.654 -12.303  19.257  1.00  0.00     0.082 C 
HETATM   34  C12 UNL     1      14.214 -13.078  20.412  1.00  0.00     0.042 C 
HETATM   35  C13 UNL     1      14.336 -12.053  21.530  1.00  0.00     0.237 C 
HETATM   36  N8  UNL     1      13.169 -11.249  21.346  1.00  0.00    -0.074 N 
HETATM   37  C14 UNL     1      13.487  -9.916  21.880  1.00  0.00     0.272 C 
HETATM   38  C15 UNL     1      12.015 -11.714  22.086  1.00  0.00     0.272 C 
HETATM   39  C16 UNL     1      12.915 -11.174  19.926  1.00  0.00     0.248 C 
ENDBRANCH  17  33
ENDBRANCH  13  17
ENDBRANCH   6   9
ENDBRANCH   4   5
ENDBRANCH   1   4
TORSDOF 6
ENDMDL
