MODEL 1
REMARK VINA RESULT: -8.982477547      0.000      0.000
REMARK  7 active torsions:
REMARK  status: ('A' for Active; 'I' for Inactive)
REMARK    1  A    between atoms: C3_3  and  N1_4 
REMARK    2  A    between atoms: N2_7  and  C6_8 
REMARK    3  A    between atoms: C6_8  and  C7_9 
REMARK       I    between atoms: C7_9  and  N3_11 
REMARK    4  A    between atoms: C11_15  and  O2_17 
REMARK    5  A    between atoms: C13_19  and  C14_20 
REMARK    6  A    between atoms: C14_20  and  C15_21 
REMARK    7  A    between atoms: C15_21  and  O3_22 
ROOT
HETATM    1  C1  UNL     1      24.182 -13.292  24.077  1.00  0.00     0.013 C 
HETATM    2  C2  UNL     1      23.333 -14.002  24.580  1.00  0.00    -0.089 C 
HETATM    3  C3  UNL     1      22.295 -14.863  25.164  1.00  0.00     0.330 C 
ENDROOT
BRANCH   3   4
HETATM    4  N1  UNL     1      21.096 -14.679  24.395  1.00  0.00    -0.052 N 
HETATM    5  C4  UNL     1      20.513 -13.349  24.624  1.00  0.00     0.266 C 
HETATM    6  C5  UNL     1      19.073 -13.462  24.208  1.00  0.00     0.266 C 
HETATM    7  N2  UNL     1      18.948 -14.430  23.096  1.00  0.00    -0.054 N 
HETATM    8  C23 UNL     1      20.093 -14.183  22.258  1.00  0.00     0.266 C 
HETATM    9  C25 UNL     1      19.091 -15.748  23.660  1.00  0.00     0.266 C 
HETATM   10  C24 UNL     1      21.310 -14.785  22.971  1.00  0.00     0.266 C 
HETATM   11  C26 UNL     1      20.063 -15.614  24.843  1.00  0.00     0.266 C 
BRANCH   7  12
HETATM   12  C6  UNL     1      17.685 -14.165  22.485  1.00  0.00     0.340 C 
BRANCH  12  13
HETATM   13  C7  UNL     1      17.626 -14.344  21.034  1.00  0.00     0.247 C 
HETATM   14  O1  UNL     1      17.901 -15.486  20.570  1.00  0.00    -0.271 OA
HETATM   15  N3  UNL     1      17.270 -13.272  20.138  1.00  0.00    -0.326 N 
HETATM   16  C8  UNL     1      17.276 -13.685  18.749  1.00  0.00     0.165 C 
HETATM   17  C21 UNL     1      16.979 -12.004  20.764  1.00  0.00     0.182 C 
HETATM   18  C9  UNL     1      16.779 -12.660  17.830  1.00  0.00    -0.032 C 
HETATM   19  C10 UNL     1      17.606 -12.202  16.903  1.00  0.00     0.019 C 
HETATM   20  C11 UNL     1      15.360 -12.070  17.852  1.00  0.00     0.120 C 
HETATM   21  C12 UNL     1      14.508 -13.132  17.214  1.00  0.00     0.058 C 
HETATM   22  C13 UNL     1      15.054 -11.885  19.283  1.00  0.00     0.044 C 
HETATM   23  N4  UNL     1      16.135 -11.144  19.966  1.00  0.00    -0.370 N 
ATOM     24  H4  UNL     1      16.270 -10.136  19.884  1.00  0.00     0.161 HD
HETATM   25  C22 UNL     1      18.289 -11.280  21.012  1.00  0.00     0.056 C 
BRANCH  20  26
HETATM   26  O2  UNL     1      15.449 -10.975  17.052  1.00  0.00    -0.379 OA
ATOM     27  H2  UNL     1      14.545 -10.723  16.909  1.00  0.00     0.211 HD
ENDBRANCH  20  26
BRANCH  22  28
HETATM   28  C14 UNL     1      13.732 -11.504  19.770  1.00  0.00     0.038 C 
BRANCH  28  29
HETATM   29  C15 UNL     1      13.422 -11.148  21.150  1.00  0.00     0.077 C 
HETATM   30  C16 UNL     1      11.960 -11.767  21.390  1.00  0.00     0.042 C 
HETATM   31  C17 UNL     1      11.706 -11.595  22.848  1.00  0.00     0.003 C 
HETATM   32  C18 UNL     1      11.567 -10.131  23.215  1.00  0.00     0.000 C 
HETATM   33  C19 UNL     1      12.824  -9.415  22.851  1.00  0.00     0.003 C 
HETATM   34  C20 UNL     1      13.182  -9.712  21.392  1.00  0.00     0.042 C 
BRANCH  29  35
HETATM   35  O3  UNL     1      14.112 -11.849  22.128  1.00  0.00    -0.386 OA
ATOM     36  H3  UNL     1      14.805 -11.373  22.570  1.00  0.00     0.211 HD
ENDBRANCH  29  35
ENDBRANCH  28  29
ENDBRANCH  22  28
ENDBRANCH  12  13
ENDBRANCH   7  12
ENDBRANCH   3   4
TORSDOF 7
ENDMDL
MODEL 2
REMARK VINA RESULT: -8.926325021      0.156      1.003
REMARK  7 active torsions:
REMARK  status: ('A' for Active; 'I' for Inactive)
REMARK    1  A    between atoms: C3_3  and  N1_4 
REMARK    2  A    between atoms: N2_7  and  C6_8 
REMARK    3  A    between atoms: C6_8  and  C7_9 
REMARK       I    between atoms: C7_9  and  N3_11 
REMARK    4  A    between atoms: C11_15  and  O2_17 
REMARK    5  A    between atoms: C13_19  and  C14_20 
REMARK    6  A    between atoms: C14_20  and  C15_21 
REMARK    7  A    between atoms: C15_21  and  O3_22 
ROOT
HETATM    1  C1  UNL     1      24.210 -13.289  24.072  1.00  0.00     0.013 C 
HETATM    2  C2  UNL     1      23.426 -14.156  24.408  1.00  0.00    -0.089 C 
HETATM    3  C3  UNL     1      22.465 -15.200  24.792  1.00  0.00     0.330 C 
ENDROOT
BRANCH   3   4
HETATM    4  N1  UNL     1      21.196 -14.851  24.217  1.00  0.00    -0.052 N 
HETATM    5  C4  UNL     1      20.138 -15.771  24.663  1.00  0.00     0.266 C 
HETATM    6  C5  UNL     1      19.037 -15.643  23.647  1.00  0.00     0.266 C 
HETATM    7  N2  UNL     1      19.003 -14.261  23.118  1.00  0.00    -0.054 N 
HETATM    8  C23 UNL     1      19.255 -13.420  24.259  1.00  0.00     0.266 C 
HETATM    9  C25 UNL     1      20.118 -14.123  22.215  1.00  0.00     0.266 C 
HETATM   10  C24 UNL     1      20.753 -13.525  24.574  1.00  0.00     0.266 C 
HETATM   11  C26 UNL     1      21.238 -15.020  22.764  1.00  0.00     0.266 C 
BRANCH   7  12
HETATM   12  C6  UNL     1      17.716 -14.100  22.521  1.00  0.00     0.340 C 
BRANCH  12  13
HETATM   13  C7  UNL     1      17.652 -14.296  21.073  1.00  0.00     0.247 C 
HETATM   14  O1  UNL     1      17.936 -15.441  20.621  1.00  0.00    -0.271 OA
HETATM   15  N3  UNL     1      17.282 -13.238  20.167  1.00  0.00    -0.326 N 
HETATM   16  C8  UNL     1      17.286 -13.667  18.782  1.00  0.00     0.165 C 
HETATM   17  C21 UNL     1      16.982 -11.966  20.779  1.00  0.00     0.182 C 
HETATM   18  C9  UNL     1      16.776 -12.658  17.853  1.00  0.00    -0.032 C 
HETATM   19  C10 UNL     1      17.594 -12.203  16.918  1.00  0.00     0.019 C 
HETATM   20  C11 UNL     1      15.352 -12.081  17.875  1.00  0.00     0.120 C 
HETATM   21  C12 UNL     1      14.506 -13.158  17.253  1.00  0.00     0.058 C 
HETATM   22  C13 UNL     1      15.050 -11.882  19.305  1.00  0.00     0.044 C 
HETATM   23  N4  UNL     1      16.127 -11.123  19.975  1.00  0.00    -0.370 N 
ATOM     24  H4  UNL     1      16.252 -10.115  19.880  1.00  0.00     0.161 HD
HETATM   25  C22 UNL     1      18.287 -11.226  21.013  1.00  0.00     0.056 C 
BRANCH  20  26
HETATM   26  O2  UNL     1      15.427 -10.995  17.062  1.00  0.00    -0.379 OA
ATOM     27  H2  UNL     1      16.331 -10.714  17.139  1.00  0.00     0.211 HD
ENDBRANCH  20  26
BRANCH  22  28
HETATM   28  C14 UNL     1      13.726 -11.508  19.793  1.00  0.00     0.038 C 
BRANCH  28  29
HETATM   29  C15 UNL     1      13.417 -11.148  21.173  1.00  0.00     0.077 C 
HETATM   30  C16 UNL     1      11.946 -11.747  21.407  1.00  0.00     0.042 C 
HETATM   31  C17 UNL     1      11.690 -11.573  22.865  1.00  0.00     0.003 C 
HETATM   32  C18 UNL     1      11.570 -10.108  23.232  1.00  0.00     0.000 C 
HETATM   33  C19 UNL     1      12.838  -9.408  22.873  1.00  0.00     0.003 C 
HETATM   34  C20 UNL     1      13.195  -9.709  21.415  1.00  0.00     0.042 C 
BRANCH  29  35
HETATM   35  O3  UNL     1      14.095 -11.859  22.152  1.00  0.00    -0.386 OA
ATOM     36  H3  UNL     1      13.696 -12.678  22.423  1.00  0.00     0.211 HD
ENDBRANCH  29  35
ENDBRANCH  28  29
ENDBRANCH  22  28
ENDBRANCH  12  13
ENDBRANCH   7  12
ENDBRANCH   3   4
TORSDOF 7
ENDMDL
MODEL 3
REMARK VINA RESULT: -8.453304064      1.103      1.494
REMARK  7 active torsions:
REMARK  status: ('A' for Active; 'I' for Inactive)
REMARK    1  A    between atoms: C3_3  and  N1_4 
REMARK    2  A    between atoms: N2_7  and  C6_8 
REMARK    3  A    between atoms: C6_8  and  C7_9 
REMARK       I    between atoms: C7_9  and  N3_11 
REMARK    4  A    between atoms: C11_15  and  O2_17 
REMARK    5  A    between atoms: C13_19  and  C14_20 
REMARK    6  A    between atoms: C14_20  and  C15_21 
REMARK    7  A    between atoms: C15_21  and  O3_22 
ROOT
HETATM    1  C1  UNL     1      24.474 -13.291  24.089  1.00  0.00     0.013 C 
HETATM    2  C2  UNL     1      23.742 -14.251  24.235  1.00  0.00    -0.089 C 
HETATM    3  C3  UNL     1      22.843 -15.403  24.392  1.00  0.00     0.330 C 
ENDROOT
BRANCH   3   4
HETATM    4  N1  UNL     1      21.519 -14.970  24.040  1.00  0.00    -0.052 N 
HETATM    5  C4  UNL     1      21.391 -13.508  24.144  1.00  0.00     0.266 C 
HETATM    6  C5  UNL     1      19.916 -13.240  24.262  1.00  0.00     0.266 C 
HETATM    7  N2  UNL     1      19.160 -14.259  23.500  1.00  0.00    -0.054 N 
HETATM    8  C23 UNL     1      19.926 -14.470  22.299  1.00  0.00     0.266 C 
HETATM    9  C25 UNL     1      19.197 -15.479  24.266  1.00  0.00     0.266 C 
HETATM   10  C24 UNL     1      21.148 -15.311  22.688  1.00  0.00     0.266 C 
HETATM   11  C26 UNL     1      20.546 -15.492  25.001  1.00  0.00     0.266 C 
BRANCH   7  12
HETATM   12  C6  UNL     1      17.857 -13.710  23.296  1.00  0.00     0.340 C 
BRANCH  12  13
HETATM   13  C7  UNL     1      17.162 -14.146  22.085  1.00  0.00     0.247 C 
HETATM   14  O1  UNL     1      16.828 -15.361  22.003  1.00  0.00    -0.271 OA
HETATM   15  N3  UNL     1      16.855 -13.243  21.004  1.00  0.00    -0.326 N 
HETATM   16  C8  UNL     1      16.162 -13.898  19.913  1.00  0.00     0.165 C 
HETATM   17  C21 UNL     1      17.283 -11.877  21.190  1.00  0.00     0.182 C 
HETATM   18  C9  UNL     1      15.710 -12.979  18.868  1.00  0.00    -0.032 C 
HETATM   19  C10 UNL     1      16.193 -13.140  17.646  1.00  0.00     0.019 C 
HETATM   20  C11 UNL     1      14.707 -11.833  19.077  1.00  0.00     0.120 C 
HETATM   21  C12 UNL     1      13.369 -12.517  19.128  1.00  0.00     0.058 C 
HETATM   22  C13 UNL     1      15.085 -11.234  20.371  1.00  0.00     0.044 C 
HETATM   23  N4  UNL     1      16.529 -10.921  20.409  1.00  0.00    -0.370 N 
ATOM     24  H4  UNL     1      16.947 -10.120  19.937  1.00  0.00     0.161 HD
HETATM   25  C22 UNL     1      18.741 -11.771  20.782  1.00  0.00     0.056 C 
BRANCH  20  26
HETATM   26  O2  UNL     1      14.825 -11.086  17.947  1.00  0.00    -0.379 OA
ATOM     27  H2  UNL     1      15.144 -11.702  17.298  1.00  0.00     0.211 HD
ENDBRANCH  20  26
BRANCH  22  28
HETATM   28  C14 UNL     1      14.283 -10.216  21.040  1.00  0.00     0.038 C 
BRANCH  28  29
HETATM   29  C15 UNL     1      12.962 -10.441  21.618  1.00  0.00     0.077 C 
HETATM   30  C16 UNL     1      12.901  -9.416  22.852  1.00  0.00     0.042 C 
HETATM   31  C17 UNL     1      11.492  -9.480  23.334  1.00  0.00     0.003 C 
HETATM   32  C18 UNL     1      11.179 -10.832  23.942  1.00  0.00     0.000 C 
HETATM   33  C19 UNL     1      11.392 -11.892  22.914  1.00  0.00     0.003 C 
HETATM   34  C20 UNL     1      12.785 -11.739  22.298  1.00  0.00     0.042 C 
BRANCH  29  35
HETATM   35  O3  UNL     1      11.889  -9.957  20.886  1.00  0.00    -0.386 OA
ATOM     36  H3  UNL     1      11.029 -10.251  21.164  1.00  0.00     0.211 HD
ENDBRANCH  29  35
ENDBRANCH  28  29
ENDBRANCH  22  28
ENDBRANCH  12  13
ENDBRANCH   7  12
ENDBRANCH   3   4
TORSDOF 7
ENDMDL
MODEL 4
REMARK VINA RESULT: -8.056946122      1.371      1.886
REMARK  7 active torsions:
REMARK  status: ('A' for Active; 'I' for Inactive)
REMARK    1  A    between atoms: C3_3  and  N1_4 
REMARK    2  A    between atoms: N2_7  and  C6_8 
REMARK    3  A    between atoms: C6_8  and  C7_9 
REMARK       I    between atoms: C7_9  and  N3_11 
REMARK    4  A    between atoms: C11_15  and  O2_17 
REMARK    5  A    between atoms: C13_19  and  C14_20 
REMARK    6  A    between atoms: C14_20  and  C15_21 
REMARK    7  A    between atoms: C15_21  and  O3_22 
ROOT
HETATM    1  C1  UNL     1      22.908 -18.308  23.396  1.00  0.00     0.013 C 
HETATM    2  C2  UNL     1      22.910 -17.132  23.703  1.00  0.00    -0.089 C 
HETATM    3  C3  UNL     1      22.888 -15.712  24.081  1.00  0.00     0.330 C 
ENDROOT
BRANCH   3   4
HETATM    4  N1  UNL     1      21.583 -15.201  23.769  1.00  0.00    -0.052 N 
HETATM    5  C4  UNL     1      21.571 -13.731  23.764  1.00  0.00     0.266 C 
HETATM    6  C5  UNL     1      20.131 -13.337  23.942  1.00  0.00     0.266 C 
HETATM    7  N2  UNL     1      19.255 -14.346  23.305  1.00  0.00    -0.054 N 
HETATM    8  C23 UNL     1      19.929 -14.706  22.084  1.00  0.00     0.266 C 
HETATM    9  C25 UNL     1      19.247 -15.505  24.161  1.00  0.00     0.266 C 
HETATM   10  C24 UNL     1      21.105 -15.611  22.470  1.00  0.00     0.266 C 
HETATM   11  C26 UNL     1      20.633 -15.571  24.820  1.00  0.00     0.266 C 
BRANCH   7  12
HETATM   12  C6  UNL     1      17.988 -13.711  23.130  1.00  0.00     0.340 C 
BRANCH  12  13
HETATM   13  C7  UNL     1      17.215 -14.136  21.963  1.00  0.00     0.247 C 
HETATM   14  O1  UNL     1      16.870 -15.350  21.896  1.00  0.00    -0.271 OA
HETATM   15  N3  UNL     1      16.845 -13.226  20.909  1.00  0.00    -0.326 N 
HETATM   16  C8  UNL     1      16.080 -13.872  19.860  1.00  0.00     0.165 C 
HETATM   17  C21 UNL     1      17.291 -11.863  21.074  1.00  0.00     0.182 C 
HETATM   18  C9  UNL     1      15.568 -12.945  18.851  1.00  0.00    -0.032 C 
HETATM   19  C10 UNL     1      15.971 -13.102  17.600  1.00  0.00     0.019 C 
HETATM   20  C11 UNL     1      14.587 -11.795  19.129  1.00  0.00     0.120 C 
HETATM   21  C12 UNL     1      13.250 -12.472  19.261  1.00  0.00     0.058 C 
HETATM   22  C13 UNL     1      15.049 -11.205  20.399  1.00  0.00     0.044 C 
HETATM   23  N4  UNL     1      16.494 -10.900  20.348  1.00  0.00    -0.370 N 
ATOM     24  H4  UNL     1      16.886 -10.098  19.854  1.00  0.00     0.161 HD
HETATM   25  C22 UNL     1      18.721 -11.763  20.575  1.00  0.00     0.056 C 
BRANCH  20  26
HETATM   26  O2  UNL     1      14.637 -11.043  17.998  1.00  0.00    -0.379 OA
ATOM     27  H2  UNL     1      14.061 -11.497  17.395  1.00  0.00     0.211 HD
ENDBRANCH  20  26
BRANCH  22  28
HETATM   28  C14 UNL     1      14.296 -10.187  21.123  1.00  0.00     0.038 C 
BRANCH  28  29
HETATM   29  C15 UNL     1      12.966 -10.378  21.690  1.00  0.00     0.077 C 
HETATM   30  C16 UNL     1      12.908  -9.328  22.902  1.00  0.00     0.042 C 
HETATM   31  C17 UNL     1      11.493  -9.358  23.369  1.00  0.00     0.003 C 
HETATM   32  C18 UNL     1      11.150 -10.692  24.000  1.00  0.00     0.000 C 
HETATM   33  C19 UNL     1      11.356 -11.776  22.996  1.00  0.00     0.003 C 
HETATM   34  C20 UNL     1      12.759 -11.659  22.394  1.00  0.00     0.042 C 
BRANCH  29  35
HETATM   35  O3  UNL     1      11.909  -9.891  20.936  1.00  0.00    -0.386 OA
ATOM     36  H3  UNL     1      11.280 -10.537  20.635  1.00  0.00     0.211 HD
ENDBRANCH  29  35
ENDBRANCH  28  29
ENDBRANCH  22  28
ENDBRANCH  12  13
ENDBRANCH   7  12
ENDBRANCH   3   4
TORSDOF 7
ENDMDL
MODEL 5
REMARK VINA RESULT: -8.042869186      1.424      1.626
REMARK  7 active torsions:
REMARK  status: ('A' for Active; 'I' for Inactive)
REMARK    1  A    between atoms: C3_3  and  N1_4 
REMARK    2  A    between atoms: N2_7  and  C6_8 
REMARK    3  A    between atoms: C6_8  and  C7_9 
REMARK       I    between atoms: C7_9  and  N3_11 
REMARK    4  A    between atoms: C11_15  and  O2_17 
REMARK    5  A    between atoms: C13_19  and  C14_20 
REMARK    6  A    between atoms: C14_20  and  C15_21 
REMARK    7  A    between atoms: C15_21  and  O3_22 
ROOT
HETATM    1  C1  UNL     1      24.427 -13.163  24.089  1.00  0.00     0.013 C 
HETATM    2  C2  UNL     1      23.732 -14.160  24.084  1.00  0.00    -0.089 C 
HETATM    3  C3  UNL     1      22.878 -15.356  24.059  1.00  0.00     0.330 C 
ENDROOT
BRANCH   3   4
HETATM    4  N1  UNL     1      21.559 -14.938  23.676  1.00  0.00    -0.052 N 
HETATM    5  C4  UNL     1      20.775 -14.506  24.843  1.00  0.00     0.266 C 
HETATM    6  C5  UNL     1      19.335 -14.593  24.419  1.00  0.00     0.266 C 
HETATM    7  N2  UNL     1      19.222 -14.296  22.973  1.00  0.00    -0.054 N 
HETATM    8  C23 UNL     1      20.149 -13.219  22.741  1.00  0.00     0.266 C 
HETATM    9  C25 UNL     1      19.705 -15.453  22.261  1.00  0.00     0.266 C 
HETATM   10  C24 UNL     1      21.557 -13.825  22.757  1.00  0.00     0.266 C 
HETATM   11  C26 UNL     1      20.810 -16.072  23.131  1.00  0.00     0.266 C 
BRANCH   7  12
HETATM   12  C6  UNL     1      17.850 -13.973  22.745  1.00  0.00     0.340 C 
BRANCH  12  13
HETATM   13  C7  UNL     1      17.117 -14.880  21.862  1.00  0.00     0.247 C 
HETATM   14  O1  UNL     1      16.884 -16.048  22.282  1.00  0.00    -0.271 OA
HETATM   15  N3  UNL     1      16.664 -14.484  20.553  1.00  0.00    -0.326 N 
HETATM   16  C8  UNL     1      15.959 -15.547  19.864  1.00  0.00     0.165 C 
HETATM   17  C21 UNL     1      16.985 -13.132  20.162  1.00  0.00     0.182 C 
HETATM   18  C9  UNL     1      15.363 -15.129  18.594  1.00  0.00    -0.032 C 
HETATM   19  C10 UNL     1      15.777 -15.725  17.487  1.00  0.00     0.019 C 
HETATM   20  C11 UNL     1      14.282 -14.048  18.442  1.00  0.00     0.120 C 
HETATM   21  C12 UNL     1      13.013 -14.730  18.875  1.00  0.00     0.058 C 
HETATM   22  C13 UNL     1      14.691 -12.976  19.369  1.00  0.00     0.044 C 
HETATM   23  N4  UNL     1      16.103 -12.595  19.150  1.00  0.00    -0.370 N 
ATOM     24  H4  UNL     1      16.419 -12.018  18.371  1.00  0.00     0.161 HD
HETATM   25  C22 UNL     1      18.399 -13.114  19.611  1.00  0.00     0.056 C 
BRANCH  20  26
HETATM   26  O2  UNL     1      14.262 -13.792  17.108  1.00  0.00    -0.379 OA
ATOM     27  H2  UNL     1      13.980 -14.613  16.721  1.00  0.00     0.211 HD
ENDBRANCH  20  26
BRANCH  22  28
HETATM   28  C14 UNL     1      13.850 -11.822  19.671  1.00  0.00     0.038 C 
BRANCH  28  29
HETATM   29  C15 UNL     1      13.519 -11.360  21.014  1.00  0.00     0.077 C 
HETATM   30  C16 UNL     1      12.043 -11.937  21.268  1.00  0.00     0.042 C 
HETATM   31  C17 UNL     1      11.763 -11.653  22.705  1.00  0.00     0.003 C 
HETATM   32  C18 UNL     1      11.642 -10.164  22.959  1.00  0.00     0.000 C 
HETATM   33  C19 UNL     1      12.917  -9.496  22.569  1.00  0.00     0.003 C 
HETATM   34  C20 UNL     1      13.298  -9.906  21.143  1.00  0.00     0.042 C 
BRANCH  29  35
HETATM   35  O3  UNL     1      14.179 -11.996  22.055  1.00  0.00    -0.386 OA
ATOM     36  H3  UNL     1      13.855 -11.810  22.928  1.00  0.00     0.211 HD
ENDBRANCH  29  35
ENDBRANCH  28  29
ENDBRANCH  22  28
ENDBRANCH  12  13
ENDBRANCH   7  12
ENDBRANCH   3   4
TORSDOF 7
ENDMDL
