MODEL 1
REMARK VINA RESULT: -8.662157837      0.000      0.000
REMARK  4 active torsions:
REMARK  status: ('A' for Active; 'I' for Inactive)
REMARK    1  A    between atoms: N1_2  and  C2_3 
REMARK    2  A    between atoms: C2_3  and  C3_4 
REMARK    3  A    between atoms: C3_4  and  N2_5 
REMARK    4  A    between atoms: C3_4  and  C11_21 
REMARK       I    between atoms: N2_5  and  C4_7 
REMARK       I    between atoms: C4_7  and  N3_9 
REMARK       I    between atoms: N4_13  and  C8_14 
REMARK       I    between atoms: C11_21  and  N7_23 
ROOT
HETATM    1  C3  UNL     1      15.311 -11.648  20.535  1.00  0.00     0.204 C 
ENDROOT
BRANCH   1   2
HETATM    2  C2  UNL     1      14.788 -10.362  21.073  1.00  0.00     0.271 C 
BRANCH   2   3
HETATM    3  N1  UNL     1      13.369 -10.285  21.274  1.00  0.00    -0.069 N 
HETATM    4  C1  UNL     1      12.670  -9.558  20.230  1.00  0.00     0.272 C 
HETATM    5  C20 UNL     1      12.871 -11.645  21.255  1.00  0.00     0.237 C 
HETATM    6  C21 UNL     1      12.205 -11.894  22.560  1.00  0.00     0.029 C 
HETATM    7  C22 UNL     1      11.802 -10.508  23.022  1.00  0.00     0.029 C 
HETATM    8  C23 UNL     1      12.975  -9.678  22.526  1.00  0.00     0.237 C 
ENDBRANCH   2   3
ENDBRANCH   1   2
BRANCH   1   9
HETATM    9  N2  UNL     1      15.129 -11.659  19.078  1.00  0.00    -0.328 N 
HETATM   10  C4  UNL     1      14.945 -12.847  18.328  1.00  0.00     0.319 C 
HETATM   11  O1  UNL     1      14.932 -13.961  18.898  1.00  0.00    -0.247 OA
HETATM   12  N3  UNL     1      14.771 -12.822  16.917  1.00  0.00    -0.333 N 
HETATM   13  C5  UNL     1      14.808 -11.459  16.396  1.00  0.00     0.129 C 
HETATM   14  C10 UNL     1      14.599 -14.099  16.271  1.00  0.00     0.147 C 
HETATM   15  C6  UNL     1      14.643 -11.594  14.904  1.00  0.00     0.040 C 
HETATM   16  C7  UNL     1      15.969 -12.026  14.347  1.00  0.00     0.127 C 
HETATM   17  N4  UNL     1      16.272 -13.405  14.591  1.00  0.00    -0.354 N 
HETATM   18  C8  UNL     1      17.457 -13.801  13.921  1.00  0.00     0.184 C 
HETATM   19  C9  UNL     1      15.685 -14.476  15.336  1.00  0.00     0.145 C 
HETATM   20  N5  UNL     1      17.615 -14.988  13.425  1.00  0.00    -0.374 N 
HETATM   21  N6  UNL     1      18.565 -12.940  13.734  1.00  0.00    -0.064 NA
ATOM     22  H52 UNL     1      16.817 -15.609  13.560  1.00  0.00     0.158 HD
ATOM     23  H51 UNL     1      18.468 -15.274  12.943  1.00  0.00     0.158 HD
ATOM     24  H2  UNL     1      15.134 -10.769  18.581  1.00  0.00     0.165 HD
ENDBRANCH   1   9
BRANCH   1  25
HETATM   25  C11 UNL     1      16.796 -11.763  20.747  1.00  0.00     0.244 C 
HETATM   26  O2  UNL     1      17.562 -10.977  20.087  1.00  0.00    -0.271 OA
HETATM   27  N7  UNL     1      17.419 -12.670  21.611  1.00  0.00    -0.347 N 
HETATM   28  C12 UNL     1      16.682 -13.627  22.392  1.00  0.00     0.154 C 
HETATM   29  C19 UNL     1      18.855 -12.676  21.750  1.00  0.00     0.154 C 
HETATM   30  C13 UNL     1      17.623 -14.833  22.555  1.00  0.00     0.257 C 
HETATM   31  N8  UNL     1      18.748 -14.461  23.396  1.00  0.00    -0.064 N 
HETATM   32  C14 UNL     1      19.841 -15.401  23.252  1.00  0.00     0.237 C 
HETATM   33  C17 UNL     1      18.339 -14.656  24.794  1.00  0.00     0.237 C 
HETATM   34  C18 UNL     1      19.188 -13.123  23.156  1.00  0.00     0.257 C 
HETATM   35  C15 UNL     1      20.661 -15.246  24.512  1.00  0.00     0.029 C 
HETATM   36  C16 UNL     1      19.634 -14.892  25.543  1.00  0.00     0.029 C 
ENDBRANCH   1  25
TORSDOF 4
ENDMDL
MODEL 2
REMARK VINA RESULT: -8.542427781      3.062      6.823
REMARK  4 active torsions:
REMARK  status: ('A' for Active; 'I' for Inactive)
REMARK    1  A    between atoms: N1_2  and  C2_3 
REMARK    2  A    between atoms: C2_3  and  C3_4 
REMARK    3  A    between atoms: C3_4  and  N2_5 
REMARK    4  A    between atoms: C3_4  and  C11_21 
REMARK       I    between atoms: N2_5  and  C4_7 
REMARK       I    between atoms: C4_7  and  N3_9 
REMARK       I    between atoms: N4_13  and  C8_14 
REMARK       I    between atoms: C11_21  and  N7_23 
ROOT
HETATM    1  C3  UNL     1      17.746 -13.224  21.543  1.00  0.00     0.204 C 
ENDROOT
BRANCH   1   2
HETATM    2  C2  UNL     1      18.245 -13.689  20.220  1.00  0.00     0.271 C 
BRANCH   2   3
HETATM    3  N1  UNL     1      18.947 -12.722  19.427  1.00  0.00    -0.069 N 
HETATM    4  C1  UNL     1      18.155 -12.168  18.344  1.00  0.00     0.272 C 
HETATM    5  C20 UNL     1      19.288 -11.626  20.311  1.00  0.00     0.237 C 
HETATM    6  C21 UNL     1      20.767 -11.484  20.297  1.00  0.00     0.029 C 
HETATM    7  C22 UNL     1      21.165 -12.073  18.958  1.00  0.00     0.029 C 
HETATM    8  C23 UNL     1      20.168 -13.212  18.827  1.00  0.00     0.237 C 
ENDBRANCH   2   3
ENDBRANCH   1   2
BRANCH   1   9
HETATM    9  N2  UNL     1      16.285 -13.094  21.478  1.00  0.00    -0.328 N 
HETATM   10  C4  UNL     1      15.625 -11.869  21.211  1.00  0.00     0.319 C 
HETATM   11  O1  UNL     1      16.285 -10.824  21.016  1.00  0.00    -0.247 OA
HETATM   12  N3  UNL     1      14.207 -11.780  21.155  1.00  0.00    -0.333 N 
HETATM   13  C5  UNL     1      13.577 -13.073  21.400  1.00  0.00     0.129 C 
HETATM   14  C10 UNL     1      13.660 -10.474  20.880  1.00  0.00     0.147 C 
HETATM   15  C6  UNL     1      12.094 -12.816  21.340  1.00  0.00     0.040 C 
HETATM   16  C7  UNL     1      11.698 -12.185  22.643  1.00  0.00     0.127 C 
HETATM   17  N4  UNL     1      12.085 -10.809  22.755  1.00  0.00    -0.354 N 
HETATM   18  C8  UNL     1      11.562 -10.218  23.932  1.00  0.00     0.184 C 
HETATM   19  C9  UNL     1      12.862  -9.888  21.983  1.00  0.00     0.145 C 
HETATM   20  N5  UNL     1      11.185  -8.978  23.984  1.00  0.00    -0.374 N 
HETATM   21  N6  UNL     1      11.403 -10.925  25.148  1.00  0.00    -0.064 NA
ATOM     22  H52 UNL     1      11.299  -8.469  23.107  1.00  0.00     0.158 HD
ATOM     23  H51 UNL     1      10.808  -8.553  24.831  1.00  0.00     0.158 HD
ATOM     24  H2  UNL     1      15.716 -13.927  21.632  1.00  0.00     0.165 HD
ENDBRANCH   1   9
BRANCH   1  25
HETATM   25  C11 UNL     1      18.003 -14.249  22.614  1.00  0.00     0.244 C 
HETATM   26  O2  UNL     1      17.049 -15.043  22.929  1.00  0.00    -0.271 OA
HETATM   27  N7  UNL     1      19.209 -14.407  23.305  1.00  0.00    -0.347 N 
HETATM   28  C12 UNL     1      20.353 -13.569  23.070  1.00  0.00     0.154 C 
HETATM   29  C19 UNL     1      19.348 -15.443  24.300  1.00  0.00     0.154 C 
HETATM   30  C13 UNL     1      21.100 -13.510  24.413  1.00  0.00     0.257 C 
HETATM   31  N8  UNL     1      21.660 -14.817  24.714  1.00  0.00    -0.064 N 
HETATM   32  C14 UNL     1      22.010 -14.925  26.115  1.00  0.00     0.237 C 
HETATM   33  C17 UNL     1      22.967 -14.904  24.048  1.00  0.00     0.237 C 
HETATM   34  C18 UNL     1      20.794 -15.883  24.319  1.00  0.00     0.257 C 
HETATM   35  C15 UNL     1      23.038 -16.031  26.180  1.00  0.00     0.029 C 
HETATM   36  C16 UNL     1      23.749 -15.910  24.867  1.00  0.00     0.029 C 
ENDBRANCH   1  25
TORSDOF 4
ENDMDL
MODEL 3
REMARK VINA RESULT: -8.378021218      1.821      7.430
REMARK  4 active torsions:
REMARK  status: ('A' for Active; 'I' for Inactive)
REMARK    1  A    between atoms: N1_2  and  C2_3 
REMARK    2  A    between atoms: C2_3  and  C3_4 
REMARK    3  A    between atoms: C3_4  and  N2_5 
REMARK    4  A    between atoms: C3_4  and  C11_21 
REMARK       I    between atoms: N2_5  and  C4_7 
REMARK       I    between atoms: C4_7  and  N3_9 
REMARK       I    between atoms: N4_13  and  C8_14 
REMARK       I    between atoms: C11_21  and  N7_23 
ROOT
HETATM    1  C3  UNL     1      15.642 -12.784  21.196  1.00  0.00     0.204 C 
ENDROOT
BRANCH   1   2
HETATM    2  C2  UNL     1      14.240 -12.860  21.693  1.00  0.00     0.271 C 
BRANCH   2   3
HETATM    3  N1  UNL     1      13.382 -11.763  21.349  1.00  0.00    -0.069 N 
HETATM    4  C1  UNL     1      12.945 -11.774  19.964  1.00  0.00     0.272 C 
HETATM    5  C20 UNL     1      12.197 -11.887  22.172  1.00  0.00     0.237 C 
HETATM    6  C21 UNL     1      12.080 -10.644  22.977  1.00  0.00     0.029 C 
HETATM    7  C22 UNL     1      12.825  -9.616  22.150  1.00  0.00     0.029 C 
HETATM    8  C23 UNL     1      13.957 -10.457  21.583  1.00  0.00     0.237 C 
ENDBRANCH   2   3
ENDBRANCH   1   2
BRANCH   1   9
HETATM    9  N2  UNL     1      16.537 -13.330  22.224  1.00  0.00    -0.328 N 
HETATM   10  C4  UNL     1      17.934 -13.098  22.241  1.00  0.00     0.319 C 
HETATM   11  O1  UNL     1      18.470 -12.396  21.353  1.00  0.00    -0.247 OA
HETATM   12  N3  UNL     1      18.772 -13.642  23.252  1.00  0.00    -0.333 N 
HETATM   13  C5  UNL     1      18.010 -14.432  24.213  1.00  0.00     0.129 C 
HETATM   14  C10 UNL     1      20.177 -13.335  23.152  1.00  0.00     0.147 C 
HETATM   15  C6  UNL     1      19.024 -14.963  25.192  1.00  0.00     0.040 C 
HETATM   16  C7  UNL     1      19.716 -16.120  24.533  1.00  0.00     0.127 C 
HETATM   17  N4  UNL     1      20.664 -15.727  23.532  1.00  0.00    -0.354 N 
HETATM   18  C8  UNL     1      21.396 -16.840  23.047  1.00  0.00     0.184 C 
HETATM   19  C9  UNL     1      21.055 -14.503  22.903  1.00  0.00     0.145 C 
HETATM   20  N5  UNL     1      22.641 -16.757  22.695  1.00  0.00    -0.374 N 
HETATM   21  N6  UNL     1      20.836 -18.132  22.906  1.00  0.00    -0.064 NA
ATOM     22  H52 UNL     1      23.045 -15.826  22.796  1.00  0.00     0.158 HD
ATOM     23  H51 UNL     1      23.168 -17.558  22.345  1.00  0.00     0.158 HD
ATOM     24  H2  UNL     1      16.134 -13.906  22.962  1.00  0.00     0.165 HD
ENDBRANCH   1   9
BRANCH   1  25
HETATM   25  C11 UNL     1      15.842 -13.662  19.992  1.00  0.00     0.244 C 
HETATM   26  O2  UNL     1      15.750 -14.930  20.148  1.00  0.00    -0.271 OA
HETATM   27  N7  UNL     1      16.128 -13.207  18.700  1.00  0.00    -0.347 N 
HETATM   28  C12 UNL     1      16.284 -11.812  18.387  1.00  0.00     0.154 C 
HETATM   29  C19 UNL     1      16.278 -14.143  17.613  1.00  0.00     0.154 C 
HETATM   30  C13 UNL     1      17.278 -11.764  17.214  1.00  0.00     0.257 C 
HETATM   31  N8  UNL     1      16.659 -12.338  16.031  1.00  0.00    -0.064 N 
HETATM   32  C14 UNL     1      17.655 -12.685  15.039  1.00  0.00     0.237 C 
HETATM   33  C17 UNL     1      15.901 -11.270  15.365  1.00  0.00     0.237 C 
HETATM   34  C18 UNL     1      15.832 -13.460  16.341  1.00  0.00     0.257 C 
HETATM   35  C15 UNL     1      16.905 -12.728  13.727  1.00  0.00     0.029 C 
HETATM   36  C16 UNL     1      15.840 -11.691  13.912  1.00  0.00     0.029 C 
ENDBRANCH   1  25
TORSDOF 4
ENDMDL
MODEL 4
REMARK VINA RESULT: -8.369606931      2.070      2.668
REMARK  4 active torsions:
REMARK  status: ('A' for Active; 'I' for Inactive)
REMARK    1  A    between atoms: N1_2  and  C2_3 
REMARK    2  A    between atoms: C2_3  and  C3_4 
REMARK    3  A    between atoms: C3_4  and  N2_5 
REMARK    4  A    between atoms: C3_4  and  C11_21 
REMARK       I    between atoms: N2_5  and  C4_7 
REMARK       I    between atoms: C4_7  and  N3_9 
REMARK       I    between atoms: N4_13  and  C8_14 
REMARK       I    between atoms: C11_21  and  N7_23 
ROOT
HETATM    1  C3  UNL     1      15.037 -12.780  18.758  1.00  0.00     0.204 C 
ENDROOT
BRANCH   1   2
HETATM    2  C2  UNL     1      13.911 -12.144  19.495  1.00  0.00     0.271 C 
BRANCH   2   3
HETATM    3  N1  UNL     1      13.148 -13.000  20.357  1.00  0.00    -0.069 N 
HETATM    4  C1  UNL     1      12.081 -12.316  21.064  1.00  0.00     0.272 C 
HETATM    5  C20 UNL     1      12.529 -13.999  19.511  1.00  0.00     0.237 C 
HETATM    6  C21 UNL     1      12.996 -15.331  19.977  1.00  0.00     0.029 C 
HETATM    7  C22 UNL     1      13.355 -15.090  21.430  1.00  0.00     0.029 C 
HETATM    8  C23 UNL     1      13.930 -13.684  21.363  1.00  0.00     0.237 C 
ENDBRANCH   2   3
ENDBRANCH   1   2
BRANCH   1   9
HETATM    9  N2  UNL     1      14.835 -12.576  17.318  1.00  0.00    -0.328 N 
HETATM   10  C4  UNL     1      15.395 -13.420  16.328  1.00  0.00     0.319 C 
HETATM   11  O1  UNL     1      16.104 -14.398  16.657  1.00  0.00    -0.247 OA
HETATM   12  N3  UNL     1      15.179 -13.194  14.941  1.00  0.00    -0.333 N 
HETATM   13  C5  UNL     1      14.337 -12.024  14.713  1.00  0.00     0.129 C 
HETATM   14  C10 UNL     1      15.809 -14.122  14.036  1.00  0.00     0.147 C 
HETATM   15  C6  UNL     1      14.223 -11.895  13.216  1.00  0.00     0.040 C 
HETATM   16  C7  UNL     1      15.502 -11.282  12.724  1.00  0.00     0.127 C 
HETATM   17  N4  UNL     1      16.608 -12.194  12.714  1.00  0.00    -0.354 N 
HETATM   18  C8  UNL     1      17.750 -11.616  12.105  1.00  0.00     0.184 C 
HETATM   19  C9  UNL     1      16.849 -13.531  13.162  1.00  0.00     0.145 C 
HETATM   20  N5  UNL     1      18.590 -12.306  11.397  1.00  0.00    -0.374 N 
HETATM   21  N6  UNL     1      18.072 -10.241  12.212  1.00  0.00    -0.064 NA
ATOM     22  H52 UNL     1      18.358 -13.296  11.320  1.00  0.00     0.158 HD
ATOM     23  H51 UNL     1      19.412 -11.890  10.958  1.00  0.00     0.158 HD
ATOM     24  H2  UNL     1      14.263 -11.788  17.015  1.00  0.00     0.165 HD
ENDBRANCH   1   9
BRANCH   1  25
HETATM   25  C11 UNL     1      16.344 -12.103  19.072  1.00  0.00     0.244 C 
HETATM   26  O2  UNL     1      16.546 -10.931  18.596  1.00  0.00    -0.271 OA
HETATM   27  N7  UNL     1      17.372 -12.655  19.844  1.00  0.00    -0.347 N 
HETATM   28  C12 UNL     1      17.290 -13.971  20.418  1.00  0.00     0.154 C 
HETATM   29  C19 UNL     1      18.577 -11.903  20.098  1.00  0.00     0.154 C 
HETATM   30  C13 UNL     1      18.740 -14.480  20.482  1.00  0.00     0.257 C 
HETATM   31  N8  UNL     1      19.485 -13.702  21.457  1.00  0.00    -0.064 N 
HETATM   32  C14 UNL     1      20.912 -13.859  21.269  1.00  0.00     0.237 C 
HETATM   33  C17 UNL     1      19.265 -14.315  22.774  1.00  0.00     0.237 C 
HETATM   34  C18 UNL     1      19.116 -12.322  21.447  1.00  0.00     0.257 C 
HETATM   35  C15 UNL     1      21.527 -13.494  22.601  1.00  0.00     0.029 C 
HETATM   36  C16 UNL     1      20.485 -13.930  23.585  1.00  0.00     0.029 C 
ENDBRANCH   1  25
TORSDOF 4
ENDMDL
MODEL 5
REMARK VINA RESULT: -8.360611822      3.808      7.137
REMARK  4 active torsions:
REMARK  status: ('A' for Active; 'I' for Inactive)
REMARK    1  A    between atoms: N1_2  and  C2_3 
REMARK    2  A    between atoms: C2_3  and  C3_4 
REMARK    3  A    between atoms: C3_4  and  N2_5 
REMARK    4  A    between atoms: C3_4  and  C11_21 
REMARK       I    between atoms: N2_5  and  C4_7 
REMARK       I    between atoms: C4_7  and  N3_9 
REMARK       I    between atoms: N4_13  and  C8_14 
REMARK       I    between atoms: C11_21  and  N7_23 
ROOT
HETATM    1  C3  UNL     1      17.577 -14.861  22.323  1.00  0.00     0.204 C 
ENDROOT
BRANCH   1   2
HETATM    2  C2  UNL     1      18.491 -15.078  21.168  1.00  0.00     0.271 C 
BRANCH   2   3
HETATM    3  N1  UNL     1      19.889 -14.876  21.415  1.00  0.00    -0.069 N 
HETATM    4  C1  UNL     1      20.629 -16.108  21.625  1.00  0.00     0.272 C 
HETATM    5  C20 UNL     1      20.435 -14.246  20.231  1.00  0.00     0.237 C 
HETATM    6  C21 UNL     1      21.023 -12.946  20.647  1.00  0.00     0.029 C 
HETATM    7  C22 UNL     1      21.347 -13.159  22.113  1.00  0.00     0.029 C 
HETATM    8  C23 UNL     1      20.180 -14.029  22.550  1.00  0.00     0.237 C 
ENDBRANCH   2   3
ENDBRANCH   1   2
BRANCH   1   9
HETATM    9  N2  UNL     1      16.307 -14.316  21.825  1.00  0.00    -0.328 N 
HETATM   10  C4  UNL     1      16.101 -12.939  21.567  1.00  0.00     0.319 C 
HETATM   11  O1  UNL     1      17.022 -12.113  21.760  1.00  0.00    -0.247 OA
HETATM   12  N3  UNL     1      14.858 -12.445  21.084  1.00  0.00    -0.333 N 
HETATM   13  C5  UNL     1      13.887 -13.519  20.907  1.00  0.00     0.129 C 
HETATM   14  C10 UNL     1      14.777 -11.022  20.866  1.00  0.00     0.147 C 
HETATM   15  C6  UNL     1      12.627 -12.847  20.427  1.00  0.00     0.040 C 
HETATM   16  C7  UNL     1      11.972 -12.221  21.625  1.00  0.00     0.127 C 
HETATM   17  N4  UNL     1      12.620 -11.024  22.073  1.00  0.00    -0.354 N 
HETATM   18  C8  UNL     1      11.884 -10.393  23.106  1.00  0.00     0.184 C 
HETATM   19  C9  UNL     1      13.817 -10.311  21.744  1.00  0.00     0.145 C 
HETATM   20  N5  UNL     1      11.828  -9.103  23.237  1.00  0.00    -0.374 N 
HETATM   21  N6  UNL     1      11.147 -11.108  24.080  1.00  0.00    -0.064 NA
ATOM     22  H52 UNL     1      12.359  -8.588  22.535  1.00  0.00     0.158 HD
ATOM     23  H51 UNL     1      11.298  -8.649  23.981  1.00  0.00     0.158 HD
ATOM     24  H2  UNL     1      15.535 -14.961  21.656  1.00  0.00     0.165 HD
ENDBRANCH   1   9
BRANCH   1  25
HETATM   25  C11 UNL     1      17.214 -16.163  22.983  1.00  0.00     0.244 C 
HETATM   26  O2  UNL     1      16.300 -16.879  22.443  1.00  0.00    -0.271 OA
HETATM   27  N7  UNL     1      17.795 -16.663  24.154  1.00  0.00    -0.347 N 
HETATM   28  C12 UNL     1      18.814 -15.951  24.878  1.00  0.00     0.154 C 
HETATM   29  C19 UNL     1      17.382 -17.938  24.686  1.00  0.00     0.154 C 
HETATM   30  C13 UNL     1      18.631 -16.360  26.349  1.00  0.00     0.257 C 
HETATM   31  N8  UNL     1      18.979 -17.762  26.510  1.00  0.00    -0.064 N 
HETATM   32  C14 UNL     1      18.449 -18.292  27.750  1.00  0.00     0.237 C 
HETATM   33  C17 UNL     1      20.431 -17.837  26.722  1.00  0.00     0.237 C 
HETATM   34  C18 UNL     1      18.566 -18.555  25.396  1.00  0.00     0.257 C 
HETATM   35  C15 UNL     1      19.304 -19.500  28.057  1.00  0.00     0.029 C 
HETATM   36  C16 UNL     1      20.640 -19.122  27.495  1.00  0.00     0.029 C 
ENDBRANCH   1  25
TORSDOF 4
ENDMDL
