MODEL 1
REMARK VINA RESULT: -9.136761053      0.000      0.000
REMARK  7 active torsions:
REMARK  status: ('A' for Active; 'I' for Inactive)
REMARK    1  A    between atoms: C2_2  and  C3_3 
REMARK    2  A    between atoms: C3_3  and  N1_4 
REMARK    3  A    between atoms: N1_4  and  C4_6 
REMARK    4  A    between atoms: C4_6  and  N2_8 
REMARK    5  A    between atoms: C11_15  and  N3_16 
REMARK       I    between atoms: N3_16  and  C12_18 
REMARK    6  A    between atoms: C12_18  and  C13_20 
REMARK    7  A    between atoms: C13_20  and  N4_21 
ROOT
HETATM    1  N2  UNL     1      20.797 -14.235  21.915  1.00  0.00    -0.358 N 
HETATM    2  C5  UNL     1      19.810 -13.148  22.069  1.00  0.00     0.126 C 
HETATM    3  C6  UNL     1      20.045 -12.185  20.902  1.00  0.00     0.031 C 
HETATM    4  C7  UNL     1      19.900 -12.925  19.602  1.00  0.00    -0.017 C 
HETATM    5  C8  UNL     1      21.153 -12.701  18.780  1.00  0.00     0.012 C 
HETATM    6  C9  UNL     1      20.691 -12.915  17.378  1.00  0.00     0.003 C 
HETATM    7  C10 UNL     1      19.318 -12.329  17.340  1.00  0.00     0.026 C 
HETATM    8  C11 UNL     1      18.857 -12.218  18.767  1.00  0.00     0.093 C 
HETATM    9  C21 UNL     1      19.613 -14.374  19.791  1.00  0.00     0.031 C 
HETATM   10  C22 UNL     1      20.689 -14.978  20.704  1.00  0.00     0.126 C 
ENDROOT
BRANCH   8  11
HETATM   11  N3  UNL     1      17.536 -12.763  18.914  1.00  0.00    -0.354 N 
HETATM   12  C12 UNL     1      16.422 -12.079  18.392  1.00  0.00     0.246 C 
HETATM   13  O1  UNL     1      16.643 -10.983  17.799  1.00  0.00    -0.272 OA
ATOM     14  H3  UNL     1      17.405 -13.650  19.399  1.00  0.00     0.162 HD
BRANCH  12  15
HETATM   15  C13 UNL     1      15.089 -12.662  18.560  1.00  0.00     0.367 C 
BRANCH  15  16
HETATM   16  N4  UNL     1      14.294 -12.177  19.624  1.00  0.00     0.026 N 
HETATM   17  C14 UNL     1      13.076 -12.939  19.841  1.00  0.00     0.293 C 
HETATM   18  C15 UNL     1      12.166 -12.288  20.838  1.00  0.00     0.268 C 
HETATM   19  N5  UNL     1      12.830 -11.518  21.841  1.00  0.00    -0.059 N 
HETATM   20  C16 UNL     1      12.094 -11.667  23.093  1.00  0.00     0.273 C 
HETATM   21  C17 UNL     1      14.160 -12.002  22.069  1.00  0.00     0.268 C 
HETATM   22  C19 UNL     1      12.809 -10.085  21.550  1.00  0.00     0.341 C 
HETATM   23  C18 UNL     1      15.030 -11.961  20.838  1.00  0.00     0.293 C 
HETATM   24  C20 UNL     1      13.211  -9.959  20.108  1.00  0.00     0.268 C 
HETATM   25  O2  UNL     1      12.958  -8.824  19.626  1.00  0.00    -0.270 OA
HETATM   26  N6  UNL     1      13.820 -10.895  19.220  1.00  0.00    -0.183 N 
ATOM     27  H6  UNL     1      13.923 -10.631  18.240  1.00  0.00     0.197 HD
ENDBRANCH  15  16
ENDBRANCH  12  15
ENDBRANCH   8  11
BRANCH   1  28
HETATM   28  C4  UNL     1      21.710 -14.457  22.930  1.00  0.00     0.169 C 
HETATM   29  S1  UNL     1      21.997 -16.085  23.324  1.00  0.00    -0.041 SA
BRANCH  28  30
HETATM   30  N1  UNL     1      22.402 -13.488  23.647  1.00  0.00    -0.367 N 
ATOM     31  H1  UNL     1      22.765 -12.715  23.088  1.00  0.00     0.161 HD
BRANCH  30  32
HETATM   32  C3  UNL     1      22.682 -13.409  25.034  1.00  0.00     0.121 C 
BRANCH  32  33
HETATM   33  C2  UNL     1      21.564 -12.681  25.794  1.00  0.00     0.015 C 
HETATM   34  C1  UNL     1      20.295 -13.484  25.824  1.00  0.00     0.006 C 
ENDBRANCH  32  33
ENDBRANCH  30  32
ENDBRANCH  28  30
ENDBRANCH   1  28
TORSDOF 7
ENDMDL
MODEL 2
REMARK VINA RESULT: -8.587390455      1.134      1.298
REMARK  7 active torsions:
REMARK  status: ('A' for Active; 'I' for Inactive)
REMARK    1  A    between atoms: C2_2  and  C3_3 
REMARK    2  A    between atoms: C3_3  and  N1_4 
REMARK    3  A    between atoms: N1_4  and  C4_6 
REMARK    4  A    between atoms: C4_6  and  N2_8 
REMARK    5  A    between atoms: C11_15  and  N3_16 
REMARK       I    between atoms: N3_16  and  C12_18 
REMARK    6  A    between atoms: C12_18  and  C13_20 
REMARK    7  A    between atoms: C13_20  and  N4_21 
ROOT
HETATM    1  N2  UNL     1      20.678 -14.535  22.362  1.00  0.00    -0.358 N 
HETATM    2  C5  UNL     1      19.680 -13.458  22.515  1.00  0.00     0.126 C 
HETATM    3  C6  UNL     1      19.966 -12.447  21.400  1.00  0.00     0.031 C 
HETATM    4  C7  UNL     1      19.885 -13.133  20.066  1.00  0.00    -0.017 C 
HETATM    5  C8  UNL     1      21.173 -12.872  19.313  1.00  0.00     0.012 C 
HETATM    6  C9  UNL     1      20.778 -13.029  17.883  1.00  0.00     0.003 C 
HETATM    7  C10 UNL     1      19.406 -12.446  17.805  1.00  0.00     0.026 C 
HETATM    8  C11 UNL     1      18.878 -12.394  19.212  1.00  0.00     0.093 C 
HETATM    9  C21 UNL     1      19.595 -14.589  20.182  1.00  0.00     0.031 C 
HETATM   10  C22 UNL     1      20.629 -15.228  21.118  1.00  0.00     0.126 C 
ENDROOT
BRANCH   8  11
HETATM   11  N3  UNL     1      17.554 -12.947  19.275  1.00  0.00    -0.354 N 
HETATM   12  C12 UNL     1      16.431 -12.135  19.032  1.00  0.00     0.246 C 
HETATM   13  O1  UNL     1      16.646 -10.918  18.760  1.00  0.00    -0.272 OA
ATOM     14  H3  UNL     1      17.428 -13.935  19.496  1.00  0.00     0.162 HD
BRANCH  12  15
HETATM   15  C13 UNL     1      15.095 -12.731  19.104  1.00  0.00     0.367 C 
BRANCH  15  16
HETATM   16  N4  UNL     1      14.180 -12.173  20.027  1.00  0.00     0.026 N 
HETATM   17  C14 UNL     1      12.919 -12.888  20.109  1.00  0.00     0.293 C 
HETATM   18  C15 UNL     1      11.905 -12.163  20.942  1.00  0.00     0.268 C 
HETATM   19  N5  UNL     1      12.453 -11.365  21.991  1.00  0.00    -0.059 N 
HETATM   20  C16 UNL     1      11.550 -11.433  23.135  1.00  0.00     0.273 C 
HETATM   21  C17 UNL     1      13.722 -11.876  22.421  1.00  0.00     0.268 C 
HETATM   22  C19 UNL     1      12.522  -9.948  21.637  1.00  0.00     0.341 C 
HETATM   23  C18 UNL     1      14.752 -11.920  21.319  1.00  0.00     0.293 C 
HETATM   24  C20 UNL     1      13.121  -9.904  20.260  1.00  0.00     0.268 C 
HETATM   25  O2  UNL     1      12.975  -8.787  19.698  1.00  0.00    -0.270 OA
HETATM   26  N6  UNL     1      13.811 -10.899  19.506  1.00  0.00    -0.183 N 
ATOM     27  H6  UNL     1      14.055 -10.686  18.539  1.00  0.00     0.197 HD
ENDBRANCH  15  16
ENDBRANCH  12  15
ENDBRANCH   8  11
BRANCH   1  28
HETATM   28  C4  UNL     1      21.543 -14.796  23.409  1.00  0.00     0.169 C 
HETATM   29  S1  UNL     1      22.889 -13.766  23.531  1.00  0.00    -0.041 SA
BRANCH  28  30
HETATM   30  N1  UNL     1      21.416 -15.806  24.355  1.00  0.00    -0.367 N 
ATOM     31  H1  UNL     1      22.282 -16.296  24.582  1.00  0.00     0.161 HD
BRANCH  30  32
HETATM   32  C3  UNL     1      20.269 -16.259  25.054  1.00  0.00     0.121 C 
BRANCH  32  33
HETATM   33  C2  UNL     1      19.575 -15.111  25.801  1.00  0.00     0.015 C 
HETATM   34  C1  UNL     1      18.355 -15.582  26.539  1.00  0.00     0.006 C 
ENDBRANCH  32  33
ENDBRANCH  30  32
ENDBRANCH  28  30
ENDBRANCH   1  28
TORSDOF 7
ENDMDL
MODEL 3
REMARK VINA RESULT: -8.384139272      1.545      2.126
REMARK  7 active torsions:
REMARK  status: ('A' for Active; 'I' for Inactive)
REMARK    1  A    between atoms: C2_2  and  C3_3 
REMARK    2  A    between atoms: C3_3  and  N1_4 
REMARK    3  A    between atoms: N1_4  and  C4_6 
REMARK    4  A    between atoms: C4_6  and  N2_8 
REMARK    5  A    between atoms: C11_15  and  N3_16 
REMARK       I    between atoms: N3_16  and  C12_18 
REMARK    6  A    between atoms: C12_18  and  C13_20 
REMARK    7  A    between atoms: C13_20  and  N4_21 
ROOT
HETATM    1  N2  UNL     1      20.618 -13.577  21.738  1.00  0.00    -0.358 N 
HETATM    2  C5  UNL     1      19.558 -12.553  21.675  1.00  0.00     0.126 C 
HETATM    3  C6  UNL     1      19.852 -11.704  20.434  1.00  0.00     0.031 C 
HETATM    4  C7  UNL     1      19.885 -12.586  19.219  1.00  0.00    -0.017 C 
HETATM    5  C8  UNL     1      21.200 -12.362  18.499  1.00  0.00     0.012 C 
HETATM    6  C9  UNL     1      20.897 -12.755  17.092  1.00  0.00     0.003 C 
HETATM    7  C10 UNL     1      19.502 -12.276  16.859  1.00  0.00     0.026 C 
HETATM    8  C11 UNL     1      18.892 -12.047  18.214  1.00  0.00     0.093 C 
HETATM    9  C21 UNL     1      19.668 -14.023  19.541  1.00  0.00     0.031 C 
HETATM   10  C22 UNL     1      20.679 -14.450  20.614  1.00  0.00     0.126 C 
ENDROOT
BRANCH   8  11
HETATM   11  N3  UNL     1      17.598 -12.665  18.295  1.00  0.00    -0.354 N 
HETATM   12  C12 UNL     1      16.465 -12.016  17.771  1.00  0.00     0.246 C 
HETATM   13  O1  UNL     1      16.644 -10.884  17.236  1.00  0.00    -0.272 OA
ATOM     14  H3  UNL     1      17.501 -13.580  18.735  1.00  0.00     0.162 HD
BRANCH  12  15
HETATM   15  C13 UNL     1      15.160 -12.674  17.871  1.00  0.00     0.367 C 
BRANCH  15  16
HETATM   16  N4  UNL     1      14.429 -12.495  19.068  1.00  0.00     0.026 N 
HETATM   17  C14 UNL     1      13.755 -11.211  19.158  1.00  0.00     0.293 C 
HETATM   18  C15 UNL     1      13.156 -10.976  20.512  1.00  0.00     0.268 C 
HETATM   19  N5  UNL     1      12.741 -12.157  21.197  1.00  0.00    -0.059 N 
HETATM   20  C16 UNL     1      11.531 -11.847  21.952  1.00  0.00     0.273 C 
HETATM   21  C17 UNL     1      12.409 -13.201  20.272  1.00  0.00     0.268 C 
HETATM   22  C19 UNL     1      13.716 -12.595  22.194  1.00  0.00     0.341 C 
HETATM   23  C18 UNL     1      13.558 -13.594  19.377  1.00  0.00     0.293 C 
HETATM   24  C20 UNL     1      15.050 -12.548  21.505  1.00  0.00     0.268 C 
HETATM   25  O2  UNL     1      16.019 -12.612  22.306  1.00  0.00    -0.270 OA
HETATM   26  N6  UNL     1      15.386 -12.447  20.122  1.00  0.00    -0.183 N 
ATOM     27  H6  UNL     1      16.369 -12.334  19.873  1.00  0.00     0.197 HD
ENDBRANCH  15  16
ENDBRANCH  12  15
ENDBRANCH   8  11
BRANCH   1  28
HETATM   28  C4  UNL     1      21.434 -13.625  22.854  1.00  0.00     0.169 C 
HETATM   29  S1  UNL     1      20.650 -13.455  24.352  1.00  0.00    -0.041 SA
BRANCH  28  30
HETATM   30  N1  UNL     1      22.813 -13.796  22.864  1.00  0.00    -0.367 N 
ATOM     31  H1  UNL     1      23.202 -14.223  22.023  1.00  0.00     0.161 HD
BRANCH  30  32
HETATM   32  C3  UNL     1      23.763 -13.470  23.865  1.00  0.00     0.121 C 
BRANCH  32  33
HETATM   33  C2  UNL     1      24.865 -14.534  23.964  1.00  0.00     0.015 C 
HETATM   34  C1  UNL     1      24.416 -15.730  24.754  1.00  0.00     0.006 C 
ENDBRANCH  32  33
ENDBRANCH  30  32
ENDBRANCH  28  30
ENDBRANCH   1  28
TORSDOF 7
ENDMDL
MODEL 4
REMARK VINA RESULT: -8.068148439      1.904      2.319
REMARK  7 active torsions:
REMARK  status: ('A' for Active; 'I' for Inactive)
REMARK    1  A    between atoms: C2_2  and  C3_3 
REMARK    2  A    between atoms: C3_3  and  N1_4 
REMARK    3  A    between atoms: N1_4  and  C4_6 
REMARK    4  A    between atoms: C4_6  and  N2_8 
REMARK    5  A    between atoms: C11_15  and  N3_16 
REMARK       I    between atoms: N3_16  and  C12_18 
REMARK    6  A    between atoms: C12_18  and  C13_20 
REMARK    7  A    between atoms: C13_20  and  N4_21 
ROOT
HETATM    1  N2  UNL     1      18.740 -15.121  23.002  1.00  0.00    -0.358 N 
HETATM    2  C5  UNL     1      18.193 -13.756  22.874  1.00  0.00     0.126 C 
HETATM    3  C6  UNL     1      19.213 -12.960  22.054  1.00  0.00     0.031 C 
HETATM    4  C7  UNL     1      19.424 -13.630  20.727  1.00  0.00    -0.017 C 
HETATM    5  C8  UNL     1      20.909 -13.873  20.543  1.00  0.00     0.012 C 
HETATM    6  C9  UNL     1      21.068 -13.943  19.061  1.00  0.00     0.003 C 
HETATM    7  C10 UNL     1      20.121 -12.917  18.532  1.00  0.00     0.026 C 
HETATM    8  C11 UNL     1      19.143 -12.622  19.635  1.00  0.00     0.093 C 
HETATM    9  C21 UNL     1      18.635 -14.885  20.581  1.00  0.00     0.031 C 
HETATM   10  C22 UNL     1      18.942 -15.806  21.769  1.00  0.00     0.126 C 
ENDROOT
BRANCH   8  11
HETATM   11  N3  UNL     1      17.796 -12.671  19.140  1.00  0.00    -0.354 N 
HETATM   12  C12 UNL     1      16.897 -11.624  19.419  1.00  0.00     0.246 C 
HETATM   13  O1  UNL     1      17.332 -10.659  20.113  1.00  0.00    -0.272 OA
ATOM     14  H3  UNL     1      17.488 -13.468  18.584  1.00  0.00     0.162 HD
BRANCH  12  15
HETATM   15  C13 UNL     1      15.530 -11.705  18.900  1.00  0.00     0.367 C 
BRANCH  15  16
HETATM   16  N4  UNL     1      14.481 -11.835  19.839  1.00  0.00     0.026 N 
HETATM   17  C14 UNL     1      14.933 -12.123  21.189  1.00  0.00     0.293 C 
HETATM   18  C15 UNL     1      13.799 -12.448  22.114  1.00  0.00     0.268 C 
HETATM   19  N5  UNL     1      12.564 -11.808  21.793  1.00  0.00    -0.059 N 
HETATM   20  C16 UNL     1      11.882 -11.480  23.041  1.00  0.00     0.273 C 
HETATM   21  C17 UNL     1      12.785 -10.577  21.093  1.00  0.00     0.268 C 
HETATM   22  C19 UNL     1      11.647 -12.693  21.075  1.00  0.00     0.341 C 
HETATM   23  C18 UNL     1      13.536 -10.754  19.797  1.00  0.00     0.293 C 
HETATM   24  C20 UNL     1      12.469 -13.337  19.995  1.00  0.00     0.268 C 
HETATM   25  O2  UNL     1      11.905 -14.338  19.480  1.00  0.00    -0.270 OA
HETATM   26  N6  UNL     1      13.754 -13.004  19.472  1.00  0.00    -0.183 N 
ATOM     27  H6  UNL     1      14.176 -13.640  18.794  1.00  0.00     0.197 HD
ENDBRANCH  15  16
ENDBRANCH  12  15
ENDBRANCH   8  11
BRANCH   1  28
HETATM   28  C4  UNL     1      18.988 -15.625  24.266  1.00  0.00     0.169 C 
HETATM   29  S1  UNL     1      17.898 -16.806  24.819  1.00  0.00    -0.041 SA
BRANCH  28  30
HETATM   30  N1  UNL     1      20.029 -15.261  25.112  1.00  0.00    -0.367 N 
ATOM     31  H1  UNL     1      19.789 -15.232  26.103  1.00  0.00     0.161 HD
BRANCH  30  32
HETATM   32  C3  UNL     1      21.373 -14.926  24.809  1.00  0.00     0.121 C 
BRANCH  32  33
HETATM   33  C2  UNL     1      21.566 -13.405  24.716  1.00  0.00     0.015 C 
HETATM   34  C1  UNL     1      21.119 -12.708  25.968  1.00  0.00     0.006 C 
ENDBRANCH  32  33
ENDBRANCH  30  32
ENDBRANCH  28  30
ENDBRANCH   1  28
TORSDOF 7
ENDMDL
MODEL 5
REMARK VINA RESULT: -8.058665258      2.139      3.005
REMARK  7 active torsions:
REMARK  status: ('A' for Active; 'I' for Inactive)
REMARK    1  A    between atoms: C2_2  and  C3_3 
REMARK    2  A    between atoms: C3_3  and  N1_4 
REMARK    3  A    between atoms: N1_4  and  C4_6 
REMARK    4  A    between atoms: C4_6  and  N2_8 
REMARK    5  A    between atoms: C11_15  and  N3_16 
REMARK       I    between atoms: N3_16  and  C12_18 
REMARK    6  A    between atoms: C12_18  and  C13_20 
REMARK    7  A    between atoms: C13_20  and  N4_21 
ROOT
HETATM    1  N2  UNL     1      19.669 -13.952  21.799  1.00  0.00    -0.358 N 
HETATM    2  C5  UNL     1      18.685 -12.860  21.667  1.00  0.00     0.126 C 
HETATM    3  C6  UNL     1      19.223 -11.926  20.579  1.00  0.00     0.031 C 
HETATM    4  C7  UNL     1      19.414 -12.697  19.304  1.00  0.00    -0.017 C 
HETATM    5  C8  UNL     1      20.839 -12.495  18.829  1.00  0.00     0.012 C 
HETATM    6  C9  UNL     1      20.754 -12.742  17.360  1.00  0.00     0.003 C 
HETATM    7  C10 UNL     1      19.443 -12.155  16.955  1.00  0.00     0.026 C 
HETATM    8  C11 UNL     1      18.628 -12.009  18.210  1.00  0.00     0.093 C 
HETATM    9  C21 UNL     1      19.076 -14.140  19.445  1.00  0.00     0.031 C 
HETATM   10  C22 UNL     1      19.873 -14.724  20.619  1.00  0.00     0.126 C 
ENDROOT
BRANCH   8  11
HETATM   11  N3  UNL     1      17.311 -12.547  18.021  1.00  0.00    -0.354 N 
HETATM   12  C12 UNL     1      16.199 -11.941  18.636  1.00  0.00     0.246 C 
HETATM   13  O1  UNL     1      16.419 -10.918  19.348  1.00  0.00    -0.272 OA
ATOM     14  H3  UNL     1      17.179 -13.374  17.438  1.00  0.00     0.162 HD
BRANCH  12  15
HETATM   15  C13 UNL     1      14.869 -12.516  18.424  1.00  0.00     0.367 C 
BRANCH  15  16
HETATM   16  N4  UNL     1      14.560 -13.715  19.107  1.00  0.00     0.026 N 
HETATM   17  C14 UNL     1      13.219 -13.745  19.665  1.00  0.00     0.293 C 
HETATM   18  C15 UNL     1      12.992 -14.938  20.543  1.00  0.00     0.268 C 
HETATM   19  N5  UNL     1      13.746 -16.096  20.186  1.00  0.00    -0.059 N 
HETATM   20  C16 UNL     1      12.925 -17.274  20.447  1.00  0.00     0.273 C 
HETATM   21  C17 UNL     1      14.060 -16.098  18.787  1.00  0.00     0.268 C 
HETATM   22  C19 UNL     1      14.937 -16.265  21.017  1.00  0.00     0.341 C 
HETATM   23  C18 UNL     1      14.867 -14.899  18.355  1.00  0.00     0.293 C 
HETATM   24  C20 UNL     1      15.596 -14.916  21.059  1.00  0.00     0.268 C 
HETATM   25  O2  UNL     1      16.465 -14.822  21.966  1.00  0.00    -0.270 OA
HETATM   26  N6  UNL     1      15.402 -13.753  20.256  1.00  0.00    -0.183 N 
ATOM     27  H6  UNL     1      15.895 -12.899  20.519  1.00  0.00     0.197 HD
ENDBRANCH  15  16
ENDBRANCH  12  15
ENDBRANCH   8  11
BRANCH   1  28
HETATM   28  C4  UNL     1      20.286 -14.150  23.021  1.00  0.00     0.169 C 
HETATM   29  S1  UNL     1      19.717 -15.468  23.931  1.00  0.00    -0.041 SA
BRANCH  28  30
HETATM   30  N1  UNL     1      21.310 -13.386  23.566  1.00  0.00    -0.367 N 
ATOM     31  H1  UNL     1      21.189 -12.377  23.479  1.00  0.00     0.161 HD
BRANCH  30  32
HETATM   32  C3  UNL     1      22.499 -13.793  24.223  1.00  0.00     0.121 C 
BRANCH  32  33
HETATM   33  C2  UNL     1      22.534 -13.302  25.677  1.00  0.00     0.015 C 
HETATM   34  C1  UNL     1      21.293 -12.538  26.039  1.00  0.00     0.006 C 
ENDBRANCH  32  33
ENDBRANCH  30  32
ENDBRANCH  28  30
ENDBRANCH   1  28
TORSDOF 7
ENDMDL
