MODEL 1
REMARK VINA RESULT: -8.671338277      0.000      0.000
REMARK  6 active torsions:
REMARK  status: ('A' for Active; 'I' for Inactive)
REMARK       I    between atoms: N2_6  and  C5_7 
REMARK       I    between atoms: C5_7  and  N3_9 
REMARK    1  A    between atoms: N3_9  and  C6_11 
REMARK    2  A    between atoms: C6_11  and  C7_12 
REMARK    3  A    between atoms: C6_11  and  C16_28 
REMARK    4  A    between atoms: C7_12  and  C8_13 
REMARK    5  A    between atoms: C8_13  and  C9_14 
REMARK       I    between atoms: N4_15  and  C10_17 
REMARK       I    between atoms: C10_17  and  N5_19 
REMARK    6  A    between atoms: N6_22  and  C13_23 
ROOT
HETATM    1  C6  UNL     1      18.991 -13.592  20.342  1.00  0.00     0.090 C 
ENDROOT
BRANCH   1   2
HETATM    2  N3  UNL     1      19.149 -14.517  21.412  1.00  0.00    -0.338 N 
HETATM    3  C5  UNL     1      19.456 -14.277  22.767  1.00  0.00     0.318 C 
HETATM    4  N2  UNL     1      19.577 -15.326  23.721  1.00  0.00    -0.331 N 
HETATM    5  O1  UNL     1      19.634 -13.107  23.167  1.00  0.00    -0.247 OA
HETATM    6  C4  UNL     1      19.919 -15.028  25.087  1.00  0.00     0.155 C 
HETATM    7  C20 UNL     1      19.359 -16.712  23.366  1.00  0.00     0.155 C 
HETATM    8  C3  UNL     1      19.012 -15.807  26.026  1.00  0.00     0.256 C 
HETATM    9  N1  UNL     1      18.919 -17.200  25.706  1.00  0.00    -0.072 N 
HETATM   10  C1  UNL     1      19.354 -18.051  26.802  1.00  0.00     0.272 C 
HETATM   11  C2  UNL     1      17.522 -17.493  25.378  1.00  0.00     0.272 C 
HETATM   12  C21 UNL     1      19.705 -17.567  24.543  1.00  0.00     0.256 C 
ATOM     13  H3  UNL     1      19.021 -15.497  21.162  1.00  0.00     0.164 HD
ENDBRANCH   1   2
BRANCH   1  14
HETATM   14  C7  UNL     1      18.045 -13.971  19.263  1.00  0.00     0.031 C 
BRANCH  14  15
HETATM   15  C8  UNL     1      16.868 -13.071  19.067  1.00  0.00     0.046 C 
BRANCH  15  16
HETATM   16  C9  UNL     1      15.586 -13.744  18.844  1.00  0.00     0.065 C 
HETATM   17  N4  UNL     1      14.431 -13.206  18.802  1.00  0.00    -0.323 N 
HETATM   18  C10 UNL     1      14.131 -11.848  18.964  1.00  0.00     0.322 C 
ATOM     19  H4  UNL     1      13.642 -13.830  18.633  1.00  0.00     0.169 HD
HETATM   20  O2  UNL     1      14.100 -11.104  17.953  1.00  0.00    -0.247 OA
HETATM   21  N5  UNL     1      13.862 -11.291  20.243  1.00  0.00    -0.331 N 
HETATM   22  C11 UNL     1      13.884 -12.139  21.435  1.00  0.00     0.147 C 
HETATM   23  C15 UNL     1      13.572  -9.897  20.417  1.00  0.00     0.147 C 
HETATM   24  C12 UNL     1      12.576 -11.870  22.162  1.00  0.00     0.145 C 
HETATM   25  N6  UNL     1      12.647 -10.495  22.613  1.00  0.00    -0.357 N 
HETATM   26  C14 UNL     1      13.383  -9.519  21.870  1.00  0.00     0.145 C 
BRANCH  25  27
HETATM   27  C13 UNL     1      11.983 -10.130  23.794  1.00  0.00     0.183 C 
HETATM   28  N7  UNL     1      11.463 -11.106  24.684  1.00  0.00    -0.070 NA
HETATM   29  S1  UNL     1      11.788  -8.561  24.178  1.00  0.00    -0.044 SA
ENDBRANCH  25  27
ENDBRANCH  15  16
ENDBRANCH  14  15
ENDBRANCH   1  14
BRANCH   1  30
HETATM   30  C16 UNL     1      20.360 -13.398  19.676  1.00  0.00     0.008 C 
HETATM   31  C17 UNL     1      20.942 -12.028  19.892  1.00  0.00     0.007 C 
HETATM   32  C18 UNL     1      21.309 -12.009  18.425  1.00  0.00     0.001 C 
HETATM   33  C19 UNL     1      20.202 -13.003  18.195  1.00  0.00     0.007 C 
ENDBRANCH   1  30
TORSDOF 6
ENDMDL
MODEL 2
REMARK VINA RESULT: -8.462372754      1.539      2.071
REMARK  6 active torsions:
REMARK  status: ('A' for Active; 'I' for Inactive)
REMARK       I    between atoms: N2_6  and  C5_7 
REMARK       I    between atoms: C5_7  and  N3_9 
REMARK    1  A    between atoms: N3_9  and  C6_11 
REMARK    2  A    between atoms: C6_11  and  C7_12 
REMARK    3  A    between atoms: C6_11  and  C16_28 
REMARK    4  A    between atoms: C7_12  and  C8_13 
REMARK    5  A    between atoms: C8_13  and  C9_14 
REMARK       I    between atoms: N4_15  and  C10_17 
REMARK       I    between atoms: C10_17  and  N5_19 
REMARK    6  A    between atoms: N6_22  and  C13_23 
ROOT
HETATM    1  C6  UNL     1      18.800 -12.675  20.820  1.00  0.00     0.090 C 
ENDROOT
BRANCH   1   2
HETATM    2  N3  UNL     1      19.797 -13.233  21.669  1.00  0.00    -0.338 N 
HETATM    3  C5  UNL     1      19.659 -13.858  22.924  1.00  0.00     0.318 C 
HETATM    4  N2  UNL     1      20.771 -14.371  23.650  1.00  0.00    -0.331 N 
HETATM    5  O1  UNL     1      18.527 -13.976  23.440  1.00  0.00    -0.247 OA
HETATM    6  C4  UNL     1      20.576 -14.976  24.942  1.00  0.00     0.155 C 
HETATM    7  C20 UNL     1      22.119 -14.312  23.127  1.00  0.00     0.155 C 
HETATM    8  C3  UNL     1      21.365 -16.274  25.025  1.00  0.00     0.256 C 
HETATM    9  N1  UNL     1      22.730 -16.141  24.608  1.00  0.00    -0.072 N 
HETATM   10  C1  UNL     1      23.669 -16.502  25.658  1.00  0.00     0.272 C 
HETATM   11  C2  UNL     1      22.930 -17.010  23.446  1.00  0.00     0.272 C 
HETATM   12  C21 UNL     1      23.063 -14.794  24.182  1.00  0.00     0.256 C 
ATOM     13  H3  UNL     1      20.753 -13.173  21.316  1.00  0.00     0.164 HD
ENDBRANCH   1   2
BRANCH   1  14
HETATM   14  C7  UNL     1      17.850 -13.624  20.189  1.00  0.00     0.031 C 
BRANCH  14  15
HETATM   15  C8  UNL     1      16.915 -13.050  19.174  1.00  0.00     0.046 C 
BRANCH  15  16
HETATM   16  C9  UNL     1      15.652 -13.771  18.997  1.00  0.00     0.065 C 
HETATM   17  N4  UNL     1      14.480 -13.272  18.949  1.00  0.00    -0.323 N 
HETATM   18  C10 UNL     1      14.140 -11.918  19.058  1.00  0.00     0.322 C 
ATOM     19  H4  UNL     1      13.709 -13.927  18.818  1.00  0.00     0.169 HD
HETATM   20  O2  UNL     1      14.073 -11.219  18.017  1.00  0.00    -0.247 OA
HETATM   21  N5  UNL     1      13.870 -11.316  20.317  1.00  0.00    -0.331 N 
HETATM   22  C11 UNL     1      13.934 -12.111  21.543  1.00  0.00     0.147 C 
HETATM   23  C15 UNL     1      13.539  -9.925  20.436  1.00  0.00     0.147 C 
HETATM   24  C12 UNL     1      12.627 -11.851  22.277  1.00  0.00     0.145 C 
HETATM   25  N6  UNL     1      12.662 -10.457  22.669  1.00  0.00    -0.357 N 
HETATM   26  C14 UNL     1      13.357  -9.492  21.874  1.00  0.00     0.145 C 
BRANCH  25  27
HETATM   27  C13 UNL     1      12.002 -10.062  23.842  1.00  0.00     0.183 C 
HETATM   28  N7  UNL     1      11.465 -11.016  24.747  1.00  0.00    -0.070 NA
HETATM   29  S1  UNL     1      11.832  -8.485  24.200  1.00  0.00    -0.044 SA
ENDBRANCH  25  27
ENDBRANCH  15  16
ENDBRANCH  14  15
ENDBRANCH   1  14
BRANCH   1  30
HETATM   30  C16 UNL     1      19.509 -11.938  19.676  1.00  0.00     0.008 C 
HETATM   31  C17 UNL     1      19.894 -12.837  18.533  1.00  0.00     0.007 C 
HETATM   32  C18 UNL     1      21.241 -12.152  18.515  1.00  0.00     0.001 C 
HETATM   33  C19 UNL     1      21.017 -11.799  19.961  1.00  0.00     0.007 C 
ENDBRANCH   1  30
TORSDOF 6
ENDMDL
MODEL 3
REMARK VINA RESULT: -8.403341635      3.548      8.221
REMARK  6 active torsions:
REMARK  status: ('A' for Active; 'I' for Inactive)
REMARK       I    between atoms: N2_6  and  C5_7 
REMARK       I    between atoms: C5_7  and  N3_9 
REMARK    1  A    between atoms: N3_9  and  C6_11 
REMARK    2  A    between atoms: C6_11  and  C7_12 
REMARK    3  A    between atoms: C6_11  and  C16_28 
REMARK    4  A    between atoms: C7_12  and  C8_13 
REMARK    5  A    between atoms: C8_13  and  C9_14 
REMARK       I    between atoms: N4_15  and  C10_17 
REMARK       I    between atoms: C10_17  and  N5_19 
REMARK    6  A    between atoms: N6_22  and  C13_23 
ROOT
HETATM    1  C6  UNL     1      18.700 -14.448  19.840  1.00  0.00     0.090 C 
ENDROOT
BRANCH   1   2
HETATM    2  N3  UNL     1      17.693 -13.475  20.098  1.00  0.00    -0.338 N 
HETATM    3  C5  UNL     1      16.521 -13.184  19.373  1.00  0.00     0.318 C 
HETATM    4  N2  UNL     1      15.606 -12.169  19.772  1.00  0.00    -0.331 N 
HETATM    5  O1  UNL     1      16.253 -13.828  18.336  1.00  0.00    -0.247 OA
HETATM    6  C4  UNL     1      14.437 -11.894  18.979  1.00  0.00     0.155 C 
HETATM    7  C20 UNL     1      15.808 -11.386  20.973  1.00  0.00     0.155 C 
HETATM    8  C3  UNL     1      13.222 -11.764  19.884  1.00  0.00     0.256 C 
HETATM    9  N1  UNL     1      13.430 -10.886  20.998  1.00  0.00    -0.072 N 
HETATM   10  C1  UNL     1      12.491  -9.776  21.012  1.00  0.00     0.272 C 
HETATM   11  C2  UNL     1      13.281 -11.674  22.224  1.00  0.00     0.272 C 
HETATM   12  C21 UNL     1      14.764 -10.318  21.029  1.00  0.00     0.256 C 
ATOM     13  H3  UNL     1      17.843 -12.904  20.930  1.00  0.00     0.164 HD
ENDBRANCH   1   2
BRANCH   1  14
HETATM   14  C7  UNL     1      18.642 -15.698  20.638  1.00  0.00     0.031 C 
BRANCH  14  15
HETATM   15  C8  UNL     1      17.570 -15.774  21.676  1.00  0.00     0.046 C 
BRANCH  15  16
HETATM   16  C9  UNL     1      17.837 -16.677  22.799  1.00  0.00     0.065 C 
HETATM   17  N4  UNL     1      18.408 -16.388  23.901  1.00  0.00    -0.323 N 
HETATM   18  C10 UNL     1      18.911 -15.138  24.283  1.00  0.00     0.322 C 
ATOM     19  H4  UNL     1      18.510 -17.146  24.575  1.00  0.00     0.169 HD
HETATM   20  O2  UNL     1      18.161 -14.339  24.895  1.00  0.00    -0.247 OA
HETATM   21  N5  UNL     1      20.248 -14.752  23.994  1.00  0.00    -0.331 N 
HETATM   22  C11 UNL     1      21.143 -15.669  23.289  1.00  0.00     0.147 C 
HETATM   23  C15 UNL     1      20.763 -13.467  24.367  1.00  0.00     0.147 C 
HETATM   24  C12 UNL     1      22.414 -15.734  24.122  1.00  0.00     0.145 C 
HETATM   25  N6  UNL     1      23.007 -14.414  24.047  1.00  0.00    -0.357 N 
HETATM   26  C14 UNL     1      22.186 -13.252  23.901  1.00  0.00     0.145 C 
BRANCH  25  27
HETATM   27  C13 UNL     1      24.402 -14.289  24.121  1.00  0.00     0.183 C 
HETATM   28  N7  UNL     1      25.028 -13.020  24.238  1.00  0.00    -0.070 NA
HETATM   29  S1  UNL     1      25.351 -15.611  24.073  1.00  0.00    -0.044 SA
ENDBRANCH  25  27
ENDBRANCH  15  16
ENDBRANCH  14  15
ENDBRANCH   1  14
BRANCH   1  30
HETATM   30  C16 UNL     1      20.064 -13.807  20.126  1.00  0.00     0.008 C 
HETATM   31  C17 UNL     1      19.967 -12.394  20.632  1.00  0.00     0.007 C 
HETATM   32  C18 UNL     1      21.081 -12.030  19.678  1.00  0.00     0.001 C 
HETATM   33  C19 UNL     1      20.674 -13.213  18.841  1.00  0.00     0.007 C 
ENDBRANCH   1  30
TORSDOF 6
ENDMDL
MODEL 4
REMARK VINA RESULT: -8.361694450      4.272      5.792
REMARK  6 active torsions:
REMARK  status: ('A' for Active; 'I' for Inactive)
REMARK       I    between atoms: N2_6  and  C5_7 
REMARK       I    between atoms: C5_7  and  N3_9 
REMARK    1  A    between atoms: N3_9  and  C6_11 
REMARK    2  A    between atoms: C6_11  and  C7_12 
REMARK    3  A    between atoms: C6_11  and  C16_28 
REMARK    4  A    between atoms: C7_12  and  C8_13 
REMARK    5  A    between atoms: C8_13  and  C9_14 
REMARK       I    between atoms: N4_15  and  C10_17 
REMARK       I    between atoms: C10_17  and  N5_19 
REMARK    6  A    between atoms: N6_22  and  C13_23 
ROOT
HETATM    1  C6  UNL     1      21.780 -14.726  23.409  1.00  0.00     0.090 C 
ENDROOT
BRANCH   1   2
HETATM    2  N3  UNL     1      22.938 -15.545  23.532  1.00  0.00    -0.338 N 
HETATM    3  C5  UNL     1      23.210 -16.803  22.959  1.00  0.00     0.318 C 
HETATM    4  N2  UNL     1      24.433 -17.497  23.182  1.00  0.00    -0.331 N 
HETATM    5  O1  UNL     1      22.360 -17.351  22.225  1.00  0.00    -0.247 OA
HETATM    6  C4  UNL     1      24.649 -18.793  22.594  1.00  0.00     0.155 C 
HETATM    7  C20 UNL     1      25.494 -16.936  23.991  1.00  0.00     0.155 C 
HETATM    8  C3  UNL     1      26.039 -18.853  21.979  1.00  0.00     0.256 C 
HETATM    9  N1  UNL     1      27.073 -18.397  22.860  1.00  0.00    -0.072 N 
HETATM   10  C1  UNL     1      28.075 -19.420  23.114  1.00  0.00     0.272 C 
HETATM   11  C2  UNL     1      27.706 -17.229  22.242  1.00  0.00     0.272 C 
HETATM   12  C21 UNL     1      26.569 -17.963  24.149  1.00  0.00     0.256 C 
ATOM     13  H3  UNL     1      23.679 -15.165  24.120  1.00  0.00     0.164 HD
ENDBRANCH   1   2
BRANCH   1  14
HETATM   14  C7  UNL     1      21.920 -13.485  22.607  1.00  0.00     0.031 C 
BRANCH  14  15
HETATM   15  C8  UNL     1      21.166 -13.440  21.318  1.00  0.00     0.046 C 
BRANCH  15  16
HETATM   16  C9  UNL     1      20.359 -14.625  21.014  1.00  0.00     0.065 C 
HETATM   17  N4  UNL     1      19.315 -14.679  20.285  1.00  0.00    -0.323 N 
HETATM   18  C10 UNL     1      18.704 -13.614  19.613  1.00  0.00     0.322 C 
ATOM     19  H4  UNL     1      18.878 -15.595  20.180  1.00  0.00     0.169 HD
HETATM   20  O2  UNL     1      19.054 -13.352  18.436  1.00  0.00    -0.247 OA
HETATM   21  N5  UNL     1      17.699 -12.821  20.230  1.00  0.00    -0.331 N 
HETATM   22  C11 UNL     1      17.268 -13.111  21.598  1.00  0.00     0.147 C 
HETATM   23  C15 UNL     1      17.082 -11.717  19.554  1.00  0.00     0.147 C 
HETATM   24  C12 UNL     1      15.750 -13.191  21.548  1.00  0.00     0.145 C 
HETATM   25  N6  UNL     1      15.292 -11.853  21.230  1.00  0.00    -0.357 N 
HETATM   26  C14 UNL     1      16.090 -10.980  20.425  1.00  0.00     0.145 C 
BRANCH  25  27
HETATM   27  C13 UNL     1      14.050 -11.423  21.722  1.00  0.00     0.183 C 
HETATM   28  N7  UNL     1      13.225 -12.278  22.500  1.00  0.00    -0.070 NA
HETATM   29  S1  UNL     1      13.518  -9.918  21.410  1.00  0.00    -0.044 SA
ENDBRANCH  25  27
ENDBRANCH  15  16
ENDBRANCH  14  15
ENDBRANCH   1  14
BRANCH   1  30
HETATM   30  C16 UNL     1      21.355 -14.292  24.818  1.00  0.00     0.008 C 
HETATM   31  C17 UNL     1      20.428 -13.107  24.825  1.00  0.00     0.007 C 
HETATM   32  C18 UNL     1      21.257 -12.529  25.949  1.00  0.00     0.001 C 
HETATM   33  C19 UNL     1      22.408 -13.362  25.449  1.00  0.00     0.007 C 
ENDBRANCH   1  30
TORSDOF 6
ENDMDL
MODEL 5
REMARK VINA RESULT: -8.285648290      1.981      2.491
REMARK  6 active torsions:
REMARK  status: ('A' for Active; 'I' for Inactive)
REMARK       I    between atoms: N2_6  and  C5_7 
REMARK       I    between atoms: C5_7  and  N3_9 
REMARK    1  A    between atoms: N3_9  and  C6_11 
REMARK    2  A    between atoms: C6_11  and  C7_12 
REMARK    3  A    between atoms: C6_11  and  C16_28 
REMARK    4  A    between atoms: C7_12  and  C8_13 
REMARK    5  A    between atoms: C8_13  and  C9_14 
REMARK       I    between atoms: N4_15  and  C10_17 
REMARK       I    between atoms: C10_17  and  N5_19 
REMARK    6  A    between atoms: N6_22  and  C13_23 
ROOT
HETATM    1  C6  UNL     1      19.424 -13.076  20.002  1.00  0.00     0.090 C 
ENDROOT
BRANCH   1   2
HETATM    2  N3  UNL     1      20.122 -13.540  21.152  1.00  0.00    -0.338 N 
HETATM    3  C5  UNL     1      20.545 -14.844  21.478  1.00  0.00     0.318 C 
HETATM    4  N2  UNL     1      21.244 -15.143  22.682  1.00  0.00    -0.331 N 
HETATM    5  O1  UNL     1      20.308 -15.789  20.697  1.00  0.00    -0.247 OA
HETATM    6  C4  UNL     1      21.629 -16.497  22.979  1.00  0.00     0.155 C 
HETATM    7  C20 UNL     1      21.595 -14.115  23.639  1.00  0.00     0.155 C 
HETATM    8  C3  UNL     1      23.068 -16.527  23.469  1.00  0.00     0.256 C 
HETATM    9  N1  UNL     1      23.340 -15.569  24.501  1.00  0.00    -0.072 N 
HETATM   10  C1  UNL     1      23.812 -16.194  25.726  1.00  0.00     0.272 C 
HETATM   11  C2  UNL     1      24.356 -14.643  23.996  1.00  0.00     0.272 C 
HETATM   12  C21 UNL     1      22.182 -14.768  24.848  1.00  0.00     0.256 C 
ATOM     13  H3  UNL     1      20.351 -12.823  21.841  1.00  0.00     0.164 HD
ENDBRANCH   1   2
BRANCH   1  14
HETATM   14  C7  UNL     1      18.192 -13.813  19.623  1.00  0.00     0.031 C 
BRANCH  14  15
HETATM   15  C8  UNL     1      17.023 -12.981  19.207  1.00  0.00     0.046 C 
BRANCH  15  16
HETATM   16  C9  UNL     1      15.771 -13.711  18.991  1.00  0.00     0.065 C 
HETATM   17  N4  UNL     1      14.595 -13.222  18.926  1.00  0.00    -0.323 N 
HETATM   18  C10 UNL     1      14.240 -11.874  19.049  1.00  0.00     0.322 C 
ATOM     19  H4  UNL     1      13.834 -13.882  18.767  1.00  0.00     0.169 HD
HETATM   20  O2  UNL     1      14.188 -11.158  18.019  1.00  0.00    -0.247 OA
HETATM   21  N5  UNL     1      13.937 -11.295  20.311  1.00  0.00    -0.331 N 
HETATM   22  C11 UNL     1      13.983 -12.110  21.526  1.00  0.00     0.147 C 
HETATM   23  C15 UNL     1      13.590  -9.910  20.447  1.00  0.00     0.147 C 
HETATM   24  C12 UNL     1      12.658 -11.875  22.235  1.00  0.00     0.145 C 
HETATM   25  N6  UNL     1      12.670 -10.487  22.650  1.00  0.00    -0.357 N 
HETATM   26  C14 UNL     1      13.373  -9.503  21.887  1.00  0.00     0.145 C 
BRANCH  25  27
HETATM   27  C13 UNL     1      11.981 -10.119  23.816  1.00  0.00     0.183 C 
HETATM   28  N7  UNL     1      11.442 -11.093  24.698  1.00  0.00    -0.070 NA
HETATM   29  S1  UNL     1      11.778  -8.549  24.191  1.00  0.00    -0.044 SA
ENDBRANCH  25  27
ENDBRANCH  15  16
ENDBRANCH  14  15
ENDBRANCH   1  14
BRANCH   1  30
HETATM   30  C16 UNL     1      20.375 -13.165  18.801  1.00  0.00     0.008 C 
HETATM   31  C17 UNL     1      21.319 -11.999  18.698  1.00  0.00     0.007 C 
HETATM   32  C18 UNL     1      21.013 -11.947  17.218  1.00  0.00     0.001 C 
HETATM   33  C19 UNL     1      19.703 -12.622  17.525  1.00  0.00     0.007 C 
ENDBRANCH   1  30
TORSDOF 6
ENDMDL
