MODEL 1
REMARK VINA RESULT: -9.657549969      0.000      0.000
REMARK  5 active torsions:
REMARK  status: ('A' for Active; 'I' for Inactive)
REMARK       I    between atoms: C1_2  and  N2_4 
REMARK    1  A    between atoms: C5_8  and  C6_9 
REMARK       I    between atoms: C6_9  and  N3_11 
REMARK    2  A    between atoms: N3_11  and  C7_13 
REMARK    3  A    between atoms: N4_18  and  C12_19 
REMARK    4  A    between atoms: C12_19  and  C13_20 
REMARK    5  A    between atoms: C12_19  and  C15_27 
REMARK       I    between atoms: C13_20  and  N5_22 
ROOT
HETATM    1  C7  UNL     1      19.950 -13.667  20.861  1.00  0.00     0.176 C 
HETATM    2  C8  UNL     1      20.823 -12.901  19.929  1.00  0.00     0.035 C 
HETATM    3  C9  UNL     1      20.549 -13.144  18.486  1.00  0.00     0.004 C 
HETATM    4  C10 UNL     1      19.301 -12.385  18.111  1.00  0.00     0.020 C 
HETATM    5  C11 UNL     1      18.086 -13.283  18.307  1.00  0.00     0.127 C 
HETATM    6  N4  UNL     1      17.619 -13.214  19.680  1.00  0.00    -0.337 N 
HETATM    7  C21 UNL     1      18.526 -13.268  20.796  1.00  0.00     0.243 C 
HETATM    8  O4  UNL     1      18.044 -12.923  21.898  1.00  0.00    -0.271 OA
ENDROOT
BRANCH   6   9
HETATM    9  C12 UNL     1      16.229 -13.085  19.966  1.00  0.00     0.183 C 
BRANCH   9  10
HETATM   10  C13 UNL     1      15.743 -11.670  19.778  1.00  0.00     0.247 C 
HETATM   11  O3  UNL     1      15.553 -11.166  18.642  1.00  0.00    -0.271 OA
HETATM   12  N5  UNL     1      15.473 -10.830  20.893  1.00  0.00    -0.302 N 
HETATM   13  C14 UNL     1      14.450 -10.011  20.857  1.00  0.00     0.203 C 
ATOM     14  H5  UNL     1      16.074 -10.864  21.716  1.00  0.00     0.171 HD
HETATM   15  N6  UNL     1      13.586  -9.925  19.740  1.00  0.00    -0.066 NA
HETATM   16  N7  UNL     1      14.160  -9.168  21.964  1.00  0.00    -0.066 NA
ENDBRANCH   9  10
BRANCH   9  17
HETATM   17  C15 UNL     1      15.309 -14.077  19.357  1.00  0.00     0.018 C 
HETATM   18  C16 UNL     1      15.780 -15.494  19.305  1.00  0.00     0.007 C 
HETATM   19  C17 UNL     1      14.786 -16.267  18.443  1.00  0.00     0.000 C 
HETATM   20  C18 UNL     1      13.493 -16.275  19.278  1.00  0.00     0.000 C 
HETATM   21  C19 UNL     1      12.943 -14.872  19.208  1.00  0.00     0.000 C 
HETATM   22  C20 UNL     1      13.904 -13.949  19.924  1.00  0.00     0.007 C 
ENDBRANCH   9  17
ENDBRANCH   6   9
BRANCH   1  23
HETATM   23  N3  UNL     1      20.422 -13.700  22.220  1.00  0.00    -0.346 N 
HETATM   24  C6  UNL     1      21.159 -14.745  22.780  1.00  0.00     0.241 C 
HETATM   25  O2  UNL     1      21.443 -15.766  22.072  1.00  0.00    -0.271 OA
ATOM     26  H3  UNL     1      20.201 -12.902  22.817  1.00  0.00     0.163 HD
BRANCH  24  27
HETATM   27  C5  UNL     1      21.639 -14.736  24.168  1.00  0.00     0.180 C 
HETATM   28  N2  UNL     1      22.667 -13.789  24.438  1.00  0.00    -0.323 N 
HETATM   29  C1  UNL     1      24.020 -13.802  23.959  1.00  0.00     0.331 C 
HETATM   30  C2  UNL     1      22.182 -12.750  25.298  1.00  0.00     0.128 C 
HETATM   31  N1  UNL     1      24.932 -12.801  24.322  1.00  0.00    -0.040 NA
HETATM   32  O1  UNL     1      24.355 -14.740  23.207  1.00  0.00    -0.251 OA
HETATM   33  C3  UNL     1      20.882 -13.216  25.838  1.00  0.00     0.022 C 
HETATM   34  C4  UNL     1      20.582 -14.533  25.185  1.00  0.00     0.037 C 
ENDBRANCH  24  27
ENDBRANCH   1  23
TORSDOF 5
ENDMDL
MODEL 2
REMARK VINA RESULT: -9.409639080      2.158      8.255
REMARK  5 active torsions:
REMARK  status: ('A' for Active; 'I' for Inactive)
REMARK       I    between atoms: C1_2  and  N2_4 
REMARK    1  A    between atoms: C5_8  and  C6_9 
REMARK       I    between atoms: C6_9  and  N3_11 
REMARK    2  A    between atoms: N3_11  and  C7_13 
REMARK    3  A    between atoms: N4_18  and  C12_19 
REMARK    4  A    between atoms: C12_19  and  C13_20 
REMARK    5  A    between atoms: C12_19  and  C15_27 
REMARK       I    between atoms: C13_20  and  N5_22 
ROOT
HETATM    1  C7  UNL     1      17.949 -12.504  19.771  1.00  0.00     0.176 C 
HETATM    2  C8  UNL     1      18.567 -12.583  18.418  1.00  0.00     0.035 C 
HETATM    3  C9  UNL     1      19.973 -12.099  18.353  1.00  0.00     0.004 C 
HETATM    4  C10 UNL     1      20.865 -13.165  18.940  1.00  0.00     0.020 C 
HETATM    5  C11 UNL     1      21.037 -12.911  20.433  1.00  0.00     0.127 C 
HETATM    6  N4  UNL     1      19.952 -13.520  21.180  1.00  0.00    -0.337 N 
HETATM    7  C21 UNL     1      18.580 -13.405  20.761  1.00  0.00     0.243 C 
HETATM    8  O4  UNL     1      17.780 -14.190  21.316  1.00  0.00    -0.271 OA
ENDROOT
BRANCH   6   9
HETATM    9  C12 UNL     1      20.218 -14.262  22.368  1.00  0.00     0.183 C 
BRANCH   9  10
HETATM   10  C13 UNL     1      20.773 -15.631  22.064  1.00  0.00     0.247 C 
HETATM   11  O3  UNL     1      21.356 -15.899  20.983  1.00  0.00    -0.271 OA
HETATM   12  N5  UNL     1      20.662 -16.695  23.001  1.00  0.00    -0.302 N 
HETATM   13  C14 UNL     1      21.655 -17.539  23.147  1.00  0.00     0.203 C 
ATOM     14  H5  UNL     1      19.813 -16.801  23.557  1.00  0.00     0.171 HD
HETATM   15  N6  UNL     1      22.853 -17.437  22.401  1.00  0.00    -0.066 NA
HETATM   16  N7  UNL     1      21.565 -18.605  24.082  1.00  0.00    -0.066 NA
ENDBRANCH   9  10
BRANCH   9  17
HETATM   17  C15 UNL     1      20.972 -13.580  23.448  1.00  0.00     0.018 C 
HETATM   18  C16 UNL     1      20.355 -13.581  24.808  1.00  0.00     0.007 C 
HETATM   19  C17 UNL     1      21.183 -12.639  25.678  1.00  0.00     0.000 C 
HETATM   20  C18 UNL     1      22.539 -13.354  25.821  1.00  0.00     0.000 C 
HETATM   21  C19 UNL     1      23.221 -13.225  24.482  1.00  0.00     0.000 C 
HETATM   22  C20 UNL     1      22.429 -14.017  23.466  1.00  0.00     0.007 C 
ENDBRANCH   9  17
ENDBRANCH   6   9
BRANCH   1  23
HETATM   23  N3  UNL     1      16.516 -12.644  19.775  1.00  0.00    -0.346 N 
HETATM   24  C6  UNL     1      15.615 -11.588  19.913  1.00  0.00     0.241 C 
HETATM   25  O2  UNL     1      16.053 -10.400  20.062  1.00  0.00    -0.271 OA
ATOM     26  H3  UNL     1      16.133 -13.584  19.670  1.00  0.00     0.163 HD
BRANCH  24  27
HETATM   27  C5  UNL     1      14.157 -11.768  19.896  1.00  0.00     0.180 C 
HETATM   28  N2  UNL     1      13.657 -12.681  20.868  1.00  0.00    -0.323 N 
HETATM   29  C1  UNL     1      13.843 -14.103  20.914  1.00  0.00     0.331 C 
HETATM   30  C2  UNL     1      12.895 -11.987  21.864  1.00  0.00     0.128 C 
HETATM   31  N1  UNL     1      13.276 -14.880  21.933  1.00  0.00    -0.040 NA
HETATM   32  O1  UNL     1      14.530 -14.623  20.010  1.00  0.00    -0.251 OA
HETATM   33  C3  UNL     1      12.649 -10.622  21.340  1.00  0.00     0.022 C 
HETATM   34  C4  UNL     1      13.380 -10.516  20.034  1.00  0.00     0.037 C 
ENDBRANCH  24  27
ENDBRANCH   1  23
TORSDOF 5
ENDMDL
MODEL 3
REMARK VINA RESULT: -9.201120517      2.320      8.115
REMARK  5 active torsions:
REMARK  status: ('A' for Active; 'I' for Inactive)
REMARK       I    between atoms: C1_2  and  N2_4 
REMARK    1  A    between atoms: C5_8  and  C6_9 
REMARK       I    between atoms: C6_9  and  N3_11 
REMARK    2  A    between atoms: N3_11  and  C7_13 
REMARK    3  A    between atoms: N4_18  and  C12_19 
REMARK    4  A    between atoms: C12_19  and  C13_20 
REMARK    5  A    between atoms: C12_19  and  C15_27 
REMARK       I    between atoms: C13_20  and  N5_22 
ROOT
HETATM    1  C7  UNL     1      17.594 -12.445  19.794  1.00  0.00     0.176 C 
HETATM    2  C8  UNL     1      18.285 -12.919  18.563  1.00  0.00     0.035 C 
HETATM    3  C9  UNL     1      19.751 -12.657  18.538  1.00  0.00     0.004 C 
HETATM    4  C10 UNL     1      20.424 -13.667  19.433  1.00  0.00     0.020 C 
HETATM    5  C11 UNL     1      20.529 -13.100  20.844  1.00  0.00     0.127 C 
HETATM    6  N4  UNL     1      19.313 -13.366  21.591  1.00  0.00    -0.337 N 
HETATM    7  C21 UNL     1      18.008 -13.168  21.018  1.00  0.00     0.243 C 
HETATM    8  O4  UNL     1      17.060 -13.688  21.646  1.00  0.00    -0.271 OA
ENDROOT
BRANCH   6   9
HETATM    9  C12 UNL     1      19.378 -13.842  22.933  1.00  0.00     0.183 C 
BRANCH   9  10
HETATM   10  C13 UNL     1      19.163 -15.332  23.014  1.00  0.00     0.247 C 
HETATM   11  O3  UNL     1      19.961 -16.159  22.505  1.00  0.00    -0.271 OA
HETATM   12  N5  UNL     1      18.032 -15.878  23.681  1.00  0.00    -0.302 N 
HETATM   13  C14 UNL     1      18.161 -16.974  24.390  1.00  0.00     0.203 C 
ATOM     14  H5  UNL     1      17.124 -15.419  23.608  1.00  0.00     0.171 HD
HETATM   15  N6  UNL     1      19.397 -17.648  24.524  1.00  0.00    -0.066 NA
HETATM   16  N7  UNL     1      17.044 -17.531  25.069  1.00  0.00    -0.066 NA
ENDBRANCH   9  10
BRANCH   9  17
HETATM   17  C15 UNL     1      20.524 -13.396  23.764  1.00  0.00     0.018 C 
HETATM   18  C16 UNL     1      20.346 -13.450  25.246  1.00  0.00     0.007 C 
HETATM   19  C17 UNL     1      21.543 -12.737  25.868  1.00  0.00     0.000 C 
HETATM   20  C18 UNL     1      22.736 -13.655  25.545  1.00  0.00     0.000 C 
HETATM   21  C19 UNL     1      23.003 -13.487  24.070  1.00  0.00     0.000 C 
HETATM   22  C20 UNL     1      21.822 -14.042  23.306  1.00  0.00     0.007 C 
ENDBRANCH   9  17
ENDBRANCH   6   9
BRANCH   1  23
HETATM   23  N3  UNL     1      16.161 -12.387  19.681  1.00  0.00    -0.346 N 
HETATM   24  C6  UNL     1      15.395 -11.237  19.877  1.00  0.00     0.241 C 
HETATM   25  O2  UNL     1      15.968 -10.143  20.193  1.00  0.00    -0.271 OA
ATOM     26  H3  UNL     1      15.670 -13.248  19.441  1.00  0.00     0.163 HD
BRANCH  24  27
HETATM   27  C5  UNL     1      13.932 -11.212  19.737  1.00  0.00     0.180 C 
HETATM   28  N2  UNL     1      13.253 -12.279  20.389  1.00  0.00    -0.323 N 
HETATM   29  C1  UNL     1      13.272 -13.673  20.046  1.00  0.00     0.331 C 
HETATM   30  C2  UNL     1      12.491 -11.787  21.500  1.00  0.00     0.128 C 
HETATM   31  N1  UNL     1      12.536 -14.615  20.778  1.00  0.00    -0.040 NA
HETATM   32  O1  UNL     1      13.969 -14.015  19.069  1.00  0.00    -0.251 OA
HETATM   33  C3  UNL     1      12.446 -10.311  21.366  1.00  0.00     0.022 C 
HETATM   34  C4  UNL     1      13.292  -9.953  20.180  1.00  0.00     0.037 C 
ENDBRANCH  24  27
ENDBRANCH   1  23
TORSDOF 5
ENDMDL
MODEL 4
REMARK VINA RESULT: -9.112639410      2.263      8.217
REMARK  5 active torsions:
REMARK  status: ('A' for Active; 'I' for Inactive)
REMARK       I    between atoms: C1_2  and  N2_4 
REMARK    1  A    between atoms: C5_8  and  C6_9 
REMARK       I    between atoms: C6_9  and  N3_11 
REMARK    2  A    between atoms: N3_11  and  C7_13 
REMARK    3  A    between atoms: N4_18  and  C12_19 
REMARK    4  A    between atoms: C12_19  and  C13_20 
REMARK    5  A    between atoms: C12_19  and  C15_27 
REMARK       I    between atoms: C13_20  and  N5_22 
ROOT
HETATM    1  C7  UNL     1      17.861 -12.675  20.376  1.00  0.00     0.176 C 
HETATM    2  C8  UNL     1      18.381 -12.741  18.983  1.00  0.00     0.035 C 
HETATM    3  C9  UNL     1      19.848 -12.516  18.860  1.00  0.00     0.004 C 
HETATM    4  C10 UNL     1      20.554 -13.774  19.298  1.00  0.00     0.020 C 
HETATM    5  C11 UNL     1      20.849 -13.695  20.791  1.00  0.00     0.127 C 
HETATM    6  N4  UNL     1      19.710 -14.162  21.559  1.00  0.00    -0.337 N 
HETATM    7  C21 UNL     1      18.364 -13.762  21.246  1.00  0.00     0.243 C 
HETATM    8  O4  UNL     1      17.462 -14.437  21.789  1.00  0.00    -0.271 OA
ENDROOT
BRANCH   6   9
HETATM    9  C12 UNL     1      19.895 -15.046  22.662  1.00  0.00     0.183 C 
BRANCH   9  10
HETATM   10  C13 UNL     1      20.462 -16.374  22.231  1.00  0.00     0.247 C 
HETATM   11  O3  UNL     1      20.070 -16.974  21.198  1.00  0.00    -0.271 OA
HETATM   12  N5  UNL     1      21.483 -17.018  22.983  1.00  0.00    -0.302 N 
HETATM   13  C14 UNL     1      22.445 -17.656  22.362  1.00  0.00     0.203 C 
ATOM     14  H5  UNL     1      21.466 -16.983  24.003  1.00  0.00     0.171 HD
HETATM   15  N6  UNL     1      22.515 -17.734  20.951  1.00  0.00    -0.066 NA
HETATM   16  N7  UNL     1      23.477 -18.301  23.096  1.00  0.00    -0.066 NA
ENDBRANCH   9  10
BRANCH   9  17
HETATM   17  C15 UNL     1      20.580 -14.509  23.864  1.00  0.00     0.018 C 
HETATM   18  C16 UNL     1      21.751 -13.612  23.630  1.00  0.00     0.007 C 
HETATM   19  C17 UNL     1      22.419 -13.383  24.983  1.00  0.00     0.000 C 
HETATM   20  C18 UNL     1      21.391 -12.551  25.772  1.00  0.00     0.000 C 
HETATM   21  C19 UNL     1      20.275 -13.500  26.130  1.00  0.00     0.000 C 
HETATM   22  C20 UNL     1      19.585 -13.926  24.854  1.00  0.00     0.007 C 
ENDBRANCH   9  17
ENDBRANCH   6   9
BRANCH   1  23
HETATM   23  N3  UNL     1      16.429 -12.553  20.467  1.00  0.00    -0.346 N 
HETATM   24  C6  UNL     1      15.717 -11.373  20.250  1.00  0.00     0.241 C 
HETATM   25  O2  UNL     1      16.345 -10.301  19.963  1.00  0.00    -0.271 OA
ATOM     26  H3  UNL     1      15.898 -13.390  20.707  1.00  0.00     0.163 HD
BRANCH  24  27
HETATM   27  C5  UNL     1      14.253 -11.290  20.336  1.00  0.00     0.180 C 
HETATM   28  N2  UNL     1      13.622 -12.439  20.891  1.00  0.00    -0.323 N 
HETATM   29  C1  UNL     1      13.525 -13.752  20.317  1.00  0.00     0.331 C 
HETATM   30  C2  UNL     1      13.051 -12.132  22.169  1.00  0.00     0.128 C 
HETATM   31  N1  UNL     1      12.857 -14.790  20.980  1.00  0.00    -0.040 NA
HETATM   32  O1  UNL     1      14.059 -13.933  19.204  1.00  0.00    -0.251 OA
HETATM   33  C3  UNL     1      13.058 -10.654  22.295  1.00  0.00     0.022 C 
HETATM   34  C4  UNL     1      13.744 -10.114  21.075  1.00  0.00     0.037 C 
ENDBRANCH  24  27
ENDBRANCH   1  23
TORSDOF 5
ENDMDL
MODEL 5
REMARK VINA RESULT: -8.939599441      2.380      8.122
REMARK  5 active torsions:
REMARK  status: ('A' for Active; 'I' for Inactive)
REMARK       I    between atoms: C1_2  and  N2_4 
REMARK    1  A    between atoms: C5_8  and  C6_9 
REMARK       I    between atoms: C6_9  and  N3_11 
REMARK    2  A    between atoms: N3_11  and  C7_13 
REMARK    3  A    between atoms: N4_18  and  C12_19 
REMARK    4  A    between atoms: C12_19  and  C13_20 
REMARK    5  A    between atoms: C12_19  and  C15_27 
REMARK       I    between atoms: C13_20  and  N5_22 
ROOT
HETATM    1  C7  UNL     1      17.982 -12.742  20.433  1.00  0.00     0.176 C 
HETATM    2  C8  UNL     1      18.497 -12.718  19.036  1.00  0.00     0.035 C 
HETATM    3  C9  UNL     1      19.944 -12.383  18.918  1.00  0.00     0.004 C 
HETATM    4  C10 UNL     1      20.741 -13.604  19.304  1.00  0.00     0.020 C 
HETATM    5  C11 UNL     1      21.038 -13.560  20.798  1.00  0.00     0.127 C 
HETATM    6  N4  UNL     1      19.940 -14.137  21.552  1.00  0.00    -0.337 N 
HETATM    7  C21 UNL     1      18.567 -13.823  21.258  1.00  0.00     0.243 C 
HETATM    8  O4  UNL     1      17.719 -14.581  21.778  1.00  0.00    -0.271 OA
ENDROOT
BRANCH   6   9
HETATM    9  C12 UNL     1      20.194 -15.047  22.619  1.00  0.00     0.183 C 
BRANCH   9  10
HETATM   10  C13 UNL     1      20.936 -16.273  22.150  1.00  0.00     0.247 C 
HETATM   11  O3  UNL     1      22.157 -16.455  22.384  1.00  0.00    -0.271 OA
HETATM   12  N5  UNL     1      20.277 -17.294  21.411  1.00  0.00    -0.302 N 
HETATM   13  C14 UNL     1      20.578 -18.552  21.629  1.00  0.00     0.203 C 
ATOM     14  H5  UNL     1      19.574 -17.048  20.714  1.00  0.00     0.171 HD
HETATM   15  N6  UNL     1      21.544 -18.945  22.584  1.00  0.00    -0.066 NA
HETATM   16  N7  UNL     1      19.926 -19.586  20.905  1.00  0.00    -0.066 NA
ENDBRANCH   9  10
BRANCH   9  17
HETATM   17  C15 UNL     1      20.766 -14.492  23.871  1.00  0.00     0.018 C 
HETATM   18  C16 UNL     1      21.909 -13.541  23.729  1.00  0.00     0.007 C 
HETATM   19  C17 UNL     1      22.466 -13.296  25.129  1.00  0.00     0.000 C 
HETATM   20  C18 UNL     1      21.348 -12.520  25.847  1.00  0.00     0.000 C 
HETATM   21  C19 UNL     1      20.253 -13.522  26.117  1.00  0.00     0.000 C 
HETATM   22  C20 UNL     1      19.677 -13.965  24.791  1.00  0.00     0.007 C 
ENDBRANCH   9  17
ENDBRANCH   6   9
BRANCH   1  23
HETATM   23  N3  UNL     1      16.546 -12.727  20.533  1.00  0.00    -0.346 N 
HETATM   24  C6  UNL     1      15.744 -11.612  20.285  1.00  0.00     0.241 C 
HETATM   25  O2  UNL     1      16.286 -10.506  19.956  1.00  0.00    -0.271 OA
ATOM     26  H3  UNL     1      16.082 -13.594  20.805  1.00  0.00     0.163 HD
BRANCH  24  27
HETATM   27  C5  UNL     1      14.279 -11.639  20.381  1.00  0.00     0.180 C 
HETATM   28  N2  UNL     1      13.751 -12.718  21.145  1.00  0.00    -0.323 N 
HETATM   29  C1  UNL     1      13.765 -14.115  20.819  1.00  0.00     0.331 C 
HETATM   30  C2  UNL     1      13.159 -12.233  22.358  1.00  0.00     0.128 C 
HETATM   31  N1  UNL     1      13.190 -15.069  21.670  1.00  0.00    -0.040 NA
HETATM   32  O1  UNL     1      14.309 -14.450  19.746  1.00  0.00    -0.251 OA
HETATM   33  C3  UNL     1      13.040 -10.762  22.216  1.00  0.00     0.022 C 
HETATM   34  C4  UNL     1      13.673 -10.395  20.906  1.00  0.00     0.037 C 
ENDBRANCH  24  27
ENDBRANCH   1  23
TORSDOF 5
ENDMDL
