MODEL 1
REMARK VINA RESULT: -7.830336090      0.000      0.000
REMARK  10 active torsions:
REMARK  status: ('A' for Active; 'I' for Inactive)
REMARK    1  A    between atoms: N1_2  and  C4_5 
REMARK    2  A    between atoms: C4_5  and  C5_6 
REMARK    3  A    between atoms: C5_6  and  C6_7 
REMARK    4  A    between atoms: C6_7  and  C7_8 
REMARK    5  A    between atoms: C7_8  and  N3_12 
REMARK    6  A    between atoms: N3_12  and  C8_14 
REMARK    7  A    between atoms: C8_14  and  N4_15 
REMARK       I    between atoms: N5_21  and  C11_22 
REMARK       I    between atoms: C11_22  and  N6_24 
REMARK    8  A    between atoms: N7_27  and  C14_28 
REMARK    9  A    between atoms: C14_28  and  O2_29 
REMARK   10  A    between atoms: C14_28  and  N8_31 
ROOT
HETATM    1  C8  UNL     1      13.573 -11.394  21.403  1.00  0.00     0.214 C 
HETATM    2  C9  UNL     1      12.972 -12.395  22.381  1.00  0.00     0.083 C 
HETATM    3  C10 UNL     1      13.710 -13.637  22.040  1.00  0.00     0.132 C 
HETATM    4  N5  UNL     1      15.012 -13.230  21.524  1.00  0.00    -0.330 N 
HETATM    5  C11 UNL     1      16.095 -14.145  21.291  1.00  0.00     0.322 C 
HETATM    6  O1  UNL     1      15.920 -15.385  21.541  1.00  0.00    -0.247 OA
HETATM    7  N6  UNL     1      17.337 -13.723  20.800  1.00  0.00    -0.316 N 
HETATM    8  C12 UNL     1      17.854 -12.441  20.434  1.00  0.00     0.149 C 
HETATM    9  C13 UNL     1      19.380 -12.653  20.403  1.00  0.00     0.148 C 
HETATM   10  N7  UNL     1      19.592 -13.897  21.023  1.00  0.00    -0.329 N 
HETATM   11  C21 UNL     1      18.419 -14.711  20.562  1.00  0.00     0.257 C 
HETATM   12  C22 UNL     1      15.032 -11.832  21.297  1.00  0.00     0.189 C 
ENDROOT
BRANCH   1  13
HETATM   13  N3  UNL     1      12.911 -11.575  20.136  1.00  0.00    -0.346 N 
ATOM     14  H3  UNL     1      11.938 -11.877  20.083  1.00  0.00     0.163 HD
BRANCH  13  15
HETATM   15  C7  UNL     1      13.678 -11.312  18.946  1.00  0.00     0.072 C 
HETATM   16  N2  UNL     1      13.579 -10.145  18.466  1.00  0.00    -0.389 N 
ATOM     17  H22 UNL     1      14.122  -9.959  17.623  1.00  0.00     0.157 HD
ATOM     18  H21 UNL     1      13.015  -9.417  18.903  1.00  0.00     0.157 HD
BRANCH  15  19
HETATM   19  C6  UNL     1      14.491 -12.363  18.315  1.00  0.00     0.077 C 
BRANCH  19  20
HETATM   20  C5  UNL     1      15.513 -11.781  17.390  1.00  0.00     0.035 C 
BRANCH  20  21
HETATM   21  C4  UNL     1      16.518 -12.810  17.009  1.00  0.00     0.236 C 
BRANCH  21  22
HETATM   22  N1  UNL     1      17.558 -12.285  16.139  1.00  0.00    -0.079 N 
HETATM   23  C1  UNL     1      18.849 -12.267  16.763  1.00  0.00     0.271 C 
HETATM   24  C2  UNL     1      17.664 -13.084  14.919  1.00  0.00     0.271 C 
HETATM   25  C3  UNL     1      17.191 -10.926  15.797  1.00  0.00     0.271 C 
ENDBRANCH  21  22
ENDBRANCH  20  21
ENDBRANCH  19  20
ENDBRANCH  15  19
ENDBRANCH  13  15
ENDBRANCH   1  13
BRANCH   1  26
HETATM   26  N4  UNL     1      13.481 -10.063  21.925  1.00  0.00    -0.051 N 
ATOM     27  H43 UNL     1      13.191  -9.412  21.195  1.00  0.00     0.277 HD
ATOM     28  H42 UNL     1      12.684  -9.980  22.556  1.00  0.00     0.277 HD
ATOM     29  H41 UNL     1      14.332  -9.736  22.379  1.00  0.00     0.277 HD
ENDBRANCH   1  26
BRANCH  10  30
HETATM   30  C14 UNL     1      20.572 -14.465  21.837  1.00  0.00     0.222 C 
BRANCH  30  31
HETATM   31  O2  UNL     1      21.362 -15.326  21.223  1.00  0.00    -0.332 OA
ATOM     32  H2  UNL     1      21.256 -16.228  21.502  1.00  0.00     0.221 HD
ENDBRANCH  30  31
BRANCH  30  33
HETATM   33  N8  UNL     1      20.799 -14.228  23.183  1.00  0.00    -0.327 N 
HETATM   34  C15 UNL     1      19.776 -14.398  24.129  1.00  0.00     0.067 C 
HETATM   35  C16 UNL     1      20.126 -13.895  25.524  1.00  0.00     0.045 C 
HETATM   36  C17 UNL     1      21.042 -12.726  25.550  1.00  0.00     0.005 C 
HETATM   37  C18 UNL     1      22.471 -13.194  25.783  1.00  0.00     0.002 C 
HETATM   38  C19 UNL     1      22.700 -14.298  24.768  1.00  0.00     0.020 C 
HETATM   39  C20 UNL     1      22.202 -13.796  23.437  1.00  0.00     0.131 C 
ENDBRANCH  30  33
ENDBRANCH  10  30
TORSDOF 10
ENDMDL
MODEL 2
REMARK VINA RESULT: -7.576551793      0.921      1.568
REMARK  10 active torsions:
REMARK  status: ('A' for Active; 'I' for Inactive)
REMARK    1  A    between atoms: N1_2  and  C4_5 
REMARK    2  A    between atoms: C4_5  and  C5_6 
REMARK    3  A    between atoms: C5_6  and  C6_7 
REMARK    4  A    between atoms: C6_7  and  C7_8 
REMARK    5  A    between atoms: C7_8  and  N3_12 
REMARK    6  A    between atoms: N3_12  and  C8_14 
REMARK    7  A    between atoms: C8_14  and  N4_15 
REMARK       I    between atoms: N5_21  and  C11_22 
REMARK       I    between atoms: C11_22  and  N6_24 
REMARK    8  A    between atoms: N7_27  and  C14_28 
REMARK    9  A    between atoms: C14_28  and  O2_29 
REMARK   10  A    between atoms: C14_28  and  N8_31 
ROOT
HETATM    1  C8  UNL     1      13.456 -11.232  21.362  1.00  0.00     0.214 C 
HETATM    2  C9  UNL     1      12.938 -12.275  22.342  1.00  0.00     0.083 C 
HETATM    3  C10 UNL     1      13.807 -13.439  22.040  1.00  0.00     0.132 C 
HETATM    4  N5  UNL     1      15.073 -12.908  21.548  1.00  0.00    -0.330 N 
HETATM    5  C11 UNL     1      16.250 -13.709  21.356  1.00  0.00     0.322 C 
HETATM    6  O1  UNL     1      16.197 -14.957  21.623  1.00  0.00    -0.247 OA
HETATM    7  N6  UNL     1      17.453 -13.168  20.886  1.00  0.00    -0.316 N 
HETATM    8  C12 UNL     1      17.845 -11.845  20.510  1.00  0.00     0.149 C 
HETATM    9  C13 UNL     1      19.384 -11.899  20.518  1.00  0.00     0.148 C 
HETATM   10  N7  UNL     1      19.708 -13.105  21.164  1.00  0.00    -0.329 N 
HETATM   11  C21 UNL     1      18.637 -14.043  20.690  1.00  0.00     0.257 C 
HETATM   12  C22 UNL     1      14.955 -11.518  21.297  1.00  0.00     0.189 C 
ENDROOT
BRANCH   1  13
HETATM   13  N3  UNL     1      12.848 -11.499  20.083  1.00  0.00    -0.346 N 
ATOM     14  H3  UNL     1      11.889 -11.838  20.012  1.00  0.00     0.163 HD
BRANCH  13  15
HETATM   15  C7  UNL     1      13.648 -11.267  18.909  1.00  0.00     0.072 C 
HETATM   16  N2  UNL     1      13.581 -10.106  18.409  1.00  0.00    -0.389 N 
ATOM     17  H22 UNL     1      14.149  -9.943  17.577  1.00  0.00     0.157 HD
ATOM     18  H21 UNL     1      13.020  -9.362  18.822  1.00  0.00     0.157 HD
BRANCH  15  19
HETATM   19  C6  UNL     1      14.458 -12.342  18.314  1.00  0.00     0.077 C 
BRANCH  19  20
HETATM   20  C5  UNL     1      15.443 -11.799  17.327  1.00  0.00     0.035 C 
BRANCH  20  21
HETATM   21  C4  UNL     1      16.554 -12.767  17.112  1.00  0.00     0.236 C 
BRANCH  21  22
HETATM   22  N1  UNL     1      17.564 -12.269  16.194  1.00  0.00    -0.079 N 
HETATM   23  C1  UNL     1      17.678 -13.065  15.007  1.00  0.00     0.271 C 
HETATM   24  C2  UNL     1      17.260 -10.899  15.784  1.00  0.00     0.271 C 
HETATM   25  C3  UNL     1      18.834 -12.295  16.891  1.00  0.00     0.271 C 
ENDBRANCH  21  22
ENDBRANCH  20  21
ENDBRANCH  19  20
ENDBRANCH  15  19
ENDBRANCH  13  15
ENDBRANCH   1  13
BRANCH   1  26
HETATM   26  N4  UNL     1      13.215  -9.910  21.858  1.00  0.00    -0.051 N 
ATOM     27  H43 UNL     1      13.639  -9.214  21.245  1.00  0.00     0.277 HD
ATOM     28  H42 UNL     1      12.232  -9.660  21.749  1.00  0.00     0.277 HD
ATOM     29  H41 UNL     1      13.515  -9.767  22.822  1.00  0.00     0.277 HD
ENDBRANCH   1  26
BRANCH  10  30
HETATM   30  C14 UNL     1      20.721 -13.557  22.010  1.00  0.00     0.222 C 
BRANCH  30  31
HETATM   31  O2  UNL     1      21.942 -13.252  21.614  1.00  0.00    -0.332 OA
ATOM     32  H2  UNL     1      22.604 -13.310  22.295  1.00  0.00     0.221 HD
ENDBRANCH  30  31
BRANCH  30  33
HETATM   33  N8  UNL     1      20.585 -14.272  23.189  1.00  0.00    -0.327 N 
HETATM   34  C15 UNL     1      21.273 -15.479  23.386  1.00  0.00     0.067 C 
HETATM   35  C16 UNL     1      20.852 -16.241  24.637  1.00  0.00     0.045 C 
HETATM   36  C17 UNL     1      19.426 -16.072  25.015  1.00  0.00     0.005 C 
HETATM   37  C18 UNL     1      19.300 -15.006  26.093  1.00  0.00     0.002 C 
HETATM   38  C19 UNL     1      20.078 -13.814  25.570  1.00  0.00     0.020 C 
HETATM   39  C20 UNL     1      19.657 -13.596  24.139  1.00  0.00     0.131 C 
ENDBRANCH  30  33
ENDBRANCH  10  30
TORSDOF 10
ENDMDL
MODEL 3
REMARK VINA RESULT: -7.086151373      1.811      2.833
REMARK  10 active torsions:
REMARK  status: ('A' for Active; 'I' for Inactive)
REMARK    1  A    between atoms: N1_2  and  C4_5 
REMARK    2  A    between atoms: C4_5  and  C5_6 
REMARK    3  A    between atoms: C5_6  and  C6_7 
REMARK    4  A    between atoms: C6_7  and  C7_8 
REMARK    5  A    between atoms: C7_8  and  N3_12 
REMARK    6  A    between atoms: N3_12  and  C8_14 
REMARK    7  A    between atoms: C8_14  and  N4_15 
REMARK       I    between atoms: N5_21  and  C11_22 
REMARK       I    between atoms: C11_22  and  N6_24 
REMARK    8  A    between atoms: N7_27  and  C14_28 
REMARK    9  A    between atoms: C14_28  and  O2_29 
REMARK   10  A    between atoms: C14_28  and  N8_31 
ROOT
HETATM    1  C8  UNL     1      15.200 -12.143  18.984  1.00  0.00     0.214 C 
HETATM    2  C9  UNL     1      14.411 -13.208  19.733  1.00  0.00     0.083 C 
HETATM    3  C10 UNL     1      15.410 -14.300  19.855  1.00  0.00     0.132 C 
HETATM    4  N5  UNL     1      16.726 -13.672  19.873  1.00  0.00    -0.330 N 
HETATM    5  C11 UNL     1      17.936 -14.374  20.199  1.00  0.00     0.322 C 
HETATM    6  O1  UNL     1      17.870 -15.617  20.485  1.00  0.00    -0.247 OA
HETATM    7  N6  UNL     1      19.186 -13.742  20.213  1.00  0.00    -0.316 N 
HETATM    8  C12 UNL     1      19.600 -12.398  19.955  1.00  0.00     0.149 C 
HETATM    9  C13 UNL     1      21.010 -12.321  20.569  1.00  0.00     0.148 C 
HETATM   10  N7  UNL     1      21.137 -13.483  21.350  1.00  0.00    -0.329 N 
HETATM   11  C21 UNL     1      20.409 -14.516  20.541  1.00  0.00     0.257 C 
HETATM   12  C22 UNL     1      16.618 -12.303  19.527  1.00  0.00     0.189 C 
ENDROOT
BRANCH   1  13
HETATM   13  N3  UNL     1      15.168 -12.483  17.584  1.00  0.00    -0.346 N 
ATOM     14  H3  UNL     1      14.670 -13.309  17.250  1.00  0.00     0.163 HD
BRANCH  13  15
HETATM   15  C7  UNL     1      15.865 -11.612  16.675  1.00  0.00     0.072 C 
HETATM   16  N2  UNL     1      15.160 -10.741  16.087  1.00  0.00    -0.389 N 
ATOM     17  H22 UNL     1      15.655 -10.123  15.444  1.00  0.00     0.157 HD
ATOM     18  H21 UNL     1      14.161 -10.633  16.261  1.00  0.00     0.157 HD
BRANCH  15  19
HETATM   19  C6  UNL     1      17.306 -11.767  16.425  1.00  0.00     0.077 C 
BRANCH  19  20
HETATM   20  C5  UNL     1      17.597 -13.028  15.674  1.00  0.00     0.035 C 
BRANCH  20  21
HETATM   21  C4  UNL     1      18.712 -12.817  14.711  1.00  0.00     0.236 C 
BRANCH  21  22
HETATM   22  N1  UNL     1      18.429 -13.362  13.394  1.00  0.00    -0.079 N 
HETATM   23  C1  UNL     1      17.806 -14.652  13.447  1.00  0.00     0.271 C 
HETATM   24  C2  UNL     1      17.545 -12.471  12.645  1.00  0.00     0.271 C 
HETATM   25  C3  UNL     1      19.693 -13.488  12.697  1.00  0.00     0.271 C 
ENDBRANCH  21  22
ENDBRANCH  20  21
ENDBRANCH  19  20
ENDBRANCH  15  19
ENDBRANCH  13  15
ENDBRANCH   1  13
BRANCH   1  26
HETATM   26  N4  UNL     1      14.689 -10.837  19.279  1.00  0.00    -0.051 N 
ATOM     27  H43 UNL     1      14.291 -10.812  20.217  1.00  0.00     0.277 HD
ATOM     28  H42 UNL     1      15.453 -10.172  19.397  1.00  0.00     0.277 HD
ATOM     29  H41 UNL     1      14.016 -10.492  18.596  1.00  0.00     0.277 HD
ENDBRANCH   1  26
BRANCH  10  30
HETATM   30  C14 UNL     1      21.762 -13.832  22.547  1.00  0.00     0.222 C 
BRANCH  30  31
HETATM   31  O2  UNL     1      23.033 -13.487  22.623  1.00  0.00    -0.332 OA
ATOM     32  H2  UNL     1      23.190 -12.550  22.603  1.00  0.00     0.221 HD
ENDBRANCH  30  31
BRANCH  30  33
HETATM   33  N8  UNL     1      21.205 -14.485  23.636  1.00  0.00    -0.327 N 
HETATM   34  C15 UNL     1      21.680 -15.740  24.047  1.00  0.00     0.067 C 
HETATM   35  C16 UNL     1      20.827 -16.411  25.116  1.00  0.00     0.045 C 
HETATM   36  C17 UNL     1      19.377 -16.099  25.038  1.00  0.00     0.005 C 
HETATM   37  C18 UNL     1      19.034 -14.984  26.015  1.00  0.00     0.002 C 
HETATM   38  C19 UNL     1      20.047 -13.889  25.742  1.00  0.00     0.020 C 
HETATM   39  C20 UNL     1      20.103 -13.691  24.248  1.00  0.00     0.131 C 
ENDBRANCH  30  33
ENDBRANCH  10  30
TORSDOF 10
ENDMDL
MODEL 4
REMARK VINA RESULT: -7.045611810      2.655      8.347
REMARK  10 active torsions:
REMARK  status: ('A' for Active; 'I' for Inactive)
REMARK    1  A    between atoms: N1_2  and  C4_5 
REMARK    2  A    between atoms: C4_5  and  C5_6 
REMARK    3  A    between atoms: C5_6  and  C6_7 
REMARK    4  A    between atoms: C6_7  and  C7_8 
REMARK    5  A    between atoms: C7_8  and  N3_12 
REMARK    6  A    between atoms: N3_12  and  C8_14 
REMARK    7  A    between atoms: C8_14  and  N4_15 
REMARK       I    between atoms: N5_21  and  C11_22 
REMARK       I    between atoms: C11_22  and  N6_24 
REMARK    8  A    between atoms: N7_27  and  C14_28 
REMARK    9  A    between atoms: C14_28  and  O2_29 
REMARK   10  A    between atoms: C14_28  and  N8_31 
ROOT
HETATM    1  C8  UNL     1      20.625 -14.313  21.354  1.00  0.00     0.214 C 
HETATM    2  C9  UNL     1      21.026 -13.162  20.442  1.00  0.00     0.083 C 
HETATM    3  C10 UNL     1      20.020 -13.265  19.357  1.00  0.00     0.132 C 
HETATM    4  N5  UNL     1      18.821 -13.854  19.943  1.00  0.00    -0.330 N 
HETATM    5  C11 UNL     1      17.555 -13.915  19.268  1.00  0.00     0.322 C 
HETATM    6  O1  UNL     1      17.460 -13.434  18.088  1.00  0.00    -0.247 OA
HETATM    7  N6  UNL     1      16.419 -14.482  19.859  1.00  0.00    -0.316 N 
HETATM    8  C12 UNL     1      16.185 -15.086  21.134  1.00  0.00     0.149 C 
HETATM    9  C13 UNL     1      14.650 -15.084  21.268  1.00  0.00     0.148 C 
HETATM   10  N7  UNL     1      14.191 -14.240  20.241  1.00  0.00    -0.329 N 
HETATM   11  C21 UNL     1      15.137 -14.534  19.113  1.00  0.00     0.257 C 
HETATM   12  C22 UNL     1      19.102 -14.341  21.243  1.00  0.00     0.189 C 
ENDROOT
BRANCH   1  13
HETATM   13  N3  UNL     1      21.182 -15.521  20.798  1.00  0.00    -0.346 N 
ATOM     14  H3  UNL     1      21.580 -15.538  19.859  1.00  0.00     0.163 HD
BRANCH  13  15
HETATM   15  C7  UNL     1      21.152 -16.702  21.620  1.00  0.00     0.072 C 
HETATM   16  N2  UNL     1      22.268 -17.101  22.062  1.00  0.00    -0.389 N 
ATOM     17  H22 UNL     1      22.247 -17.938  22.645  1.00  0.00     0.157 HD
ATOM     18  H21 UNL     1      23.141 -16.607  21.879  1.00  0.00     0.157 HD
BRANCH  15  19
HETATM   19  C6  UNL     1      19.893 -17.415  21.884  1.00  0.00     0.077 C 
BRANCH  19  20
HETATM   20  C5  UNL     1      19.755 -17.758  23.334  1.00  0.00     0.035 C 
BRANCH  20  21
HETATM   21  C4  UNL     1      18.906 -16.753  24.030  1.00  0.00     0.236 C 
BRANCH  21  22
HETATM   22  N1  UNL     1      19.389 -16.435  25.363  1.00  0.00    -0.079 N 
HETATM   23  C1  UNL     1      19.176 -15.063  25.720  1.00  0.00     0.271 C 
HETATM   24  C2  UNL     1      18.722 -17.264  26.366  1.00  0.00     0.271 C 
HETATM   25  C3  UNL     1      20.812 -16.702  25.384  1.00  0.00     0.271 C 
ENDBRANCH  21  22
ENDBRANCH  20  21
ENDBRANCH  19  20
ENDBRANCH  15  19
ENDBRANCH  13  15
ENDBRANCH   1  13
BRANCH   1  26
HETATM   26  N4  UNL     1      21.030 -14.052  22.703  1.00  0.00    -0.051 N 
ATOM     27  H43 UNL     1      21.878 -14.571  22.929  1.00  0.00     0.277 HD
ATOM     28  H42 UNL     1      21.380 -13.099  22.794  1.00  0.00     0.277 HD
ATOM     29  H41 UNL     1      20.304 -14.234  23.396  1.00  0.00     0.277 HD
ENDBRANCH   1  26
BRANCH  10  30
HETATM   30  C14 UNL     1      13.142 -13.338  20.067  1.00  0.00     0.222 C 
BRANCH  30  31
HETATM   31  O2  UNL     1      12.106 -13.822  19.408  1.00  0.00    -0.332 OA
ATOM     32  H2  UNL     1      11.973 -13.441  18.547  1.00  0.00     0.221 HD
ENDBRANCH  30  31
BRANCH  30  33
HETATM   33  N8  UNL     1      13.072 -12.024  20.503  1.00  0.00    -0.327 N 
HETATM   34  C15 UNL     1      13.343 -10.959  19.631  1.00  0.00     0.067 C 
HETATM   35  C16 UNL     1      13.432  -9.600  20.315  1.00  0.00     0.045 C 
HETATM   36  C17 UNL     1      13.952  -9.638  21.706  1.00  0.00     0.005 C 
HETATM   37  C18 UNL     1      12.793  -9.626  22.692  1.00  0.00     0.002 C 
HETATM   38  C19 UNL     1      11.853 -10.718  22.218  1.00  0.00     0.020 C 
HETATM   39  C20 UNL     1      12.690 -11.941  21.941  1.00  0.00     0.131 C 
ENDBRANCH  30  33
ENDBRANCH  10  30
TORSDOF 10
ENDMDL
MODEL 5
REMARK VINA RESULT: -7.044615570      1.718      3.004
REMARK  10 active torsions:
REMARK  status: ('A' for Active; 'I' for Inactive)
REMARK    1  A    between atoms: N1_2  and  C4_5 
REMARK    2  A    between atoms: C4_5  and  C5_6 
REMARK    3  A    between atoms: C5_6  and  C6_7 
REMARK    4  A    between atoms: C6_7  and  C7_8 
REMARK    5  A    between atoms: C7_8  and  N3_12 
REMARK    6  A    between atoms: N3_12  and  C8_14 
REMARK    7  A    between atoms: C8_14  and  N4_15 
REMARK       I    between atoms: N5_21  and  C11_22 
REMARK       I    between atoms: C11_22  and  N6_24 
REMARK    8  A    between atoms: N7_27  and  C14_28 
REMARK    9  A    between atoms: C14_28  and  O2_29 
REMARK   10  A    between atoms: C14_28  and  N8_31 
ROOT
HETATM    1  C8  UNL     1      14.475 -10.732  20.571  1.00  0.00     0.214 C 
HETATM    2  C9  UNL     1      13.818 -11.148  21.880  1.00  0.00     0.083 C 
HETATM    3  C10 UNL     1      14.248 -12.563  22.002  1.00  0.00     0.132 C 
HETATM    4  N5  UNL     1      15.529 -12.680  21.314  1.00  0.00    -0.330 N 
HETATM    5  C11 UNL     1      16.372 -13.839  21.396  1.00  0.00     0.322 C 
HETATM    6  O1  UNL     1      15.989 -14.832  22.104  1.00  0.00    -0.247 OA
HETATM    7  N6  UNL     1      17.600 -13.919  20.727  1.00  0.00    -0.316 N 
HETATM    8  C12 UNL     1      18.308 -13.010  19.881  1.00  0.00     0.149 C 
HETATM    9  C13 UNL     1      19.746 -13.564  19.864  1.00  0.00     0.148 C 
HETATM   10  N7  UNL     1      19.787 -14.515  20.899  1.00  0.00    -0.329 N 
HETATM   11  C21 UNL     1      18.427 -15.147  20.832  1.00  0.00     0.257 C 
HETATM   12  C22 UNL     1      15.794 -11.501  20.574  1.00  0.00     0.189 C 
ENDROOT
BRANCH   1  13
HETATM   13  N3  UNL     1      13.635 -11.198  19.497  1.00  0.00    -0.346 N 
ATOM     14  H3  UNL     1      12.617 -11.156  19.562  1.00  0.00     0.163 HD
BRANCH  13  15
HETATM   15  C7  UNL     1      14.288 -11.727  18.328  1.00  0.00     0.072 C 
HETATM   16  N2  UNL     1      14.410 -10.933  17.351  1.00  0.00    -0.389 N 
ATOM     17  H22 UNL     1      14.874 -11.308  16.523  1.00  0.00     0.157 HD
ATOM     18  H21 UNL     1      14.095  -9.964  17.387  1.00  0.00     0.157 HD
BRANCH  15  19
HETATM   19  C6  UNL     1      14.743 -13.125  18.276  1.00  0.00     0.077 C 
BRANCH  19  20
HETATM   20  C5  UNL     1      13.689 -14.060  18.780  1.00  0.00     0.035 C 
BRANCH  20  21
HETATM   21  C4  UNL     1      14.255 -15.422  18.986  1.00  0.00     0.236 C 
BRANCH  21  22
HETATM   22  N1  UNL     1      13.339 -16.313  19.679  1.00  0.00    -0.079 N 
HETATM   23  C1  UNL     1      14.011 -17.370  20.375  1.00  0.00     0.271 C 
HETATM   24  C2  UNL     1      12.539 -15.575  20.655  1.00  0.00     0.271 C 
HETATM   25  C3  UNL     1      12.466 -16.898  18.682  1.00  0.00     0.271 C 
ENDBRANCH  21  22
ENDBRANCH  20  21
ENDBRANCH  19  20
ENDBRANCH  15  19
ENDBRANCH  13  15
ENDBRANCH   1  13
BRANCH   1  26
HETATM   26  N4  UNL     1      14.713  -9.319  20.554  1.00  0.00    -0.051 N 
ATOM     27  H43 UNL     1      14.766  -8.977  19.594  1.00  0.00     0.277 HD
ATOM     28  H42 UNL     1      13.887  -8.812  20.872  1.00  0.00     0.277 HD
ATOM     29  H41 UNL     1      15.535  -9.030  21.083  1.00  0.00     0.277 HD
ENDBRANCH   1  26
BRANCH  10  30
HETATM   30  C14 UNL     1      20.731 -14.962  21.823  1.00  0.00     0.222 C 
BRANCH  30  31
HETATM   31  O2  UNL     1      21.573 -15.863  21.353  1.00  0.00    -0.332 OA
ATOM     32  H2  UNL     1      22.428 -15.859  21.768  1.00  0.00     0.221 HD
ENDBRANCH  30  31
BRANCH  30  33
HETATM   33  N8  UNL     1      20.876 -14.571  23.144  1.00  0.00    -0.327 N 
HETATM   34  C15 UNL     1      19.844 -14.770  24.075  1.00  0.00     0.067 C 
HETATM   35  C16 UNL     1      20.079 -14.095  25.420  1.00  0.00     0.045 C 
HETATM   36  C17 UNL     1      20.852 -12.829  25.353  1.00  0.00     0.005 C 
HETATM   37  C18 UNL     1      22.315 -13.098  25.671  1.00  0.00     0.002 C 
HETATM   38  C19 UNL     1      22.710 -14.260  24.780  1.00  0.00     0.020 C 
HETATM   39  C20 UNL     1      22.209 -13.951  23.391  1.00  0.00     0.131 C 
ENDBRANCH  30  33
ENDBRANCH  10  30
TORSDOF 10
ENDMDL
