MODEL 1
REMARK VINA RESULT: -8.848044717      0.000      0.000
REMARK  4 active torsions:
REMARK  status: ('A' for Active; 'I' for Inactive)
REMARK    1  A    between atoms: C1_2  and  C2_4 
REMARK       I    between atoms: N2_8  and  C6_9 
REMARK    2  A    between atoms: C6_9  and  C7_11 
REMARK    3  A    between atoms: C7_11  and  C8_12 
REMARK       I    between atoms: C8_12  and  N3_14 
REMARK       I    between atoms: C9_16  and  N5_18 
REMARK       I    between atoms: C10_20  and  N6_21 
REMARK       I    between atoms: C10_20  and  N7_27 
REMARK    4  A    between atoms: C19_31  and  C20_32 
ROOT
HETATM    1  C8  UNL     1      19.367 -12.712  20.108  1.00  0.00     0.232 C 
HETATM    2  O3  UNL     1      19.497 -13.208  18.973  1.00  0.00    -0.273 OA
HETATM    3  N3  UNL     1      18.122 -12.102  20.430  1.00  0.00    -0.300 N 
ATOM      4  H3  UNL     1      17.915 -11.175  20.058  1.00  0.00     0.171 HD
HETATM    5  C9  UNL     1      17.247 -12.684  21.176  1.00  0.00     0.209 C 
HETATM    6  N4  UNL     1      17.563 -13.975  21.679  1.00  0.00    -0.063 NA
HETATM    7  N5  UNL     1      16.014 -12.107  21.512  1.00  0.00    -0.163 N 
ATOM      8  H5  UNL     1      16.017 -11.475  22.314  1.00  0.00     0.187 HD
HETATM    9  C10 UNL     1      14.890 -12.278  20.934  1.00  0.00     0.681 C 
HETATM   10  N6  UNL     1      13.758 -11.588  21.444  1.00  0.00    -0.218 N 
HETATM   11  C11 UNL     1      12.965 -12.233  22.444  1.00  0.00     0.141 C 
HETATM   12  C12 UNL     1      12.201 -11.287  23.322  1.00  0.00     0.020 C 
HETATM   13  C13 UNL     1      11.793 -10.019  22.631  1.00  0.00     0.003 C 
HETATM   14  C14 UNL     1      13.009  -9.362  22.044  1.00  0.00     0.020 C 
HETATM   15  C15 UNL     1      13.491 -10.270  20.907  1.00  0.00     0.141 C 
HETATM   16  N7  UNL     1      14.796 -13.141  19.811  1.00  0.00    -0.203 N 
HETATM   17  C16 UNL     1      14.998 -12.740  18.433  1.00  0.00     0.142 C 
HETATM   18  C17 UNL     1      15.780 -13.886  17.856  1.00  0.00     0.023 C 
HETATM   19  C18 UNL     1      15.438 -15.073  18.728  1.00  0.00     0.038 C 
HETATM   20  C19 UNL     1      14.487 -14.557  19.781  1.00  0.00     0.203 C 
ENDROOT
BRANCH   1  21
HETATM   21  C7  UNL     1      20.402 -12.718  21.123  1.00  0.00     0.206 C 
BRANCH  21  22
HETATM   22  C6  UNL     1      20.848 -14.106  21.549  1.00  0.00     0.229 C 
HETATM   23  N2  UNL     1      20.871 -14.459  22.896  1.00  0.00    -0.339 N 
HETATM   24  C2  UNL     1      21.188 -15.584  23.660  1.00  0.00     0.176 C 
HETATM   25  C5  UNL     1      20.500 -13.477  23.958  1.00  0.00     0.127 C 
HETATM   26  C3  UNL     1      22.333 -14.995  24.518  1.00  0.00     0.036 C 
HETATM   27  C4  UNL     1      21.718 -13.650  24.872  1.00  0.00     0.022 C 
HETATM   28  O2  UNL     1      21.168 -14.823  20.569  1.00  0.00    -0.273 OA
BRANCH  24  29
HETATM   29  C1  UNL     1      21.501 -16.871  23.138  1.00  0.00     0.254 C 
HETATM   30  N1  UNL     1      22.648 -17.274  22.476  1.00  0.00    -0.060 NA
HETATM   31  O1  UNL     1      20.608 -17.784  23.294  1.00  0.00    -0.275 OA
ENDBRANCH  24  29
ENDBRANCH  21  22
ENDBRANCH   1  21
BRANCH  20  32
HETATM   32  C20 UNL     1      13.082 -14.823  19.444  1.00  0.00     0.197 C 
HETATM   33  O4  UNL     1      12.734 -15.978  19.162  1.00  0.00    -0.646 OA
HETATM   34  O5  UNL     1      12.168 -13.787  19.444  1.00  0.00    -0.646 OA
ENDBRANCH  20  32
TORSDOF 4
ENDMDL
MODEL 2
REMARK VINA RESULT: -8.676677035      1.598      1.781
REMARK  4 active torsions:
REMARK  status: ('A' for Active; 'I' for Inactive)
REMARK    1  A    between atoms: C1_2  and  C2_4 
REMARK       I    between atoms: N2_8  and  C6_9 
REMARK    2  A    between atoms: C6_9  and  C7_11 
REMARK    3  A    between atoms: C7_11  and  C8_12 
REMARK       I    between atoms: C8_12  and  N3_14 
REMARK       I    between atoms: C9_16  and  N5_18 
REMARK       I    between atoms: C10_20  and  N6_21 
REMARK       I    between atoms: C10_20  and  N7_27 
REMARK    4  A    between atoms: C19_31  and  C20_32 
ROOT
HETATM    1  C8  UNL     1      20.047 -13.433  21.583  1.00  0.00     0.232 C 
HETATM    2  O3  UNL     1      20.446 -13.911  20.504  1.00  0.00    -0.273 OA
HETATM    3  N3  UNL     1      18.793 -12.758  21.589  1.00  0.00    -0.300 N 
ATOM      4  H3  UNL     1      18.739 -11.813  21.209  1.00  0.00     0.171 HD
HETATM    5  C9  UNL     1      17.725 -13.304  22.059  1.00  0.00     0.209 C 
HETATM    6  N4  UNL     1      17.832 -14.621  22.582  1.00  0.00    -0.063 NA
HETATM    7  N5  UNL     1      16.478 -12.663  22.081  1.00  0.00    -0.163 N 
ATOM      8  H5  UNL     1      16.301 -12.050  22.878  1.00  0.00     0.187 HD
HETATM    9  C10 UNL     1      15.539 -12.757  21.224  1.00  0.00     0.681 C 
HETATM   10  N6  UNL     1      14.348 -12.013  21.444  1.00  0.00    -0.218 N 
HETATM   11  C11 UNL     1      13.289 -12.632  22.178  1.00  0.00     0.141 C 
HETATM   12  C12 UNL     1      12.369 -11.661  22.859  1.00  0.00     0.020 C 
HETATM   13  C13 UNL     1      12.222 -10.358  22.131  1.00  0.00     0.003 C 
HETATM   14  C14 UNL     1      13.581  -9.760  21.905  1.00  0.00     0.020 C 
HETATM   15  C15 UNL     1      14.299 -10.671  20.903  1.00  0.00     0.141 C 
HETATM   16  N7  UNL     1      15.700 -13.590  20.086  1.00  0.00    -0.203 N 
HETATM   17  C16 UNL     1      16.277 -13.173  18.824  1.00  0.00     0.142 C 
HETATM   18  C17 UNL     1      17.125 -14.349  18.431  1.00  0.00     0.023 C 
HETATM   19  C18 UNL     1      16.505 -15.532  19.141  1.00  0.00     0.038 C 
HETATM   20  C19 UNL     1      15.338 -14.984  19.925  1.00  0.00     0.203 C 
ENDROOT
BRANCH   1  21
HETATM   21  C7  UNL     1      20.776 -13.519  22.832  1.00  0.00     0.206 C 
BRANCH  21  22
HETATM   22  C6  UNL     1      21.695 -14.725  22.934  1.00  0.00     0.229 C 
HETATM   23  N2  UNL     1      22.797 -14.706  23.786  1.00  0.00    -0.339 N 
HETATM   24  C2  UNL     1      23.826 -15.573  24.158  1.00  0.00     0.176 C 
HETATM   25  C5  UNL     1      23.131 -13.491  24.587  1.00  0.00     0.127 C 
HETATM   26  C3  UNL     1      25.044 -14.733  23.704  1.00  0.00     0.036 C 
HETATM   27  C4  UNL     1      24.613 -13.367  24.216  1.00  0.00     0.022 C 
HETATM   28  O2  UNL     1      21.328 -15.665  22.186  1.00  0.00    -0.273 OA
BRANCH  24  29
HETATM   29  C1  UNL     1      23.928 -16.940  23.772  1.00  0.00     0.254 C 
HETATM   30  N1  UNL     1      23.613 -18.067  24.513  1.00  0.00    -0.060 NA
HETATM   31  O1  UNL     1      24.373 -17.169  22.587  1.00  0.00    -0.275 OA
ENDBRANCH  24  29
ENDBRANCH  21  22
ENDBRANCH   1  21
BRANCH  20  32
HETATM   32  C20 UNL     1      14.060 -15.161  19.224  1.00  0.00     0.197 C 
HETATM   33  O4  UNL     1      13.899 -16.150  18.496  1.00  0.00    -0.646 OA
HETATM   34  O5  UNL     1      13.055 -14.226  19.381  1.00  0.00    -0.646 OA
ENDBRANCH  20  32
TORSDOF 4
ENDMDL
MODEL 3
REMARK VINA RESULT: -8.605342669      1.605      1.870
REMARK  4 active torsions:
REMARK  status: ('A' for Active; 'I' for Inactive)
REMARK    1  A    between atoms: C1_2  and  C2_4 
REMARK       I    between atoms: N2_8  and  C6_9 
REMARK    2  A    between atoms: C6_9  and  C7_11 
REMARK    3  A    between atoms: C7_11  and  C8_12 
REMARK       I    between atoms: C8_12  and  N3_14 
REMARK       I    between atoms: C9_16  and  N5_18 
REMARK       I    between atoms: C10_20  and  N6_21 
REMARK       I    between atoms: C10_20  and  N7_27 
REMARK    4  A    between atoms: C19_31  and  C20_32 
ROOT
HETATM    1  C8  UNL     1      19.950 -13.520  21.848  1.00  0.00     0.232 C 
HETATM    2  O3  UNL     1      20.390 -14.008  20.789  1.00  0.00    -0.273 OA
HETATM    3  N3  UNL     1      18.711 -12.822  21.796  1.00  0.00    -0.300 N 
ATOM      4  H3  UNL     1      18.692 -11.877  21.414  1.00  0.00     0.171 HD
HETATM    5  C9  UNL     1      17.612 -13.347  22.217  1.00  0.00     0.209 C 
HETATM    6  N4  UNL     1      17.670 -14.666  22.745  1.00  0.00    -0.063 NA
HETATM    7  N5  UNL     1      16.378 -12.683  22.182  1.00  0.00    -0.163 N 
ATOM      8  H5  UNL     1      16.176 -12.065  22.969  1.00  0.00     0.187 HD
HETATM    9  C10 UNL     1      15.477 -12.760  21.282  1.00  0.00     0.681 C 
HETATM   10  N6  UNL     1      14.292 -11.993  21.448  1.00  0.00    -0.218 N 
HETATM   11  C11 UNL     1      13.189 -12.591  22.133  1.00  0.00     0.141 C 
HETATM   12  C12 UNL     1      12.257 -11.603  22.770  1.00  0.00     0.020 C 
HETATM   13  C13 UNL     1      12.168 -10.298  22.035  1.00  0.00     0.003 C 
HETATM   14  C14 UNL     1      13.547  -9.726  21.872  1.00  0.00     0.020 C 
HETATM   15  C15 UNL     1      14.293 -10.652  20.904  1.00  0.00     0.141 C 
HETATM   16  N7  UNL     1      15.674 -13.597  20.153  1.00  0.00    -0.203 N 
HETATM   17  C16 UNL     1      16.317 -13.193  18.919  1.00  0.00     0.142 C 
HETATM   18  C17 UNL     1      17.159 -14.386  18.566  1.00  0.00     0.023 C 
HETATM   19  C18 UNL     1      16.486 -15.556  19.247  1.00  0.00     0.038 C 
HETATM   20  C19 UNL     1      15.294 -14.985  19.977  1.00  0.00     0.203 C 
ENDROOT
BRANCH   1  21
HETATM   21  C7  UNL     1      20.620 -13.619  23.129  1.00  0.00     0.206 C 
BRANCH  21  22
HETATM   22  C6  UNL     1      21.873 -14.479  23.112  1.00  0.00     0.229 C 
HETATM   23  N2  UNL     1      21.823 -15.810  23.517  1.00  0.00    -0.339 N 
HETATM   24  C2  UNL     1      22.707 -16.885  23.630  1.00  0.00     0.176 C 
HETATM   25  C5  UNL     1      20.554 -16.417  24.017  1.00  0.00     0.127 C 
HETATM   26  C3  UNL     1      22.593 -17.149  25.151  1.00  0.00     0.036 C 
HETATM   27  C4  UNL     1      21.086 -17.033  25.315  1.00  0.00     0.022 C 
HETATM   28  O2  UNL     1      22.879 -13.843  22.707  1.00  0.00    -0.273 OA
BRANCH  24  29
HETATM   29  C1  UNL     1      24.055 -16.894  23.172  1.00  0.00     0.254 C 
HETATM   30  N1  UNL     1      25.118 -16.126  23.616  1.00  0.00    -0.060 NA
HETATM   31  O1  UNL     1      24.330 -17.715  22.220  1.00  0.00    -0.275 OA
ENDBRANCH  24  29
ENDBRANCH  21  22
ENDBRANCH   1  21
BRANCH  20  32
HETATM   32  C20 UNL     1      14.046 -15.138  19.217  1.00  0.00     0.197 C 
HETATM   33  O4  UNL     1      13.935 -16.077  18.417  1.00  0.00    -0.646 OA
HETATM   34  O5  UNL     1      13.015 -14.238  19.401  1.00  0.00    -0.646 OA
ENDBRANCH  20  32
TORSDOF 4
ENDMDL
MODEL 4
REMARK VINA RESULT: -8.588410664      2.430      4.418
REMARK  4 active torsions:
REMARK  status: ('A' for Active; 'I' for Inactive)
REMARK    1  A    between atoms: C1_2  and  C2_4 
REMARK       I    between atoms: N2_8  and  C6_9 
REMARK    2  A    between atoms: C6_9  and  C7_11 
REMARK    3  A    between atoms: C7_11  and  C8_12 
REMARK       I    between atoms: C8_12  and  N3_14 
REMARK       I    between atoms: C9_16  and  N5_18 
REMARK       I    between atoms: C10_20  and  N6_21 
REMARK       I    between atoms: C10_20  and  N7_27 
REMARK    4  A    between atoms: C19_31  and  C20_32 
ROOT
HETATM    1  C8  UNL     1      19.395 -14.109  22.161  1.00  0.00     0.232 C 
HETATM    2  O3  UNL     1      18.560 -14.623  22.929  1.00  0.00    -0.273 OA
HETATM    3  N3  UNL     1      19.030 -13.942  20.795  1.00  0.00    -0.300 N 
ATOM      4  H3  UNL     1      19.040 -14.755  20.179  1.00  0.00     0.171 HD
HETATM    5  C9  UNL     1      18.687 -12.797  20.313  1.00  0.00     0.209 C 
HETATM    6  N4  UNL     1      18.684 -11.684  21.196  1.00  0.00    -0.063 NA
HETATM    7  N5  UNL     1      18.326 -12.603  18.972  1.00  0.00    -0.163 N 
ATOM      8  H5  UNL     1      19.093 -12.450  18.317  1.00  0.00     0.187 HD
HETATM    9  C10 UNL     1      17.151 -12.595  18.476  1.00  0.00     0.681 C 
HETATM   10  N6  UNL     1      17.013 -12.378  17.078  1.00  0.00    -0.218 N 
HETATM   11  C11 UNL     1      16.858 -11.035  16.613  1.00  0.00     0.141 C 
HETATM   12  C12 UNL     1      17.299 -10.826  15.194  1.00  0.00     0.020 C 
HETATM   13  C13 UNL     1      17.114 -12.031  14.321  1.00  0.00     0.003 C 
HETATM   14  C14 UNL     1      17.812 -13.206  14.944  1.00  0.00     0.020 C 
HETATM   15  C15 UNL     1      17.038 -13.546  16.223  1.00  0.00     0.141 C 
HETATM   16  N7  UNL     1      16.026 -12.799  19.316  1.00  0.00    -0.203 N 
HETATM   17  C16 UNL     1      15.452 -14.089  19.641  1.00  0.00     0.142 C 
HETATM   18  C17 UNL     1      15.132 -13.960  21.104  1.00  0.00     0.023 C 
HETATM   19  C18 UNL     1      14.971 -12.476  21.340  1.00  0.00     0.038 C 
HETATM   20  C19 UNL     1      15.222 -11.811  20.009  1.00  0.00     0.203 C 
ENDROOT
BRANCH   1  21
HETATM   21  C7  UNL     1      20.714 -13.669  22.568  1.00  0.00     0.206 C 
BRANCH  21  22
HETATM   22  C6  UNL     1      21.715 -14.797  22.760  1.00  0.00     0.229 C 
HETATM   23  N2  UNL     1      22.730 -14.689  23.707  1.00  0.00    -0.339 N 
HETATM   24  C2  UNL     1      23.788 -15.470  24.175  1.00  0.00     0.176 C 
HETATM   25  C5  UNL     1      22.890 -13.453  24.529  1.00  0.00     0.127 C 
HETATM   26  C3  UNL     1      24.969 -14.533  23.831  1.00  0.00     0.036 C 
HETATM   27  C4  UNL     1      24.384 -13.208  24.294  1.00  0.00     0.022 C 
HETATM   28  O2  UNL     1      21.496 -15.762  21.985  1.00  0.00    -0.273 OA
BRANCH  24  29
HETATM   29  C1  UNL     1      24.036 -16.824  23.808  1.00  0.00     0.254 C 
HETATM   30  N1  UNL     1      23.606 -17.978  24.439  1.00  0.00    -0.060 NA
HETATM   31  O1  UNL     1      24.754 -17.008  22.756  1.00  0.00    -0.275 OA
ENDBRANCH  24  29
ENDBRANCH  21  22
ENDBRANCH   1  21
BRANCH  20  32
HETATM   32  C20 UNL     1      13.976 -11.494  19.297  1.00  0.00     0.197 C 
HETATM   33  O4  UNL     1      14.029 -10.845  18.243  1.00  0.00    -0.646 OA
HETATM   34  O5  UNL     1      12.767 -11.920  19.808  1.00  0.00    -0.646 OA
ENDBRANCH  20  32
TORSDOF 4
ENDMDL
MODEL 5
REMARK VINA RESULT: -8.563905614      2.479      8.020
REMARK  4 active torsions:
REMARK  status: ('A' for Active; 'I' for Inactive)
REMARK    1  A    between atoms: C1_2  and  C2_4 
REMARK       I    between atoms: N2_8  and  C6_9 
REMARK    2  A    between atoms: C6_9  and  C7_11 
REMARK    3  A    between atoms: C7_11  and  C8_12 
REMARK       I    between atoms: C8_12  and  N3_14 
REMARK       I    between atoms: C9_16  and  N5_18 
REMARK       I    between atoms: C10_20  and  N6_21 
REMARK       I    between atoms: C10_20  and  N7_27 
REMARK    4  A    between atoms: C19_31  and  C20_32 
ROOT
HETATM    1  C8  UNL     1      16.082 -14.343  19.400  1.00  0.00     0.232 C 
HETATM    2  O3  UNL     1      16.881 -14.141  18.466  1.00  0.00    -0.273 OA
HETATM    3  N3  UNL     1      16.556 -15.052  20.541  1.00  0.00    -0.300 N 
ATOM      4  H3  UNL     1      16.664 -16.064  20.483  1.00  0.00     0.171 HD
HETATM    5  C9  UNL     1      16.852 -14.455  21.643  1.00  0.00     0.209 C 
HETATM    6  N4  UNL     1      16.691 -13.044  21.694  1.00  0.00    -0.063 NA
HETATM    7  N5  UNL     1      17.318 -15.127  22.782  1.00  0.00    -0.163 N 
ATOM      8  H5  UNL     1      16.604 -15.522  23.395  1.00  0.00     0.187 HD
HETATM    9  C10 UNL     1      18.528 -15.302  23.143  1.00  0.00     0.681 C 
HETATM   10  N6  UNL     1      18.776 -16.021  24.344  1.00  0.00    -0.218 N 
HETATM   11  C11 UNL     1      18.869 -15.284  25.566  1.00  0.00     0.141 C 
HETATM   12  C12 UNL     1      18.544 -16.089  26.790  1.00  0.00     0.020 C 
HETATM   13  C13 UNL     1      18.899 -17.542  26.668  1.00  0.00     0.003 C 
HETATM   14  C14 UNL     1      18.239 -18.111  25.446  1.00  0.00     0.020 C 
HETATM   15  C15 UNL     1      18.917 -17.457  24.237  1.00  0.00     0.141 C 
HETATM   16  N7  UNL     1      19.585 -14.785  22.349  1.00  0.00    -0.203 N 
HETATM   17  C16 UNL     1      20.224 -15.486  21.253  1.00  0.00     0.142 C 
HETATM   18  C17 UNL     1      20.399 -14.412  20.218  1.00  0.00     0.023 C 
HETATM   19  C18 UNL     1      20.425 -13.116  20.998  1.00  0.00     0.038 C 
HETATM   20  C19 UNL     1      20.245 -13.498  22.447  1.00  0.00     0.203 C 
ENDROOT
BRANCH   1  21
HETATM   21  C7  UNL     1      14.702 -13.902  19.402  1.00  0.00     0.206 C 
BRANCH  21  22
HETATM   22  C6  UNL     1      14.528 -12.400  19.548  1.00  0.00     0.229 C 
HETATM   23  N2  UNL     1      13.969 -11.861  20.704  1.00  0.00    -0.339 N 
HETATM   24  C2  UNL     1      13.665 -10.595  21.207  1.00  0.00     0.176 C 
HETATM   25  C5  UNL     1      13.487 -12.741  21.809  1.00  0.00     0.127 C 
HETATM   26  C3  UNL     1      12.135 -10.749  21.380  1.00  0.00     0.036 C 
HETATM   27  C4  UNL     1      12.090 -12.139  21.995  1.00  0.00     0.022 C 
HETATM   28  O2  UNL     1      14.937 -11.775  18.537  1.00  0.00    -0.273 OA
BRANCH  24  29
HETATM   29  C1  UNL     1      14.026  -9.359  20.597  1.00  0.00     0.254 C 
HETATM   30  N1  UNL     1      15.057  -8.501  20.939  1.00  0.00    -0.060 NA
HETATM   31  O1  UNL     1      13.306  -8.982  19.600  1.00  0.00    -0.275 OA
ENDBRANCH  24  29
ENDBRANCH  21  22
ENDBRANCH   1  21
BRANCH  20  32
HETATM   32  C20 UNL     1      21.522 -13.570  23.170  1.00  0.00     0.197 C 
HETATM   33  O4  UNL     1      21.516 -13.640  24.407  1.00  0.00    -0.646 OA
HETATM   34  O5  UNL     1      22.711 -13.558  22.467  1.00  0.00    -0.646 OA
ENDBRANCH  20  32
TORSDOF 4
ENDMDL
