MODEL 1
REMARK VINA RESULT: -7.751843670      0.000      0.000
REMARK  8 active torsions:
REMARK  status: ('A' for Active; 'I' for Inactive)
REMARK    1  A    between atoms: C2_2  and  N1_3 
REMARK    2  A    between atoms: C2_2  and  N2_6 
REMARK    3  A    between atoms: N2_6  and  N3_8 
REMARK    4  A    between atoms: N3_8  and  C3_10 
REMARK    5  A    between atoms: C3_10  and  C10_28 
REMARK    6  A    between atoms: C4_11  and  N4_12 
REMARK    7  A    between atoms: C4_11  and  C5_15 
REMARK    8  A    between atoms: C7_20  and  N7_21 
ROOT
HETATM    1  C3  UNL     1      15.066  32.877  -8.184  1.00  0.00     0.142 C 
HETATM    2  C4  UNL     1      15.210  34.289  -8.214  1.00  0.00     0.088 C 
ENDROOT
BRANCH   2   3
HETATM    3  N4  UNL     1      13.997  34.933  -8.303  1.00  0.00    -0.395 N 
ATOM      4  H42 UNL     1      13.391  34.610  -7.549  1.00  0.00     0.156 HD
ATOM      5  H41 UNL     1      13.964  35.583  -9.088  1.00  0.00     0.156 HD
ENDBRANCH   2   3
BRANCH   2   6
HETATM    6  C5  UNL     1      16.254  35.259  -8.181  1.00  0.00     0.085 A 
HETATM    7  N5  UNL     1      16.370  35.965  -6.966  1.00  0.00    -0.338 N 
HETATM    8  C6  UNL     1      17.278  36.895  -6.764  1.00  0.00     0.161 A 
ATOM      9  H5  UNL     1      15.722  35.744  -6.210  1.00  0.00     0.167 HD
HETATM   10  N6  UNL     1      17.327  37.560  -5.505  1.00  0.00    -0.079 NA
HETATM   11  C7  UNL     1      18.185  37.248  -7.731  1.00  0.00     0.141 A 
HETATM   12  N8  UNL     1      18.098  36.597  -8.888  1.00  0.00    -0.342 N 
HETATM   13  C8  UNL     1      17.144  35.614  -9.112  1.00  0.00     0.036 A 
ATOM     14  H8  UNL     1      18.753  36.828  -9.635  1.00  0.00     0.167 HD
HETATM   15  C9  UNL     1      17.217  35.017 -10.451  1.00  0.00     0.070 C 
BRANCH  11  16
HETATM   16  N7  UNL     1      19.049  38.153  -7.500  1.00  0.00    -0.383 N 
ATOM     17  H72 UNL     1      19.087  38.685  -6.630  1.00  0.00     0.157 HD
ATOM     18  H71 UNL     1      19.753  38.382  -8.201  1.00  0.00     0.157 HD
ENDBRANCH  11  16
ENDBRANCH   2   6
BRANCH   1  19
HETATM   19  N3  UNL     1      15.949  32.001  -8.109  1.00  0.00    -0.293 N 
ATOM     20  H3  UNL     1      16.829  32.230  -8.571  1.00  0.00     0.187 HD
BRANCH  19  21
HETATM   21  N2  UNL     1      15.911  30.790  -7.506  1.00  0.00    -0.289 N 
ATOM     22  H2  UNL     1      16.157  30.736  -6.518  1.00  0.00     0.188 HD
BRANCH  21  23
HETATM   23  C2  UNL     1      15.545  29.584  -8.180  1.00  0.00     0.085 C 
HETATM   24  C1  UNL     1      15.252  28.334  -7.440  1.00  0.00     0.090 C 
BRANCH  23  25
HETATM   25  N1  UNL     1      15.460  29.551  -9.466  1.00  0.00    -0.388 N 
ATOM     26  H12 UNL     1      14.659  29.114  -9.922  1.00  0.00     0.157 HD
ATOM     27  H11 UNL     1      16.219  29.974 -10.001  1.00  0.00     0.157 HD
ENDBRANCH  23  25
ENDBRANCH  21  23
ENDBRANCH  19  21
ENDBRANCH   1  19
BRANCH   1  28
HETATM   28  C10 UNL     1      13.679  32.335  -8.250  1.00  0.00     0.285 C 
HETATM   29  N9  UNL     1      12.825  32.338  -7.162  1.00  0.00    -0.056 NA
HETATM   30  O1  UNL     1      13.271  31.862  -9.321  1.00  0.00    -0.269 OA
ENDBRANCH   1  28
TORSDOF 8
ENDMDL
MODEL 2
REMARK VINA RESULT: -7.579697948      1.591      1.811
REMARK  8 active torsions:
REMARK  status: ('A' for Active; 'I' for Inactive)
REMARK    1  A    between atoms: C2_2  and  N1_3 
REMARK    2  A    between atoms: C2_2  and  N2_6 
REMARK    3  A    between atoms: N2_6  and  N3_8 
REMARK    4  A    between atoms: N3_8  and  C3_10 
REMARK    5  A    between atoms: C3_10  and  C10_28 
REMARK    6  A    between atoms: C4_11  and  N4_12 
REMARK    7  A    between atoms: C4_11  and  C5_15 
REMARK    8  A    between atoms: C7_20  and  N7_21 
ROOT
HETATM    1  C3  UNL     1      13.262  32.638  -7.648  1.00  0.00     0.142 C 
HETATM    2  C4  UNL     1      13.721  33.952  -7.924  1.00  0.00     0.088 C 
ENDROOT
BRANCH   2   3
HETATM    3  N4  UNL     1      12.696  34.871  -7.921  1.00  0.00    -0.395 N 
ATOM      4  H42 UNL     1      13.084  35.805  -7.786  1.00  0.00     0.156 HD
ATOM      5  H41 UNL     1      11.786  34.431  -8.051  1.00  0.00     0.156 HD
ENDBRANCH   2   3
BRANCH   2   6
HETATM    6  C5  UNL     1      14.947  34.619  -8.212  1.00  0.00     0.085 A 
HETATM    7  N5  UNL     1      15.251  35.698  -7.356  1.00  0.00    -0.338 N 
HETATM    8  C6  UNL     1      16.342  36.422  -7.480  1.00  0.00     0.161 A 
ATOM      9  H5  UNL     1      14.597  35.926  -6.609  1.00  0.00     0.167 HD
HETATM   10  N6  UNL     1      16.573  37.496  -6.572  1.00  0.00    -0.079 NA
HETATM   11  C7  UNL     1      17.270  36.177  -8.460  1.00  0.00     0.141 A 
HETATM   12  N8  UNL     1      17.009  35.164  -9.281  1.00  0.00    -0.342 N 
HETATM   13  C8  UNL     1      15.861  34.393  -9.160  1.00  0.00     0.036 A 
ATOM     14  H8  UNL     1      17.673  34.946 -10.025  1.00  0.00     0.167 HD
HETATM   15  C9  UNL     1      15.761  33.324 -10.161  1.00  0.00     0.070 C 
BRANCH  11  16
HETATM   16  N7  UNL     1      18.315  36.899  -8.550  1.00  0.00    -0.383 N 
ATOM     17  H72 UNL     1      19.221  36.626  -8.167  1.00  0.00     0.157 HD
ATOM     18  H71 UNL     1      18.276  37.802  -9.021  1.00  0.00     0.157 HD
ENDBRANCH  11  16
ENDBRANCH   2   6
BRANCH   1  19
HETATM   19  N3  UNL     1      13.914  31.579  -7.576  1.00  0.00    -0.293 N 
ATOM     20  H3  UNL     1      14.605  31.544  -6.825  1.00  0.00     0.187 HD
BRANCH  19  21
HETATM   21  N2  UNL     1      13.844  30.469  -8.347  1.00  0.00    -0.289 N 
ATOM     22  H2  UNL     1      12.983  30.297  -8.866  1.00  0.00     0.188 HD
BRANCH  21  23
HETATM   23  C2  UNL     1      14.910  29.525  -8.472  1.00  0.00     0.085 C 
HETATM   24  C1  UNL     1      15.297  28.630  -7.356  1.00  0.00     0.090 C 
BRANCH  23  25
HETATM   25  N1  UNL     1      15.572  29.427  -9.574  1.00  0.00    -0.388 N 
ATOM     26  H12 UNL     1      16.513  29.032  -9.580  1.00  0.00     0.157 HD
ATOM     27  H11 UNL     1      15.121  29.756 -10.427  1.00  0.00     0.157 HD
ENDBRANCH  23  25
ENDBRANCH  21  23
ENDBRANCH  19  21
ENDBRANCH   1  19
BRANCH   1  28
HETATM   28  C10 UNL     1      11.801  32.466  -7.405  1.00  0.00     0.285 C 
HETATM   29  N9  UNL     1      10.920  32.078  -8.399  1.00  0.00    -0.056 NA
HETATM   30  O1  UNL     1      11.353  32.680  -6.269  1.00  0.00    -0.269 OA
ENDBRANCH   1  28
TORSDOF 8
ENDMDL
MODEL 3
REMARK VINA RESULT: -7.539997380      1.586      2.574
REMARK  8 active torsions:
REMARK  status: ('A' for Active; 'I' for Inactive)
REMARK    1  A    between atoms: C2_2  and  N1_3 
REMARK    2  A    between atoms: C2_2  and  N2_6 
REMARK    3  A    between atoms: N2_6  and  N3_8 
REMARK    4  A    between atoms: N3_8  and  C3_10 
REMARK    5  A    between atoms: C3_10  and  C10_28 
REMARK    6  A    between atoms: C4_11  and  N4_12 
REMARK    7  A    between atoms: C4_11  and  C5_15 
REMARK    8  A    between atoms: C7_20  and  N7_21 
ROOT
HETATM    1  C3  UNL     1      14.591  32.525  -7.972  1.00  0.00     0.142 C 
HETATM    2  C4  UNL     1      14.917  33.690  -8.714  1.00  0.00     0.088 C 
ENDROOT
BRANCH   2   3
HETATM    3  N4  UNL     1      13.822  34.213  -9.365  1.00  0.00    -0.395 N 
ATOM      4  H42 UNL     1      13.139  34.524  -8.675  1.00  0.00     0.156 HD
ATOM      5  H41 UNL     1      13.926  34.180 -10.379  1.00  0.00     0.156 HD
ENDBRANCH   2   3
BRANCH   2   6
HETATM    6  C5  UNL     1      16.058  34.496  -8.995  1.00  0.00     0.085 A 
HETATM    7  N5  UNL     1      16.781  34.121 -10.147  1.00  0.00    -0.338 N 
HETATM    8  C6  UNL     1      17.860  34.756 -10.551  1.00  0.00     0.161 A 
ATOM      9  H5  UNL     1      16.452  33.323 -10.690  1.00  0.00     0.167 HD
HETATM   10  N6  UNL     1      18.530  34.311 -11.727  1.00  0.00    -0.079 NA
HETATM   11  C7  UNL     1      18.363  35.838  -9.875  1.00  0.00     0.141 A 
HETATM   12  N8  UNL     1      17.700  36.213  -8.784  1.00  0.00    -0.342 N 
HETATM   13  C8  UNL     1      16.561  35.551  -8.349  1.00  0.00     0.036 A 
ATOM     14  H8  UNL     1      18.040  37.014  -8.251  1.00  0.00     0.167 HD
HETATM   15  C9  UNL     1      15.978  36.123  -7.128  1.00  0.00     0.070 C 
BRANCH  11  16
HETATM   16  N7  UNL     1      19.410  36.427 -10.296  1.00  0.00    -0.383 N 
ATOM     17  H72 UNL     1      20.163  35.949 -10.791  1.00  0.00     0.157 HD
ATOM     18  H71 UNL     1      19.531  37.428 -10.145  1.00  0.00     0.157 HD
ENDBRANCH  11  16
ENDBRANCH   2   6
BRANCH   1  19
HETATM   19  N3  UNL     1      15.334  31.808  -7.275  1.00  0.00    -0.293 N 
ATOM     20  H3  UNL     1      15.384  32.062  -6.288  1.00  0.00     0.187 HD
BRANCH  19  21
HETATM   21  N2  UNL     1      16.085  30.740  -7.634  1.00  0.00    -0.289 N 
ATOM     22  H2  UNL     1      17.094  30.793  -7.496  1.00  0.00     0.188 HD
BRANCH  21  23
HETATM   23  C2  UNL     1      15.540  29.544  -8.194  1.00  0.00     0.085 C 
HETATM   24  C1  UNL     1      15.105  28.410  -7.343  1.00  0.00     0.090 C 
BRANCH  23  25
HETATM   25  N1  UNL     1      15.412  29.416  -9.470  1.00  0.00    -0.388 N 
ATOM     26  H12 UNL     1      14.529  29.644  -9.928  1.00  0.00     0.157 HD
ATOM     27  H11 UNL     1      16.220  29.083  -9.995  1.00  0.00     0.157 HD
ENDBRANCH  23  25
ENDBRANCH  21  23
ENDBRANCH  19  21
ENDBRANCH   1  19
BRANCH   1  28
HETATM   28  C10 UNL     1      13.172  32.070  -8.011  1.00  0.00     0.285 C 
HETATM   29  N9  UNL     1      12.680  31.246  -9.007  1.00  0.00    -0.056 NA
HETATM   30  O1  UNL     1      12.399  32.443  -7.116  1.00  0.00    -0.269 OA
ENDBRANCH   1  28
TORSDOF 8
ENDMDL
MODEL 4
REMARK VINA RESULT: -7.531545989      1.593      3.089
REMARK  8 active torsions:
REMARK  status: ('A' for Active; 'I' for Inactive)
REMARK    1  A    between atoms: C2_2  and  N1_3 
REMARK    2  A    between atoms: C2_2  and  N2_6 
REMARK    3  A    between atoms: N2_6  and  N3_8 
REMARK    4  A    between atoms: N3_8  and  C3_10 
REMARK    5  A    between atoms: C3_10  and  C10_28 
REMARK    6  A    between atoms: C4_11  and  N4_12 
REMARK    7  A    between atoms: C4_11  and  C5_15 
REMARK    8  A    between atoms: C7_20  and  N7_21 
ROOT
HETATM    1  C3  UNL     1      14.556  33.134  -9.138  1.00  0.00     0.142 C 
HETATM    2  C4  UNL     1      15.879  33.593  -8.903  1.00  0.00     0.088 C 
ENDROOT
BRANCH   2   3
HETATM    3  N4  UNL     1      16.757  32.556  -8.682  1.00  0.00    -0.395 N 
ATOM      4  H42 UNL     1      16.538  31.790  -9.319  1.00  0.00     0.156 HD
ATOM      5  H41 UNL     1      17.425  32.770  -7.942  1.00  0.00     0.156 HD
ENDBRANCH   2   3
BRANCH   2   6
HETATM    6  C5  UNL     1      16.585  34.828  -8.825  1.00  0.00     0.085 A 
HETATM    7  N5  UNL     1      16.298  35.606  -7.685  1.00  0.00    -0.338 N 
HETATM    8  C6  UNL     1      16.860  36.773  -7.455  1.00  0.00     0.161 A 
ATOM      9  H5  UNL     1      15.625  35.247  -7.008  1.00  0.00     0.167 HD
HETATM   10  N6  UNL     1      16.512  37.494  -6.276  1.00  0.00    -0.079 NA
HETATM   11  C7  UNL     1      17.774  37.321  -8.318  1.00  0.00     0.141 A 
HETATM   12  N8  UNL     1      18.065  36.608  -9.403  1.00  0.00    -0.342 N 
HETATM   13  C8  UNL     1      17.478  35.376  -9.654  1.00  0.00     0.036 A 
ATOM     14  H8  UNL     1      18.741  36.979 -10.071  1.00  0.00     0.167 HD
HETATM   15  C9  UNL     1      17.935  34.751 -10.902  1.00  0.00     0.070 C 
BRANCH  11  16
HETATM   16  N7  UNL     1      18.298  38.454  -8.063  1.00  0.00    -0.383 N 
ATOM     17  H72 UNL     1      18.038  39.314  -8.547  1.00  0.00     0.157 HD
ATOM     18  H71 UNL     1      19.017  38.537  -7.345  1.00  0.00     0.157 HD
ENDBRANCH  11  16
ENDBRANCH   2   6
BRANCH   1  19
HETATM   19  N3  UNL     1      13.527  33.797  -9.370  1.00  0.00    -0.293 N 
ATOM     20  H3  UNL     1      13.685  34.711  -9.795  1.00  0.00     0.187 HD
BRANCH  19  21
HETATM   21  N2  UNL     1      12.231  33.484  -9.140  1.00  0.00    -0.289 N 
ATOM     22  H2  UNL     1      11.684  33.098  -9.910  1.00  0.00     0.188 HD
BRANCH  21  23
HETATM   23  C2  UNL     1      11.587  33.664  -7.877  1.00  0.00     0.085 C 
HETATM   24  C1  UNL     1      10.811  34.887  -7.562  1.00  0.00     0.090 C 
BRANCH  23  25
HETATM   25  N1  UNL     1      11.666  32.756  -6.965  1.00  0.00    -0.388 N 
ATOM     26  H12 UNL     1      12.160  32.939  -6.091  1.00  0.00     0.157 HD
ATOM     27  H11 UNL     1      11.218  31.859  -7.152  1.00  0.00     0.157 HD
ENDBRANCH  23  25
ENDBRANCH  21  23
ENDBRANCH  19  21
ENDBRANCH   1  19
BRANCH   1  28
HETATM   28  C10 UNL     1      14.334  31.660  -9.110  1.00  0.00     0.285 C 
HETATM   29  N9  UNL     1      13.975  30.982  -7.959  1.00  0.00    -0.056 NA
HETATM   30  O1  UNL     1      14.477  31.014 -10.158  1.00  0.00    -0.269 OA
ENDBRANCH   1  28
TORSDOF 8
ENDMDL
MODEL 5
REMARK VINA RESULT: -7.504464048      2.513      6.416
REMARK  8 active torsions:
REMARK  status: ('A' for Active; 'I' for Inactive)
REMARK    1  A    between atoms: C2_2  and  N1_3 
REMARK    2  A    between atoms: C2_2  and  N2_6 
REMARK    3  A    between atoms: N2_6  and  N3_8 
REMARK    4  A    between atoms: N3_8  and  C3_10 
REMARK    5  A    between atoms: C3_10  and  C10_28 
REMARK    6  A    between atoms: C4_11  and  N4_12 
REMARK    7  A    between atoms: C4_11  and  C5_15 
REMARK    8  A    between atoms: C7_20  and  N7_21 
ROOT
HETATM    1  C3  UNL     1      16.658  35.543  -8.477  1.00  0.00     0.142 C 
HETATM    2  C4  UNL     1      15.912  34.671  -9.312  1.00  0.00     0.088 C 
ENDROOT
BRANCH   2   3
HETATM    3  N4  UNL     1      16.321  34.735 -10.625  1.00  0.00    -0.395 N 
ATOM      4  H42 UNL     1      17.005  35.485 -10.727  1.00  0.00     0.156 HD
ATOM      5  H41 UNL     1      15.862  34.033 -11.205  1.00  0.00     0.156 HD
ENDBRANCH   2   3
BRANCH   2   6
HETATM    6  C5  UNL     1      14.846  33.733  -9.199  1.00  0.00     0.085 A 
HETATM    7  N5  UNL     1      13.590  34.294  -8.889  1.00  0.00    -0.338 N 
HETATM    8  C6  UNL     1      12.500  33.572  -8.748  1.00  0.00     0.161 A 
ATOM      9  H5  UNL     1      13.525  35.304  -8.769  1.00  0.00     0.167 HD
HETATM   10  N6  UNL     1      11.270  34.220  -8.433  1.00  0.00    -0.079 NA
HETATM   11  C7  UNL     1      12.507  32.208  -8.894  1.00  0.00     0.141 A 
HETATM   12  N8  UNL     1      13.679  31.652  -9.188  1.00  0.00    -0.342 N 
HETATM   13  C8  UNL     1      14.836  32.404  -9.339  1.00  0.00     0.036 A 
ATOM     14  H8  UNL     1      13.730  30.640  -9.305  1.00  0.00     0.167 HD
HETATM   15  C9  UNL     1      16.021  31.601  -9.664  1.00  0.00     0.070 C 
BRANCH  11  16
HETATM   16  N7  UNL     1      11.432  31.541  -8.749  1.00  0.00    -0.383 N 
ATOM     17  H72 UNL     1      11.398  30.522  -8.763  1.00  0.00     0.157 HD
ATOM     18  H71 UNL     1      10.544  32.022  -8.611  1.00  0.00     0.157 HD
ENDBRANCH  11  16
ENDBRANCH   2   6
BRANCH   1  19
HETATM   19  N3  UNL     1      16.550  35.734  -7.250  1.00  0.00    -0.293 N 
ATOM     20  H3  UNL     1      16.410  34.893  -6.690  1.00  0.00     0.187 HD
BRANCH  19  21
HETATM   21  N2  UNL     1      16.593  36.892  -6.552  1.00  0.00    -0.289 N 
ATOM     22  H2  UNL     1      15.819  37.548  -6.658  1.00  0.00     0.188 HD
BRANCH  21  23
HETATM   23  C2  UNL     1      17.663  37.246  -5.673  1.00  0.00     0.085 C 
HETATM   24  C1  UNL     1      17.615  38.467  -4.833  1.00  0.00     0.090 C 
BRANCH  23  25
HETATM   25  N1  UNL     1      18.712  36.503  -5.585  1.00  0.00    -0.388 N 
ATOM     26  H12 UNL     1      18.817  35.681  -6.181  1.00  0.00     0.157 HD
ATOM     27  H11 UNL     1      19.424  36.768  -4.905  1.00  0.00     0.157 HD
ENDBRANCH  23  25
ENDBRANCH  21  23
ENDBRANCH  19  21
ENDBRANCH   1  19
BRANCH   1  28
HETATM   28  C10 UNL     1      17.724  36.358  -9.125  1.00  0.00     0.285 C 
HETATM   29  N9  UNL     1      18.899  35.805  -9.601  1.00  0.00    -0.056 NA
HETATM   30  O1  UNL     1      17.555  37.580  -9.244  1.00  0.00    -0.269 OA
ENDBRANCH   1  28
TORSDOF 8
ENDMDL
