MODEL 1
REMARK VINA RESULT: -8.743317274      0.000      0.000
REMARK  6 active torsions:
REMARK  status: ('A' for Active; 'I' for Inactive)
REMARK    1  A    between atoms: N1_1  and  C1_4 
REMARK    2  A    between atoms: C2_7  and  N3_8 
REMARK    3  A    between atoms: N4_10  and  N5_12 
REMARK    4  A    between atoms: N5_12  and  C3_14 
REMARK    5  A    between atoms: C7_24  and  N8_25 
REMARK    6  A    between atoms: C8_28  and  N9_29 
ROOT
HETATM    1  C1  UNL     1      18.111  38.365  -6.728  1.00  0.00     0.679 A 
HETATM    2  N2  UNL     1      17.096  37.467  -6.721  1.00  0.00    -0.173 N 
ATOM      3  H2  UNL     1      16.420  37.484  -5.957  1.00  0.00     0.186 HD
HETATM    4  C2  UNL     1      16.961  36.559  -7.693  1.00  0.00     0.173 A 
HETATM    5  C7  UNL     1      17.875  36.550  -8.710  1.00  0.00     0.192 A 
HETATM    6  C8  UNL     1      18.936  37.459  -8.755  1.00  0.00     0.152 A 
HETATM    7  N10 UNL     1      19.007  38.341  -7.743  1.00  0.00    -0.175 N 
ATOM      8  H10 UNL     1      19.768  39.020  -7.739  1.00  0.00     0.186 HD
ENDROOT
BRANCH   4   9
HETATM    9  N3  UNL     1      15.909  35.627  -7.681  1.00  0.00    -0.269 N 
HETATM   10  N4  UNL     1      15.967  34.505  -7.093  1.00  0.00    -0.244 N 
ATOM     11  H4  UNL     1      16.817  34.245  -6.594  1.00  0.00     0.208 HD
ATOM     12  H3  UNL     1      15.049  35.867  -8.174  1.00  0.00     0.190 HD
BRANCH  10  13
HETATM   13  N5  UNL     1      14.885  33.618  -7.117  1.00  0.00    -0.290 N 
ATOM     14  H5  UNL     1      13.998  33.934  -6.726  1.00  0.00     0.184 HD
BRANCH  13  15
HETATM   15  C3  UNL     1      14.947  32.289  -7.658  1.00  0.00     0.325 C 
HETATM   16  C4  UNL     1      13.698  31.989  -8.476  1.00  0.00     0.287 C 
HETATM   17  N6  UNL     1      13.742  30.656  -8.990  1.00  0.00    -0.070 N 
HETATM   18  C5  UNL     1      15.054  30.068  -8.985  1.00  0.00     0.260 C 
ATOM     19  H62 UNL     1      13.082  30.060  -8.492  1.00  0.00     0.277 HD
ATOM     20  H61 UNL     1      13.338  30.620  -9.925  1.00  0.00     0.277 HD
HETATM   21  C6  UNL     1      16.017  31.147  -9.491  1.00  0.00     0.262 C 
HETATM   22  N7  UNL     1      16.149  32.134  -8.453  1.00  0.00    -0.050 N 
ATOM     23  H72 UNL     1      16.446  33.030  -8.840  1.00  0.00     0.279 HD
ATOM     24  H71 UNL     1      16.954  31.932  -7.860  1.00  0.00     0.279 HD
ENDBRANCH  13  15
ENDBRANCH  10  13
ENDBRANCH   4   9
BRANCH   5  25
HETATM   25  N8  UNL     1      17.759  35.611  -9.742  1.00  0.00    -0.108 N 
HETATM   26  O1  UNL     1      17.820  34.402  -9.485  1.00  0.00    -0.531 OA
HETATM   27  O2  UNL     1      17.579  35.995 -11.038  1.00  0.00    -0.531 OA
ENDBRANCH   5  25
BRANCH   1  28
HETATM   28  N1  UNL     1      18.241  39.240  -5.791  1.00  0.00    -0.234 N 
ATOM     29  H12 UNL     1      17.726  39.118  -4.919  1.00  0.00     0.174 HD
ATOM     30  H11 UNL     1      18.847  40.052  -5.902  1.00  0.00     0.174 HD
ENDBRANCH   1  28
BRANCH   6  31
HETATM   31  N9  UNL     1      19.803  37.456  -9.711  1.00  0.00    -0.383 N 
ATOM     32  H92 UNL     1      20.176  36.587 -10.092  1.00  0.00     0.157 HD
ATOM     33  H91 UNL     1      20.154  38.319 -10.128  1.00  0.00     0.157 HD
ENDBRANCH   6  31
TORSDOF 6
ENDMDL
MODEL 2
REMARK VINA RESULT: -8.326223288      0.856      1.158
REMARK  6 active torsions:
REMARK  status: ('A' for Active; 'I' for Inactive)
REMARK    1  A    between atoms: N1_1  and  C1_4 
REMARK    2  A    between atoms: C2_7  and  N3_8 
REMARK    3  A    between atoms: N4_10  and  N5_12 
REMARK    4  A    between atoms: N5_12  and  C3_14 
REMARK    5  A    between atoms: C7_24  and  N8_25 
REMARK    6  A    between atoms: C8_28  and  N9_29 
ROOT
HETATM    1  C1  UNL     1      18.141  38.463  -6.668  1.00  0.00     0.679 A 
HETATM    2  N2  UNL     1      17.095  37.601  -6.628  1.00  0.00    -0.173 N 
ATOM      3  H2  UNL     1      16.432  37.657  -5.856  1.00  0.00     0.186 HD
HETATM    4  C2  UNL     1      16.914  36.679  -7.580  1.00  0.00     0.173 A 
HETATM    5  C7  UNL     1      17.813  36.617  -8.609  1.00  0.00     0.192 A 
HETATM    6  C8  UNL     1      18.905  37.487  -8.687  1.00  0.00     0.152 A 
HETATM    7  N10 UNL     1      19.021  38.387  -7.694  1.00  0.00    -0.175 N 
ATOM      8  H10 UNL     1      19.805  39.039  -7.715  1.00  0.00     0.186 HD
ENDROOT
BRANCH   4   9
HETATM    9  N3  UNL     1      15.831  35.786  -7.534  1.00  0.00    -0.269 N 
HETATM   10  N4  UNL     1      15.037  35.590  -8.503  1.00  0.00    -0.244 N 
ATOM     11  H4  UNL     1      15.175  36.102  -9.374  1.00  0.00     0.208 HD
ATOM     12  H3  UNL     1      15.675  35.264  -6.672  1.00  0.00     0.190 HD
BRANCH  10  13
HETATM   13  N5  UNL     1      13.974  34.685  -8.398  1.00  0.00    -0.290 N 
ATOM     14  H5  UNL     1      13.031  35.062  -8.312  1.00  0.00     0.184 HD
BRANCH  13  15
HETATM   15  C3  UNL     1      14.131  33.257  -8.404  1.00  0.00     0.325 C 
HETATM   16  C4  UNL     1      12.813  32.580  -8.755  1.00  0.00     0.287 C 
HETATM   17  N6  UNL     1      12.958  31.158  -8.731  1.00  0.00    -0.070 N 
HETATM   18  C5  UNL     1      14.320  30.705  -8.797  1.00  0.00     0.260 C 
ATOM     19  H62 UNL     1      12.490  30.765  -7.914  1.00  0.00     0.277 HD
ATOM     20  H61 UNL     1      12.402  30.730  -9.472  1.00  0.00     0.277 HD
HETATM   21  C6  UNL     1      15.010  31.556  -9.868  1.00  0.00     0.262 C 
HETATM   22  N7  UNL     1      15.181  32.879  -9.329  1.00  0.00    -0.050 N 
ATOM     23  H72 UNL     1      15.272  33.567 -10.077  1.00  0.00     0.279 HD
ATOM     24  H71 UNL     1      16.099  32.979  -8.897  1.00  0.00     0.279 HD
ENDBRANCH  13  15
ENDBRANCH  10  13
ENDBRANCH   4   9
BRANCH   5  25
HETATM   25  N8  UNL     1      17.650  35.663  -9.619  1.00  0.00    -0.108 N 
HETATM   26  O1  UNL     1      17.440  36.026 -10.783  1.00  0.00    -0.531 OA
HETATM   27  O2  UNL     1      17.716  34.326  -9.354  1.00  0.00    -0.531 OA
ENDBRANCH   5  25
BRANCH   1  28
HETATM   28  N1  UNL     1      18.315  39.351  -5.750  1.00  0.00    -0.234 N 
ATOM     29  H12 UNL     1      19.096  39.255  -5.103  1.00  0.00     0.174 HD
ATOM     30  H11 UNL     1      17.686  40.148  -5.657  1.00  0.00     0.174 HD
ENDBRANCH   1  28
BRANCH   6  31
HETATM   31  N9  UNL     1      19.757  37.435  -9.655  1.00  0.00    -0.383 N 
ATOM     32  H92 UNL     1      20.212  36.562  -9.919  1.00  0.00     0.157 HD
ATOM     33  H91 UNL     1      20.014  38.260 -10.197  1.00  0.00     0.157 HD
ENDBRANCH   6  31
TORSDOF 6
ENDMDL
MODEL 3
REMARK VINA RESULT: -8.210122010      3.899      5.380
REMARK  6 active torsions:
REMARK  status: ('A' for Active; 'I' for Inactive)
REMARK    1  A    between atoms: N1_1  and  C1_4 
REMARK    2  A    between atoms: C2_7  and  N3_8 
REMARK    3  A    between atoms: N4_10  and  N5_12 
REMARK    4  A    between atoms: N5_12  and  C3_14 
REMARK    5  A    between atoms: C7_24  and  N8_25 
REMARK    6  A    between atoms: C8_28  and  N9_29 
ROOT
HETATM    1  C1  UNL     1      18.640  37.971  -8.164  1.00  0.00     0.679 A 
HETATM    2  N2  UNL     1      19.173  37.355  -9.248  1.00  0.00    -0.173 N 
ATOM      3  H2  UNL     1      20.005  37.750  -9.687  1.00  0.00     0.186 HD
HETATM    4  C2  UNL     1      18.632  36.243  -9.755  1.00  0.00     0.173 A 
HETATM    5  C7  UNL     1      17.516  35.727  -9.154  1.00  0.00     0.192 A 
HETATM    6  C8  UNL     1      16.935  36.331  -8.035  1.00  0.00     0.152 A 
HETATM    7  N10 UNL     1      17.535  37.447  -7.583  1.00  0.00    -0.175 N 
ATOM      8  H10 UNL     1      17.141  37.918  -6.768  1.00  0.00     0.186 HD
ENDROOT
BRANCH   4   9
HETATM    9  N3  UNL     1      19.184  35.608 -10.879  1.00  0.00    -0.269 N 
HETATM   10  N4  UNL     1      18.711  35.711 -12.051  1.00  0.00    -0.244 N 
ATOM     11  H4  UNL     1      17.881  36.283 -12.207  1.00  0.00     0.208 HD
ATOM     12  H3  UNL     1      20.014  35.031 -10.746  1.00  0.00     0.190 HD
BRANCH  10  13
HETATM   13  N5  UNL     1      19.307  35.055 -13.134  1.00  0.00    -0.290 N 
ATOM     14  H5  UNL     1      20.325  35.027 -13.176  1.00  0.00     0.184 HD
BRANCH  13  15
HETATM   15  C3  UNL     1      18.571  34.417 -14.191  1.00  0.00     0.325 C 
HETATM   16  C4  UNL     1      18.066  35.454 -15.186  1.00  0.00     0.287 C 
HETATM   17  N6  UNL     1      17.306  34.826 -16.222  1.00  0.00    -0.070 N 
HETATM   18  C5  UNL     1      17.524  33.410 -16.334  1.00  0.00     0.260 C 
ATOM     19  H62 UNL     1      16.313  35.027 -16.108  1.00  0.00     0.277 HD
ATOM     20  H61 UNL     1      17.475  35.286 -17.116  1.00  0.00     0.277 HD
HETATM   21  C6  UNL     1      19.036  33.191 -16.213  1.00  0.00     0.262 C 
HETATM   22  N7  UNL     1      19.401  33.422 -14.841  1.00  0.00    -0.050 N 
ATOM     23  H72 UNL     1      20.388  33.666 -14.763  1.00  0.00     0.279 HD
ATOM     24  H71 UNL     1      19.402  32.549 -14.313  1.00  0.00     0.279 HD
ENDBRANCH  13  15
ENDBRANCH  10  13
ENDBRANCH   4   9
BRANCH   5  25
HETATM   25  N8  UNL     1      16.927  34.564  -9.662  1.00  0.00    -0.108 N 
HETATM   26  O1  UNL     1      16.977  33.512  -9.012  1.00  0.00    -0.531 OA
HETATM   27  O2  UNL     1      16.292  34.554 -10.869  1.00  0.00    -0.531 OA
ENDBRANCH   5  25
BRANCH   1  28
HETATM   28  N1  UNL     1      19.162  39.044  -7.677  1.00  0.00    -0.234 N 
ATOM     29  H12 UNL     1      20.119  39.293  -7.927  1.00  0.00     0.174 HD
ATOM     30  H11 UNL     1      18.639  39.649  -7.045  1.00  0.00     0.174 HD
ENDBRANCH   1  28
BRANCH   6  31
HETATM   31  N9  UNL     1      15.883  35.851  -7.463  1.00  0.00    -0.383 N 
ATOM     32  H92 UNL     1      14.956  36.236  -7.641  1.00  0.00     0.157 HD
ATOM     33  H91 UNL     1      15.929  35.068  -6.810  1.00  0.00     0.157 HD
ENDBRANCH   6  31
TORSDOF 6
ENDMDL
MODEL 4
REMARK VINA RESULT: -8.125232356      1.899      6.841
REMARK  6 active torsions:
REMARK  status: ('A' for Active; 'I' for Inactive)
REMARK    1  A    between atoms: N1_1  and  C1_4 
REMARK    2  A    between atoms: C2_7  and  N3_8 
REMARK    3  A    between atoms: N4_10  and  N5_12 
REMARK    4  A    between atoms: N5_12  and  C3_14 
REMARK    5  A    between atoms: C7_24  and  N8_25 
REMARK    6  A    between atoms: C8_28  and  N9_29 
ROOT
HETATM    1  C1  UNL     1      12.197  32.979  -8.925  1.00  0.00     0.679 A 
HETATM    2  N2  UNL     1      13.218  33.871  -8.944  1.00  0.00    -0.173 N 
ATOM      3  H2  UNL     1      13.010  34.868  -8.901  1.00  0.00     0.186 HD
HETATM    4  C2  UNL     1      14.492  33.471  -9.017  1.00  0.00     0.173 A 
HETATM    5  C7  UNL     1      14.754  32.130  -9.073  1.00  0.00     0.192 A 
HETATM    6  C8  UNL     1      13.730  31.178  -9.056  1.00  0.00     0.152 A 
HETATM    7  N10 UNL     1      12.475  31.656  -8.982  1.00  0.00    -0.175 N 
ATOM      8  H10 UNL     1      11.700  30.992  -8.968  1.00  0.00     0.186 HD
ENDROOT
BRANCH   4   9
HETATM    9  N3  UNL     1      15.548  34.397  -9.039  1.00  0.00    -0.269 N 
HETATM   10  N4  UNL     1      15.679  35.339  -8.200  1.00  0.00    -0.244 N 
ATOM     11  H4  UNL     1      14.987  35.448  -7.459  1.00  0.00     0.208 HD
ATOM     12  H3  UNL     1      16.251  34.307  -9.772  1.00  0.00     0.190 HD
BRANCH  10  13
HETATM   13  N5  UNL     1      16.754  36.232  -8.274  1.00  0.00    -0.290 N 
ATOM     14  H5  UNL     1      17.414  36.124  -9.043  1.00  0.00     0.184 HD
BRANCH  13  15
HETATM   15  C3  UNL     1      16.985  37.291  -7.332  1.00  0.00     0.325 C 
HETATM   16  C4  UNL     1      17.764  36.773  -6.130  1.00  0.00     0.287 C 
HETATM   17  N6  UNL     1      17.967  37.818  -5.176  1.00  0.00    -0.070 N 
HETATM   18  C5  UNL     1      17.782  39.141  -5.705  1.00  0.00     0.260 C 
ATOM     19  H62 UNL     1      17.376  37.674  -4.357  1.00  0.00     0.277 HD
ATOM     20  H61 UNL     1      18.886  37.731  -4.742  1.00  0.00     0.277 HD
HETATM   21  C6  UNL     1      18.478  39.165  -7.070  1.00  0.00     0.262 C 
HETATM   22  N7  UNL     1      17.679  38.386  -7.979  1.00  0.00    -0.050 N 
ATOM     23  H72 UNL     1      18.243  38.048  -8.759  1.00  0.00     0.279 HD
ATOM     24  H71 UNL     1      17.026  38.980  -8.489  1.00  0.00     0.279 HD
ENDBRANCH  13  15
ENDBRANCH  10  13
ENDBRANCH   4   9
BRANCH   5  25
HETATM   25  N8  UNL     1      16.077  31.682  -9.150  1.00  0.00    -0.108 N 
HETATM   26  O1  UNL     1      16.514  30.898  -8.298  1.00  0.00    -0.531 OA
HETATM   27  O2  UNL     1      16.910  32.088 -10.151  1.00  0.00    -0.531 OA
ENDBRANCH   5  25
BRANCH   1  28
HETATM   28  N1  UNL     1      10.970  33.366  -8.855  1.00  0.00    -0.234 N 
ATOM     29  H12 UNL     1      10.734  34.330  -9.087  1.00  0.00     0.174 HD
ATOM     30  H11 UNL     1      10.227  32.727  -8.571  1.00  0.00     0.174 HD
ENDBRANCH   1  28
BRANCH   6  31
HETATM   31  N9  UNL     1      13.969  29.911  -9.109  1.00  0.00    -0.383 N 
ATOM     32  H92 UNL     1      14.805  29.507  -8.689  1.00  0.00     0.157 HD
ATOM     33  H91 UNL     1      13.336  29.258  -9.571  1.00  0.00     0.157 HD
ENDBRANCH   6  31
TORSDOF 6
ENDMDL
MODEL 5
REMARK VINA RESULT: -7.969653663      1.721      2.795
REMARK  6 active torsions:
REMARK  status: ('A' for Active; 'I' for Inactive)
REMARK    1  A    between atoms: N1_1  and  C1_4 
REMARK    2  A    between atoms: C2_7  and  N3_8 
REMARK    3  A    between atoms: N4_10  and  N5_12 
REMARK    4  A    between atoms: N5_12  and  C3_14 
REMARK    5  A    between atoms: C7_24  and  N8_25 
REMARK    6  A    between atoms: C8_28  and  N9_29 
ROOT
HETATM    1  C1  UNL     1      19.369  36.208 -10.059  1.00  0.00     0.679 A 
HETATM    2  N2  UNL     1      18.238  35.547  -9.711  1.00  0.00    -0.173 N 
ATOM      3  H2  UNL     1      17.996  34.683 -10.197  1.00  0.00     0.186 HD
HETATM    4  C2  UNL     1      17.433  36.002  -8.746  1.00  0.00     0.173 A 
HETATM    5  C7  UNL     1      17.772  37.161  -8.104  1.00  0.00     0.192 A 
HETATM    6  C8  UNL     1      18.929  37.873  -8.433  1.00  0.00     0.152 A 
HETATM    7  N10 UNL     1      19.688  37.355  -9.414  1.00  0.00    -0.175 N 
ATOM      8  H10 UNL     1      20.541  37.846  -9.684  1.00  0.00     0.186 HD
ENDROOT
BRANCH   4   9
HETATM    9  N3  UNL     1      16.260  35.316  -8.389  1.00  0.00    -0.269 N 
HETATM   10  N4  UNL     1      16.230  34.343  -7.576  1.00  0.00    -0.244 N 
ATOM     11  H4  UNL     1      17.099  34.024  -7.146  1.00  0.00     0.208 HD
ATOM     12  H3  UNL     1      15.381  35.618  -8.808  1.00  0.00     0.190 HD
BRANCH  10  13
HETATM   13  N5  UNL     1      15.029  33.698  -7.259  1.00  0.00    -0.290 N 
ATOM     14  H5  UNL     1      14.310  34.236  -6.777  1.00  0.00     0.184 HD
BRANCH  13  15
HETATM   15  C3  UNL     1      14.747  32.325  -7.573  1.00  0.00     0.325 C 
HETATM   16  C4  UNL     1      13.737  32.237  -8.710  1.00  0.00     0.287 C 
HETATM   17  N6  UNL     1      13.430  30.873  -9.003  1.00  0.00    -0.070 N 
HETATM   18  C5  UNL     1      14.389  29.932  -8.492  1.00  0.00     0.260 C 
ATOM     19  H62 UNL     1      12.492  30.640  -8.677  1.00  0.00     0.277 HD
ATOM     20  H61 UNL     1      13.301  30.743 -10.007  1.00  0.00     0.277 HD
HETATM   21  C6  UNL     1      15.773  30.516  -8.790  1.00  0.00     0.262 C 
HETATM   22  N7  UNL     1      15.975  31.631  -7.903  1.00  0.00    -0.050 N 
ATOM     23  H72 UNL     1      16.667  32.277  -8.283  1.00  0.00     0.279 HD
ATOM     24  H71 UNL     1      16.465  31.338  -7.058  1.00  0.00     0.279 HD
ENDBRANCH  13  15
ENDBRANCH  10  13
ENDBRANCH   4   9
BRANCH   5  25
HETATM   25  N8  UNL     1      16.949  37.661  -7.089  1.00  0.00    -0.108 N 
HETATM   26  O1  UNL     1      16.466  38.796  -7.190  1.00  0.00    -0.531 OA
HETATM   27  O2  UNL     1      16.660  36.925  -5.978  1.00  0.00    -0.531 OA
ENDBRANCH   5  25
BRANCH   1  28
HETATM   28  N1  UNL     1      20.144  35.769 -10.991  1.00  0.00    -0.234 N 
ATOM     29  H12 UNL     1      19.821  35.016 -11.597  1.00  0.00     0.174 HD
ATOM     30  H11 UNL     1      21.075  36.159 -11.134  1.00  0.00     0.174 HD
ENDBRANCH   1  28
BRANCH   6  31
HETATM   31  N9  UNL     1      19.256  38.968  -7.832  1.00  0.00    -0.383 N 
ATOM     32  H92 UNL     1      19.271  39.035  -6.815  1.00  0.00     0.157 HD
ATOM     33  H91 UNL     1      19.513  39.812  -8.344  1.00  0.00     0.157 HD
ENDBRANCH   6  31
TORSDOF 6
ENDMDL
