MODEL 1
REMARK VINA RESULT: -8.781685800      0.000      0.000
REMARK  10 active torsions:
REMARK  status: ('A' for Active; 'I' for Inactive)
REMARK    1  A    between atoms: C2_2  and  O1_5 
REMARK    2  A    between atoms: O1_5  and  C5_6 
REMARK    3  A    between atoms: C5_6  and  C6_8 
REMARK    4  A    between atoms: C9_11  and  C10_12 
REMARK    5  A    between atoms: C10_12  and  N1_13 
REMARK    6  A    between atoms: N1_13  and  C11_14 
REMARK    7  A    between atoms: N1_13  and  C21_26 
REMARK    8  A    between atoms: C11_14  and  O3_15 
REMARK    9  A    between atoms: C11_14  and  C12_17 
REMARK   10  A    between atoms: C24_29  and  O4_30 
ROOT
HETATM    1  N1  UNL     1      19.701  13.091  31.609  1.00  0.00    -0.360 N 
ENDROOT
BRANCH   1   2
HETATM    2  C10 UNL     1      19.948  14.273  30.845  1.00  0.00     0.129 C 
BRANCH   2   3
HETATM    3  C9  UNL     1      21.278  14.894  30.935  1.00  0.00     0.004 C 
HETATM    4  C8  UNL     1      22.018  14.520  29.623  1.00  0.00     0.007 C 
HETATM    5  C7  UNL     1      23.051  15.591  29.407  1.00  0.00     0.015 C 
HETATM    6  C6  UNL     1      23.732  15.891  30.711  1.00  0.00     0.085 C 
HETATM    7  C28 UNL     1      22.787  16.756  31.526  1.00  0.00     0.015 C 
HETATM    8  C27 UNL     1      21.341  16.348  31.176  1.00  0.00     0.007 C 
BRANCH   6   9
HETATM    9  C5  UNL     1      25.020  16.593  30.461  1.00  0.00     0.263 C 
HETATM   10  O2  UNL     1      25.043  17.860  30.424  1.00  0.00    -0.265 OA
BRANCH   9  11
HETATM   11  O1  UNL     1      26.210  15.940  30.265  1.00  0.00    -0.311 OA
BRANCH  11  12
HETATM   12  C2  UNL     1      26.933  15.250  31.249  1.00  0.00     0.060 C 
HETATM   13  C1  UNL     1      28.373  15.102  30.741  1.00  0.00     0.045 C 
HETATM   14  C3  UNL     1      27.013  15.982  32.557  1.00  0.00     0.045 C 
HETATM   15  C4  UNL     1      26.416  13.851  31.484  1.00  0.00     0.045 C 
ENDBRANCH  11  12
ENDBRANCH   9  11
ENDBRANCH   6   9
ENDBRANCH   2   3
ENDBRANCH   1   2
BRANCH   1  16
HETATM   16  C11 UNL     1      20.585  12.521  32.518  1.00  0.00     0.122 C 
BRANCH  16  17
HETATM   17  O3  UNL     1      20.524  13.108  33.720  1.00  0.00    -0.349 OA
ATOM     18  H3  UNL     1      20.203  12.518  34.393  1.00  0.00     0.219 HD
ENDBRANCH  16  17
BRANCH  16  19
HETATM   19  C12 UNL     1      21.574  11.458  32.531  1.00  0.00     0.026 C 
HETATM   20  C13 UNL     1      21.497  10.432  31.460  1.00  0.00     0.022 C 
HETATM   21  C14 UNL     1      22.694   9.499  31.480  1.00  0.00    -0.013 C 
HETATM   22  C15 UNL     1      23.999  10.253  31.392  1.00  0.00     0.010 C 
HETATM   23  C19 UNL     1      22.823   8.905  32.893  1.00  0.00     0.010 C 
HETATM   24  C16 UNL     1      23.897  11.039  32.711  1.00  0.00    -0.009 C 
HETATM   25  C17 UNL     1      22.987  12.183  32.397  1.00  0.00     0.023 C 
HETATM   26  C18 UNL     1      23.156  10.162  33.670  1.00  0.00    -0.009 C 
HETATM   27  C20 UNL     1      21.815  10.876  33.899  1.00  0.00     0.023 C 
ENDBRANCH  16  19
ENDBRANCH   1  16
BRANCH   1  28
HETATM   28  C21 UNL     1      18.375  12.456  31.468  1.00  0.00     0.086 C 
HETATM   29  C22 UNL     1      17.419  13.254  30.646  1.00  0.00     0.028 C 
HETATM   30  C23 UNL     1      16.208  12.358  30.328  1.00  0.00     0.034 C 
HETATM   31  C24 UNL     1      15.600  11.856  31.620  1.00  0.00     0.118 C 
HETATM   32  C25 UNL     1      16.580  11.276  32.579  1.00  0.00     0.034 C 
HETATM   33  C26 UNL     1      17.724  12.274  32.826  1.00  0.00     0.028 C 
BRANCH  31  34
HETATM   34  O4  UNL     1      14.634  10.925  31.302  1.00  0.00    -0.396 OA
ATOM     35  H4  UNL     1      13.798  11.252  31.613  1.00  0.00     0.210 HD
ENDBRANCH  31  34
ENDBRANCH   1  28
TORSDOF 10
ENDMDL
MODEL 2
REMARK VINA RESULT: -8.718988833      2.409      3.589
REMARK  10 active torsions:
REMARK  status: ('A' for Active; 'I' for Inactive)
REMARK    1  A    between atoms: C2_2  and  O1_5 
REMARK    2  A    between atoms: O1_5  and  C5_6 
REMARK    3  A    between atoms: C5_6  and  C6_8 
REMARK    4  A    between atoms: C9_11  and  C10_12 
REMARK    5  A    between atoms: C10_12  and  N1_13 
REMARK    6  A    between atoms: N1_13  and  C11_14 
REMARK    7  A    between atoms: N1_13  and  C21_26 
REMARK    8  A    between atoms: C11_14  and  O3_15 
REMARK    9  A    between atoms: C11_14  and  C12_17 
REMARK   10  A    between atoms: C24_29  and  O4_30 
ROOT
HETATM    1  N1  UNL     1      20.583  15.062  30.716  1.00  0.00    -0.360 N 
ENDROOT
BRANCH   1   2
HETATM    2  C10 UNL     1      21.593  16.038  30.976  1.00  0.00     0.129 C 
BRANCH   2   3
HETATM    3  C9  UNL     1      22.989  15.588  31.071  1.00  0.00     0.004 C 
HETATM    4  C8  UNL     1      23.525  15.533  29.615  1.00  0.00     0.007 C 
HETATM    5  C7  UNL     1      25.017  15.695  29.713  1.00  0.00     0.015 C 
HETATM    6  C6  UNL     1      25.532  14.849  30.841  1.00  0.00     0.085 C 
HETATM    7  C28 UNL     1      25.216  15.578  32.135  1.00  0.00     0.015 C 
HETATM    8  C27 UNL     1      23.901  16.360  31.936  1.00  0.00     0.007 C 
BRANCH   6   9
HETATM    9  C5  UNL     1      26.997  14.638  30.688  1.00  0.00     0.263 C 
HETATM   10  O2  UNL     1      27.803  15.522  31.111  1.00  0.00    -0.265 OA
BRANCH   9  11
HETATM   11  O1  UNL     1      27.543  13.522  30.107  1.00  0.00    -0.311 OA
BRANCH  11  12
HETATM   12  C2  UNL     1      27.515  12.227  30.644  1.00  0.00     0.060 C 
HETATM   13  C1  UNL     1      28.938  11.892  31.111  1.00  0.00     0.045 C 
HETATM   14  C3  UNL     1      26.628  12.096  31.848  1.00  0.00     0.045 C 
HETATM   15  C4  UNL     1      27.141  11.177  29.625  1.00  0.00     0.045 C 
ENDBRANCH  11  12
ENDBRANCH   9  11
ENDBRANCH   6   9
ENDBRANCH   2   3
ENDBRANCH   1   2
BRANCH   1  16
HETATM   16  C11 UNL     1      20.562  13.771  31.232  1.00  0.00     0.122 C 
BRANCH  16  17
HETATM   17  O3  UNL     1      19.520  13.568  32.049  1.00  0.00    -0.349 OA
ATOM     18  H3  UNL     1      19.783  13.191  32.881  1.00  0.00     0.219 HD
ENDBRANCH  16  17
BRANCH  16  19
HETATM   19  C12 UNL     1      21.365  12.564  31.138  1.00  0.00     0.026 C 
HETATM   20  C13 UNL     1      22.449  12.379  32.136  1.00  0.00     0.022 C 
HETATM   21  C14 UNL     1      23.077  11.000  32.043  1.00  0.00    -0.013 C 
HETATM   22  C15 UNL     1      22.049   9.901  32.173  1.00  0.00     0.010 C 
HETATM   23  C19 UNL     1      23.531  10.770  30.591  1.00  0.00     0.010 C 
HETATM   24  C16 UNL     1      21.224  10.212  30.912  1.00  0.00    -0.009 C 
HETATM   25  C17 UNL     1      20.343  11.353  31.312  1.00  0.00     0.023 C 
HETATM   26  C18 UNL     1      22.183  10.753  29.900  1.00  0.00    -0.009 C 
HETATM   27  C20 UNL     1      21.785  12.228  29.731  1.00  0.00     0.023 C 
ENDBRANCH  16  19
ENDBRANCH   1  16
BRANCH   1  28
HETATM   28  C21 UNL     1      19.437  15.474  29.881  1.00  0.00     0.086 C 
HETATM   29  C22 UNL     1      19.364  14.754  28.576  1.00  0.00     0.028 C 
HETATM   30  C23 UNL     1      17.988  15.047  27.952  1.00  0.00     0.034 C 
HETATM   31  C24 UNL     1      17.806  16.544  27.812  1.00  0.00     0.118 C 
HETATM   32  C25 UNL     1      18.120  17.321  29.043  1.00  0.00     0.034 C 
HETATM   33  C26 UNL     1      19.524  16.952  29.551  1.00  0.00     0.028 C 
BRANCH  31  34
HETATM   34  O4  UNL     1      16.507  16.780  27.416  1.00  0.00    -0.396 OA
ATOM     35  H4  UNL     1      16.531  17.327  26.640  1.00  0.00     0.210 HD
ENDBRANCH  31  34
ENDBRANCH   1  28
TORSDOF 10
ENDMDL
MODEL 3
REMARK VINA RESULT: -8.686603406      2.623      3.644
REMARK  10 active torsions:
REMARK  status: ('A' for Active; 'I' for Inactive)
REMARK    1  A    between atoms: C2_2  and  O1_5 
REMARK    2  A    between atoms: O1_5  and  C5_6 
REMARK    3  A    between atoms: C5_6  and  C6_8 
REMARK    4  A    between atoms: C9_11  and  C10_12 
REMARK    5  A    between atoms: C10_12  and  N1_13 
REMARK    6  A    between atoms: N1_13  and  C11_14 
REMARK    7  A    between atoms: N1_13  and  C21_26 
REMARK    8  A    between atoms: C11_14  and  O3_15 
REMARK    9  A    between atoms: C11_14  and  C12_17 
REMARK   10  A    between atoms: C24_29  and  O4_30 
ROOT
HETATM    1  N1  UNL     1      20.097  15.112  30.348  1.00  0.00    -0.360 N 
ENDROOT
BRANCH   1   2
HETATM    2  C10 UNL     1      21.175  16.010  30.616  1.00  0.00     0.129 C 
BRANCH   2   3
HETATM    3  C9  UNL     1      22.507  15.443  30.871  1.00  0.00     0.004 C 
HETATM    4  C8  UNL     1      23.312  15.626  29.556  1.00  0.00     0.007 C 
HETATM    5  C7  UNL     1      24.762  15.651  29.955  1.00  0.00     0.015 C 
HETATM    6  C6  UNL     1      25.015  14.568  30.964  1.00  0.00     0.085 C 
HETATM    7  C28 UNL     1      24.484  15.058  32.298  1.00  0.00     0.015 C 
HETATM    8  C27 UNL     1      23.264  15.963  32.026  1.00  0.00     0.007 C 
BRANCH   6   9
HETATM    9  C5  UNL     1      26.473  14.277  31.040  1.00  0.00     0.263 C 
HETATM   10  O2  UNL     1      27.294  15.049  30.459  1.00  0.00    -0.265 OA
BRANCH   9  11
HETATM   11  O1  UNL     1      26.994  13.204  31.716  1.00  0.00    -0.311 OA
BRANCH  11  12
HETATM   12  C2  UNL     1      27.482  12.028  31.127  1.00  0.00     0.060 C 
HETATM   13  C1  UNL     1      26.934  10.847  31.938  1.00  0.00     0.045 C 
HETATM   14  C3  UNL     1      27.018  11.830  29.713  1.00  0.00     0.045 C 
HETATM   15  C4  UNL     1      28.988  11.925  31.184  1.00  0.00     0.045 C 
ENDBRANCH  11  12
ENDBRANCH   9  11
ENDBRANCH   6   9
ENDBRANCH   2   3
ENDBRANCH   1   2
BRANCH   1  16
HETATM   16  C11 UNL     1      19.950  13.845  30.901  1.00  0.00     0.122 C 
BRANCH  16  17
HETATM   17  O3  UNL     1      18.737  13.662  31.437  1.00  0.00    -0.349 OA
ATOM     18  H3  UNL     1      18.778  13.482  32.369  1.00  0.00     0.219 HD
ENDBRANCH  16  17
BRANCH  16  19
HETATM   19  C12 UNL     1      20.755  12.647  31.070  1.00  0.00     0.026 C 
HETATM   20  C13 UNL     1      21.815  12.382  30.064  1.00  0.00     0.022 C 
HETATM   21  C14 UNL     1      22.698  11.214  30.464  1.00  0.00    -0.013 C 
HETATM   22  C15 UNL     1      23.308  11.408  31.832  1.00  0.00     0.010 C 
HETATM   23  C19 UNL     1      21.797   9.998  30.744  1.00  0.00     0.010 C 
HETATM   24  C16 UNL     1      22.011  11.421  32.659  1.00  0.00    -0.009 C 
HETATM   25  C17 UNL     1      21.469  12.805  32.486  1.00  0.00     0.023 C 
HETATM   26  C18 UNL     1      21.055  10.504  31.964  1.00  0.00    -0.009 C 
HETATM   27  C20 UNL     1      19.949  11.425  31.425  1.00  0.00     0.023 C 
ENDBRANCH  16  19
ENDBRANCH   1  16
BRANCH   1  28
HETATM   28  C21 UNL     1      19.020  15.589  29.459  1.00  0.00     0.086 C 
HETATM   29  C22 UNL     1      19.020  14.929  28.120  1.00  0.00     0.028 C 
HETATM   30  C23 UNL     1      17.695  15.283  27.420  1.00  0.00     0.034 C 
HETATM   31  C24 UNL     1      17.555  16.789  27.337  1.00  0.00     0.118 C 
HETATM   32  C25 UNL     1      17.802  17.502  28.619  1.00  0.00     0.034 C 
HETATM   33  C26 UNL     1      19.160  17.078  29.203  1.00  0.00     0.028 C 
BRANCH  31  34
HETATM   34  O4  UNL     1      16.291  17.074  26.866  1.00  0.00    -0.396 OA
ATOM     35  H4  UNL     1      16.139  18.005  26.980  1.00  0.00     0.210 HD
ENDBRANCH  31  34
ENDBRANCH   1  28
TORSDOF 10
ENDMDL
MODEL 4
REMARK VINA RESULT: -8.649823216      1.349      2.148
REMARK  10 active torsions:
REMARK  status: ('A' for Active; 'I' for Inactive)
REMARK    1  A    between atoms: C2_2  and  O1_5 
REMARK    2  A    between atoms: O1_5  and  C5_6 
REMARK    3  A    between atoms: C5_6  and  C6_8 
REMARK    4  A    between atoms: C9_11  and  C10_12 
REMARK    5  A    between atoms: C10_12  and  N1_13 
REMARK    6  A    between atoms: N1_13  and  C11_14 
REMARK    7  A    between atoms: N1_13  and  C21_26 
REMARK    8  A    between atoms: C11_14  and  O3_15 
REMARK    9  A    between atoms: C11_14  and  C12_17 
REMARK   10  A    between atoms: C24_29  and  O4_30 
ROOT
HETATM    1  N1  UNL     1      20.982  12.834  32.141  1.00  0.00    -0.360 N 
ENDROOT
BRANCH   1   2
HETATM    2  C10 UNL     1      20.998  14.190  31.691  1.00  0.00     0.129 C 
BRANCH   2   3
HETATM    3  C9  UNL     1      22.285  14.900  31.670  1.00  0.00     0.004 C 
HETATM    4  C8  UNL     1      22.717  14.968  30.180  1.00  0.00     0.007 C 
HETATM    5  C7  UNL     1      23.625  16.161  30.062  1.00  0.00     0.015 C 
HETATM    6  C6  UNL     1      24.576  16.173  31.224  1.00  0.00     0.085 C 
HETATM    7  C28 UNL     1      23.811  16.686  32.431  1.00  0.00     0.015 C 
HETATM    8  C27 UNL     1      22.341  16.237  32.293  1.00  0.00     0.007 C 
BRANCH   6   9
HETATM    9  C5  UNL     1      25.741  17.047  30.917  1.00  0.00     0.263 C 
HETATM   10  O2  UNL     1      25.655  18.295  31.120  1.00  0.00    -0.265 OA
BRANCH   9  11
HETATM   11  O1  UNL     1      26.928  16.576  30.416  1.00  0.00    -0.311 OA
BRANCH  11  12
HETATM   12  C2  UNL     1      27.944  15.965  31.167  1.00  0.00     0.060 C 
HETATM   13  C1  UNL     1      29.238  16.748  30.909  1.00  0.00     0.045 C 
HETATM   14  C3  UNL     1      27.704  16.010  32.648  1.00  0.00     0.045 C 
HETATM   15  C4  UNL     1      28.212  14.541  30.742  1.00  0.00     0.045 C 
ENDBRANCH  11  12
ENDBRANCH   9  11
ENDBRANCH   6   9
ENDBRANCH   2   3
ENDBRANCH   1   2
BRANCH   1  16
HETATM   16  C11 UNL     1      22.101  12.093  32.500  1.00  0.00     0.122 C 
BRANCH  16  17
HETATM   17  O3  UNL     1      21.992  11.573  33.729  1.00  0.00    -0.349 OA
ATOM     18  H3  UNL     1      22.827  11.539  34.182  1.00  0.00     0.219 HD
ENDBRANCH  16  17
BRANCH  16  19
HETATM   19  C12 UNL     1      23.377  11.721  31.913  1.00  0.00     0.026 C 
HETATM   20  C13 UNL     1      24.554  12.570  32.228  1.00  0.00     0.022 C 
HETATM   21  C14 UNL     1      25.845  11.965  31.711  1.00  0.00    -0.013 C 
HETATM   22  C15 UNL     1      26.057  10.561  32.225  1.00  0.00     0.010 C 
HETATM   23  C19 UNL     1      25.680  11.676  30.208  1.00  0.00     0.010 C 
HETATM   24  C16 UNL     1      24.838   9.891  31.567  1.00  0.00    -0.009 C 
HETATM   25  C17 UNL     1      23.688  10.254  32.452  1.00  0.00     0.023 C 
HETATM   26  C18 UNL     1      24.613  10.602  30.270  1.00  0.00    -0.009 C 
HETATM   27  C20 UNL     1      23.283  11.347  30.456  1.00  0.00     0.023 C 
ENDBRANCH  16  19
ENDBRANCH   1  16
BRANCH   1  28
HETATM   28  C21 UNL     1      19.664  12.186  32.295  1.00  0.00     0.086 C 
HETATM   29  C22 UNL     1      18.615  12.752  31.397  1.00  0.00     0.028 C 
HETATM   30  C23 UNL     1      17.401  11.807  31.436  1.00  0.00     0.034 C 
HETATM   31  C24 UNL     1      16.931  11.647  32.866  1.00  0.00     0.118 C 
HETATM   32  C25 UNL     1      18.012  11.327  33.838  1.00  0.00     0.034 C 
HETATM   33  C26 UNL     1      19.150  12.353  33.713  1.00  0.00     0.028 C 
BRANCH  31  34
HETATM   34  O4  UNL     1      15.961  10.668  32.889  1.00  0.00    -0.396 OA
ATOM     35  H4  UNL     1      15.429  10.800  33.665  1.00  0.00     0.210 HD
ENDBRANCH  31  34
ENDBRANCH   1  28
TORSDOF 10
ENDMDL
MODEL 5
REMARK VINA RESULT: -8.646825717      2.040      4.574
REMARK  10 active torsions:
REMARK  status: ('A' for Active; 'I' for Inactive)
REMARK    1  A    between atoms: C2_2  and  O1_5 
REMARK    2  A    between atoms: O1_5  and  C5_6 
REMARK    3  A    between atoms: C5_6  and  C6_8 
REMARK    4  A    between atoms: C9_11  and  C10_12 
REMARK    5  A    between atoms: C10_12  and  N1_13 
REMARK    6  A    between atoms: N1_13  and  C11_14 
REMARK    7  A    between atoms: N1_13  and  C21_26 
REMARK    8  A    between atoms: C11_14  and  O3_15 
REMARK    9  A    between atoms: C11_14  and  C12_17 
REMARK   10  A    between atoms: C24_29  and  O4_30 
ROOT
HETATM    1  N1  UNL     1      20.415  12.612  32.478  1.00  0.00    -0.360 N 
ENDROOT
BRANCH   1   2
HETATM    2  C10 UNL     1      21.040  11.331  32.390  1.00  0.00     0.129 C 
BRANCH   2   3
HETATM    3  C9  UNL     1      22.486  11.278  32.131  1.00  0.00     0.004 C 
HETATM    4  C8  UNL     1      23.103  10.457  33.296  1.00  0.00     0.007 C 
HETATM    5  C7  UNL     1      24.382   9.873  32.764  1.00  0.00     0.015 C 
HETATM    6  C6  UNL     1      25.116  10.923  31.982  1.00  0.00     0.085 C 
HETATM    7  C28 UNL     1      24.433  11.044  30.631  1.00  0.00     0.015 C 
HETATM    8  C27 UNL     1      22.931  10.751  30.826  1.00  0.00     0.007 C 
BRANCH   6   9
HETATM    9  C5  UNL     1      26.545  10.535  31.827  1.00  0.00     0.263 C 
HETATM   10  O2  UNL     1      26.833   9.405  31.331  1.00  0.00    -0.265 OA
BRANCH   9  11
HETATM   11  O1  UNL     1      27.591  11.341  32.195  1.00  0.00    -0.311 OA
BRANCH  11  12
HETATM   12  C2  UNL     1      28.131  12.380  31.423  1.00  0.00     0.060 C 
HETATM   13  C1  UNL     1      29.657  12.231  31.455  1.00  0.00     0.045 C 
HETATM   14  C3  UNL     1      27.725  12.326  29.978  1.00  0.00     0.045 C 
HETATM   15  C4  UNL     1      27.822  13.749  31.982  1.00  0.00     0.045 C 
ENDBRANCH  11  12
ENDBRANCH   9  11
ENDBRANCH   6   9
ENDBRANCH   2   3
ENDBRANCH   1   2
BRANCH   1  16
HETATM   16  C11 UNL     1      21.073  13.812  32.722  1.00  0.00     0.122 C 
BRANCH  16  17
HETATM   17  O3  UNL     1      20.614  14.429  33.818  1.00  0.00    -0.349 OA
ATOM     18  H3  UNL     1      20.402  15.341  33.656  1.00  0.00     0.219 HD
ENDBRANCH  16  17
BRANCH  16  19
HETATM   19  C12 UNL     1      22.130  14.600  32.112  1.00  0.00     0.026 C 
HETATM   20  C13 UNL     1      23.534  14.203  32.390  1.00  0.00     0.022 C 
HETATM   21  C14 UNL     1      24.523  14.984  31.544  1.00  0.00    -0.013 C 
HETATM   22  C15 UNL     1      24.224  14.863  30.069  1.00  0.00     0.010 C 
HETATM   23  C19 UNL     1      24.256  16.486  31.748  1.00  0.00     0.010 C 
HETATM   24  C16 UNL     1      22.843  15.541  30.060  1.00  0.00    -0.009 C 
HETATM   25  C17 UNL     1      21.902  14.481  30.539  1.00  0.00     0.023 C 
HETATM   26  C18 UNL     1      22.878  16.589  31.127  1.00  0.00    -0.009 C 
HETATM   27  C20 UNL     1      21.901  16.086  32.201  1.00  0.00     0.023 C 
ENDBRANCH  16  19
ENDBRANCH   1  16
BRANCH   1  28
HETATM   28  C21 UNL     1      18.961  12.678  32.231  1.00  0.00     0.086 C 
HETATM   29  C22 UNL     1      18.230  11.448  32.656  1.00  0.00     0.028 C 
HETATM   30  C23 UNL     1      16.723  11.762  32.628  1.00  0.00     0.034 C 
HETATM   31  C24 UNL     1      16.332  12.232  31.243  1.00  0.00     0.118 C 
HETATM   32  C25 UNL     1      17.209  13.296  30.682  1.00  0.00     0.034 C 
HETATM   33  C26 UNL     1      18.680  12.852  30.750  1.00  0.00     0.028 C 
BRANCH  31  34
HETATM   34  O4  UNL     1      15.025  12.667  31.294  1.00  0.00    -0.396 OA
ATOM     35  H4  UNL     1      14.473  11.917  31.482  1.00  0.00     0.210 HD
ENDBRANCH  31  34
ENDBRANCH   1  28
TORSDOF 10
ENDMDL
