MODEL 1
REMARK VINA RESULT: -9.307940384      0.000      0.000
REMARK  5 active torsions:
REMARK  status: ('A' for Active; 'I' for Inactive)
REMARK    1  A    between atoms: C2_2  and  C3_3 
REMARK       I    between atoms: C3_3  and  N1_5 
REMARK    2  A    between atoms: N1_5  and  C4_7 
REMARK    3  A    between atoms: C4_7  and  C5_8 
REMARK    4  A    between atoms: C5_8  and  C6_9 
REMARK    5  A    between atoms: C6_9  and  N2_10 
ROOT
HETATM    1  C1  UNL     1      28.015  11.269  31.373  1.00  0.00     0.025 C 
HETATM    2  C2  UNL     1      27.511  12.564  30.810  1.00  0.00     0.038 C 
HETATM    3  C11 UNL     1      27.199  12.479  29.332  1.00  0.00     0.019 C 
HETATM    4  C12 UNL     1      26.210  11.390  29.080  1.00  0.00     0.006 C 
HETATM    5  C13 UNL     1      25.187  11.231  30.184  1.00  0.00    -0.010 C 
HETATM    6  C14 UNL     1      23.865  10.882  29.529  1.00  0.00     0.005 C 
HETATM    7  C15 UNL     1      22.754  10.720  30.548  1.00  0.00     0.006 C 
HETATM    8  C16 UNL     1      23.137  11.336  31.877  1.00  0.00    -0.001 C 
HETATM    9  C17 UNL     1      23.804  12.693  31.681  1.00  0.00    -0.005 C 
HETATM   10  C18 UNL     1      22.798  13.614  31.070  1.00  0.00     0.006 C 
HETATM   11  C19 UNL     1      21.705  13.855  32.059  1.00  0.00     0.006 C 
HETATM   12  C20 UNL     1      21.660  12.892  33.183  1.00  0.00    -0.005 C 
HETATM   13  C21 UNL     1      20.297  12.961  33.835  1.00  0.00     0.013 C 
HETATM   14  C22 UNL     1      19.186  12.662  32.877  1.00  0.00     0.079 C 
HETATM   15  C23 UNL     1      19.642  11.594  31.951  1.00  0.00     0.127 C 
HETATM   16  O3  UNL     1      19.097  11.497  30.869  1.00  0.00    -0.298 OA
HETATM   17  C24 UNL     1      20.746  10.723  32.433  1.00  0.00     0.088 C 
HETATM   18  C25 UNL     1      21.992  11.471  32.820  1.00  0.00    -0.030 C 
HETATM   19  C26 UNL     1      22.470  10.824  34.139  1.00  0.00     0.016 C 
HETATM   20  C27 UNL     1      25.001  12.613  30.796  1.00  0.00    -0.005 C 
HETATM   21  C28 UNL     1      26.247  12.943  31.548  1.00  0.00     0.024 C 
ENDROOT
BRANCH   2  22
HETATM   22  C3  UNL     1      28.503  13.639  31.093  1.00  0.00     0.229 C 
HETATM   23  O1  UNL     1      29.400  13.363  31.917  1.00  0.00    -0.272 OA
HETATM   24  N1  UNL     1      28.461  14.903  30.486  1.00  0.00    -0.340 N 
ATOM     25  H1  UNL     1      27.703  15.022  29.814  1.00  0.00     0.167 HD
BRANCH  24  26
HETATM   26  C4  UNL     1      29.281  16.034  30.641  1.00  0.00     0.065 C 
BRANCH  26  27
HETATM   27  C5  UNL     1      28.801  17.266  31.279  1.00  0.00     0.064 C 
BRANCH  27  28
HETATM   28  C6  UNL     1      28.058  18.281  30.492  1.00  0.00     0.127 C 
BRANCH  28  29
HETATM   29  N2  UNL     1      26.623  18.254  30.807  1.00  0.00    -0.389 N 
HETATM   30  C7  UNL     1      25.835  17.699  29.779  1.00  0.00     0.084 C 
HETATM   31  C8  UNL     1      25.035  16.482  30.151  1.00  0.00     0.212 C 
HETATM   32  O2  UNL     1      24.501  16.595  31.433  1.00  0.00    -0.385 OA
HETATM   33  C9  UNL     1      25.598  16.583  32.309  1.00  0.00     0.187 C 
HETATM   34  C10 UNL     1      26.344  17.854  32.131  1.00  0.00     0.148 C 
ENDBRANCH  28  29
ENDBRANCH  27  28
ENDBRANCH  26  27
ENDBRANCH  24  26
ENDBRANCH   2  22
TORSDOF 5
ENDMDL
MODEL 2
REMARK VINA RESULT: -9.296458210      0.952      1.237
REMARK  5 active torsions:
REMARK  status: ('A' for Active; 'I' for Inactive)
REMARK    1  A    between atoms: C2_2  and  C3_3 
REMARK       I    between atoms: C3_3  and  N1_5 
REMARK    2  A    between atoms: N1_5  and  C4_7 
REMARK    3  A    between atoms: C4_7  and  C5_8 
REMARK    4  A    between atoms: C5_8  and  C6_9 
REMARK    5  A    between atoms: C6_9  and  N2_10 
ROOT
HETATM    1  C1  UNL     1      27.884  10.578  31.558  1.00  0.00     0.025 C 
HETATM    2  C2  UNL     1      27.546  11.971  31.116  1.00  0.00     0.038 C 
HETATM    3  C11 UNL     1      27.292  12.069  29.628  1.00  0.00     0.019 C 
HETATM    4  C12 UNL     1      26.205  11.127  29.232  1.00  0.00     0.006 C 
HETATM    5  C13 UNL     1      25.123  10.972  30.279  1.00  0.00    -0.010 C 
HETATM    6  C14 UNL     1      23.802  10.839  29.548  1.00  0.00     0.005 C 
HETATM    7  C15 UNL     1      22.636  10.699  30.507  1.00  0.00     0.006 C 
HETATM    8  C16 UNL     1      23.023  11.133  31.905  1.00  0.00    -0.001 C 
HETATM    9  C17 UNL     1      23.839  12.420  31.874  1.00  0.00    -0.005 C 
HETATM   10  C18 UNL     1      22.965  13.503  31.330  1.00  0.00     0.006 C 
HETATM   11  C19 UNL     1      21.861  13.763  32.302  1.00  0.00     0.006 C 
HETATM   12  C20 UNL     1      21.665  12.703  33.318  1.00  0.00    -0.005 C 
HETATM   13  C21 UNL     1      20.289  12.856  33.927  1.00  0.00     0.013 C 
HETATM   14  C22 UNL     1      19.195  12.779  32.908  1.00  0.00     0.079 C 
HETATM   15  C23 UNL     1      19.576  11.766  31.890  1.00  0.00     0.127 C 
HETATM   16  O3  UNL     1      19.072  11.839  30.787  1.00  0.00    -0.298 OA
HETATM   17  C24 UNL     1      20.558  10.734  32.315  1.00  0.00     0.088 C 
HETATM   18  C25 UNL     1      21.858  11.298  32.819  1.00  0.00    -0.030 C 
HETATM   19  C26 UNL     1      22.206  10.473  34.078  1.00  0.00     0.016 C 
HETATM   20  C27 UNL     1      25.058  12.297  31.026  1.00  0.00    -0.005 C 
HETATM   21  C28 UNL     1      26.298  12.411  31.848  1.00  0.00     0.024 C 
ENDROOT
BRANCH   2  22
HETATM   22  C3  UNL     1      28.633  12.896  31.544  1.00  0.00     0.229 C 
HETATM   23  O1  UNL     1      29.792  12.430  31.536  1.00  0.00    -0.272 OA
HETATM   24  N1  UNL     1      28.403  14.222  31.939  1.00  0.00    -0.340 N 
ATOM     25  H1  UNL     1      27.426  14.511  31.891  1.00  0.00     0.167 HD
BRANCH  24  26
HETATM   26  C4  UNL     1      29.282  15.222  32.389  1.00  0.00     0.065 C 
BRANCH  26  27
HETATM   27  C5  UNL     1      28.806  16.529  32.854  1.00  0.00     0.064 C 
BRANCH  27  28
HETATM   28  C6  UNL     1      27.454  16.670  33.450  1.00  0.00     0.127 C 
BRANCH  28  29
HETATM   29  N2  UNL     1      26.507  17.253  32.490  1.00  0.00    -0.389 N 
HETATM   30  C7  UNL     1      27.118  18.103  31.547  1.00  0.00     0.084 C 
HETATM   31  C8  UNL     1      26.962  17.704  30.106  1.00  0.00     0.212 C 
HETATM   32  O2  UNL     1      25.684  17.209  29.850  1.00  0.00    -0.385 OA
HETATM   33  C9  UNL     1      25.587  16.006  30.567  1.00  0.00     0.187 C 
HETATM   34  C10 UNL     1      25.548  16.334  32.015  1.00  0.00     0.148 C 
ENDBRANCH  28  29
ENDBRANCH  27  28
ENDBRANCH  26  27
ENDBRANCH  24  26
ENDBRANCH   2  22
TORSDOF 5
ENDMDL
MODEL 3
REMARK VINA RESULT: -9.079335828      1.404      1.802
REMARK  5 active torsions:
REMARK  status: ('A' for Active; 'I' for Inactive)
REMARK    1  A    between atoms: C2_2  and  C3_3 
REMARK       I    between atoms: C3_3  and  N1_5 
REMARK    2  A    between atoms: N1_5  and  C4_7 
REMARK    3  A    between atoms: C4_7  and  C5_8 
REMARK    4  A    between atoms: C5_8  and  C6_9 
REMARK    5  A    between atoms: C6_9  and  N2_10 
ROOT
HETATM    1  C1  UNL     1      28.030  10.831  31.568  1.00  0.00     0.025 C 
HETATM    2  C2  UNL     1      27.634  12.208  31.124  1.00  0.00     0.038 C 
HETATM    3  C11 UNL     1      27.386  12.296  29.635  1.00  0.00     0.019 C 
HETATM    4  C12 UNL     1      26.344  11.307  29.230  1.00  0.00     0.006 C 
HETATM    5  C13 UNL     1      25.263  11.105  30.270  1.00  0.00    -0.010 C 
HETATM    6  C14 UNL     1      23.953  10.915  29.531  1.00  0.00     0.005 C 
HETATM    7  C15 UNL     1      22.789  10.724  30.482  1.00  0.00     0.006 C 
HETATM    8  C16 UNL     1      23.147  11.174  31.883  1.00  0.00    -0.001 C 
HETATM    9  C17 UNL     1      23.906  12.495  31.858  1.00  0.00    -0.005 C 
HETATM   10  C18 UNL     1      22.990  13.539  31.308  1.00  0.00     0.006 C 
HETATM   11  C19 UNL     1      21.869  13.751  32.272  1.00  0.00     0.006 C 
HETATM   12  C20 UNL     1      21.712  12.682  33.287  1.00  0.00    -0.005 C 
HETATM   13  C21 UNL     1      20.328  12.775  33.887  1.00  0.00     0.013 C 
HETATM   14  C22 UNL     1      19.245  12.651  32.860  1.00  0.00     0.079 C 
HETATM   15  C23 UNL     1      19.676  11.656  31.845  1.00  0.00     0.127 C 
HETATM   16  O3  UNL     1      19.176  11.707  30.738  1.00  0.00    -0.298 OA
HETATM   17  C24 UNL     1      20.699  10.668  32.276  1.00  0.00     0.088 C 
HETATM   18  C25 UNL     1      21.970  11.287  32.789  1.00  0.00    -0.030 C 
HETATM   19  C26 UNL     1      22.345  10.477  34.050  1.00  0.00     0.016 C 
HETATM   20  C27 UNL     1      25.135  12.426  31.017  1.00  0.00    -0.005 C 
HETATM   21  C28 UNL     1      26.364  12.593  31.848  1.00  0.00     0.024 C 
ENDROOT
BRANCH   2  22
HETATM   22  C3  UNL     1      28.678  13.179  31.559  1.00  0.00     0.229 C 
HETATM   23  O1  UNL     1      29.622  12.715  32.232  1.00  0.00    -0.272 OA
HETATM   24  N1  UNL     1      28.633  14.546  31.247  1.00  0.00    -0.340 N 
ATOM     25  H1  UNL     1      27.833  14.821  30.677  1.00  0.00     0.167 HD
BRANCH  24  26
HETATM   26  C4  UNL     1      29.496  15.603  31.581  1.00  0.00     0.065 C 
BRANCH  26  27
HETATM   27  C5  UNL     1      29.030  16.797  32.295  1.00  0.00     0.064 C 
BRANCH  27  28
HETATM   28  C6  UNL     1      27.920  17.616  31.748  1.00  0.00     0.127 C 
BRANCH  28  29
HETATM   29  N2  UNL     1      28.273  18.188  30.441  1.00  0.00    -0.389 N 
HETATM   30  C7  UNL     1      27.160  18.394  29.602  1.00  0.00     0.084 C 
HETATM   31  C8  UNL     1      26.922  19.813  29.164  1.00  0.00     0.212 C 
HETATM   32  O2  UNL     1      28.121  20.466  28.880  1.00  0.00    -0.385 OA
HETATM   33  C9  UNL     1      28.797  20.578  30.105  1.00  0.00     0.187 C 
HETATM   34  C10 UNL     1      29.232  19.219  30.518  1.00  0.00     0.148 C 
ENDBRANCH  28  29
ENDBRANCH  27  28
ENDBRANCH  26  27
ENDBRANCH  24  26
ENDBRANCH   2  22
TORSDOF 5
ENDMDL
MODEL 4
REMARK VINA RESULT: -9.018387634      3.902      7.793
REMARK  5 active torsions:
REMARK  status: ('A' for Active; 'I' for Inactive)
REMARK    1  A    between atoms: C2_2  and  C3_3 
REMARK       I    between atoms: C3_3  and  N1_5 
REMARK    2  A    between atoms: N1_5  and  C4_7 
REMARK    3  A    between atoms: C4_7  and  C5_8 
REMARK    4  A    between atoms: C5_8  and  C6_9 
REMARK    5  A    between atoms: C6_9  and  N2_10 
ROOT
HETATM    1  C1  UNL     1      20.671  10.525  30.611  1.00  0.00     0.025 C 
HETATM    2  C2  UNL     1      20.813  11.680  31.556  1.00  0.00     0.038 C 
HETATM    3  C11 UNL     1      20.953  11.244  32.998  1.00  0.00     0.019 C 
HETATM    4  C12 UNL     1      22.113  10.317  33.142  1.00  0.00     0.006 C 
HETATM    5  C13 UNL     1      23.274  10.651  32.230  1.00  0.00    -0.010 C 
HETATM    6  C14 UNL     1      24.550  10.369  32.999  1.00  0.00     0.005 C 
HETATM    7  C15 UNL     1      25.786  10.691  32.182  1.00  0.00     0.006 C 
HETATM    8  C16 UNL     1      25.446  11.575  31.001  1.00  0.00    -0.001 C 
HETATM    9  C17 UNL     1      24.485  12.687  31.407  1.00  0.00    -0.005 C 
HETATM   10  C18 UNL     1      25.187  13.562  32.393  1.00  0.00     0.006 C 
HETATM   11  C19 UNL     1      26.316  14.255  31.702  1.00  0.00     0.006 C 
HETATM   12  C20 UNL     1      26.704  13.664  30.400  1.00  0.00    -0.005 C 
HETATM   13  C21 UNL     1      28.089  14.146  30.035  1.00  0.00     0.013 C 
HETATM   14  C22 UNL     1      29.114  13.791  31.068  1.00  0.00     0.079 C 
HETATM   15  C23 UNL     1      28.786  12.446  31.607  1.00  0.00     0.127 C 
HETATM   16  O3  UNL     1      29.203  12.149  32.709  1.00  0.00    -0.298 OA
HETATM   17  C24 UNL     1      27.962  11.565  30.739  1.00  0.00     0.088 C 
HETATM   18  C25 UNL     1      26.642  12.163  30.336  1.00  0.00    -0.030 C 
HETATM   19  C26 UNL     1      26.479  11.834  28.835  1.00  0.00     0.016 C 
HETATM   20  C27 UNL     1      23.234  12.158  32.021  1.00  0.00    -0.005 C 
HETATM   21  C28 UNL     1      22.047  12.463  31.168  1.00  0.00     0.024 C 
ENDROOT
BRANCH   2  22
HETATM   22  C3  UNL     1      19.657  12.603  31.378  1.00  0.00     0.229 C 
HETATM   23  O1  UNL     1      19.914  13.824  31.393  1.00  0.00    -0.272 OA
HETATM   24  N1  UNL     1      18.339  12.157  31.200  1.00  0.00    -0.340 N 
ATOM     25  H1  UNL     1      18.237  11.142  31.183  1.00  0.00     0.167 HD
BRANCH  24  26
HETATM   26  C4  UNL     1      17.134  12.862  31.042  1.00  0.00     0.065 C 
BRANCH  26  27
HETATM   27  C5  UNL     1      16.874  13.715  29.877  1.00  0.00     0.064 C 
BRANCH  27  28
HETATM   28  C6  UNL     1      16.975  15.192  29.986  1.00  0.00     0.127 C 
BRANCH  28  29
HETATM   29  N2  UNL     1      17.884  15.741  28.971  1.00  0.00    -0.389 N 
HETATM   30  C7  UNL     1      17.654  15.229  27.679  1.00  0.00     0.084 C 
HETATM   31  C8  UNL     1      17.296  16.242  26.627  1.00  0.00     0.212 C 
HETATM   32  O2  UNL     1      18.037  17.414  26.774  1.00  0.00    -0.385 OA
HETATM   33  C9  UNL     1      17.612  17.988  27.982  1.00  0.00     0.187 C 
HETATM   34  C10 UNL     1      18.094  17.131  29.095  1.00  0.00     0.148 C 
ENDBRANCH  28  29
ENDBRANCH  27  28
ENDBRANCH  26  27
ENDBRANCH  24  26
ENDBRANCH   2  22
TORSDOF 5
ENDMDL
MODEL 5
REMARK VINA RESULT: -8.927721203      1.554      2.115
REMARK  5 active torsions:
REMARK  status: ('A' for Active; 'I' for Inactive)
REMARK    1  A    between atoms: C2_2  and  C3_3 
REMARK       I    between atoms: C3_3  and  N1_5 
REMARK    2  A    between atoms: N1_5  and  C4_7 
REMARK    3  A    between atoms: C4_7  and  C5_8 
REMARK    4  A    between atoms: C5_8  and  C6_9 
REMARK    5  A    between atoms: C6_9  and  N2_10 
ROOT
HETATM    1  C1  UNL     1      27.785  10.321  31.596  1.00  0.00     0.025 C 
HETATM    2  C2  UNL     1      27.511  11.735  31.179  1.00  0.00     0.038 C 
HETATM    3  C11 UNL     1      27.274  11.873  29.692  1.00  0.00     0.019 C 
HETATM    4  C12 UNL     1      26.152  10.986  29.267  1.00  0.00     0.006 C 
HETATM    5  C13 UNL     1      25.055  10.857  30.303  1.00  0.00    -0.010 C 
HETATM    6  C14 UNL     1      23.736  10.794  29.559  1.00  0.00     0.005 C 
HETATM    7  C15 UNL     1      22.557  10.685  30.506  1.00  0.00     0.006 C 
HETATM    8  C16 UNL     1      22.950  11.075  31.915  1.00  0.00    -0.001 C 
HETATM    9  C17 UNL     1      23.819  12.327  31.917  1.00  0.00    -0.005 C 
HETATM   10  C18 UNL     1      22.997  13.456  31.387  1.00  0.00     0.006 C 
HETATM   11  C19 UNL     1      21.897  13.744  32.355  1.00  0.00     0.006 C 
HETATM   12  C20 UNL     1      21.647  12.673  33.348  1.00  0.00    -0.005 C 
HETATM   13  C21 UNL     1      20.274  12.873  33.950  1.00  0.00     0.013 C 
HETATM   14  C22 UNL     1      19.186  12.863  32.920  1.00  0.00     0.079 C 
HETATM   15  C23 UNL     1      19.533  11.854  31.886  1.00  0.00     0.127 C 
HETATM   16  O3  UNL     1      19.042  11.970  30.780  1.00  0.00    -0.298 OA
HETATM   17  C24 UNL     1      20.466  10.774  32.297  1.00  0.00     0.088 C 
HETATM   18  C25 UNL     1      21.785  11.271  32.823  1.00  0.00    -0.030 C 
HETATM   19  C26 UNL     1      22.086  10.408  34.068  1.00  0.00     0.016 C 
HETATM   20  C27 UNL     1      25.040  12.169  31.075  1.00  0.00    -0.005 C 
HETATM   21  C28 UNL     1      26.276  12.214  31.910  1.00  0.00     0.024 C 
ENDROOT
BRANCH   2  22
HETATM   22  C3  UNL     1      28.632  12.604  31.634  1.00  0.00     0.229 C 
HETATM   23  O1  UNL     1      28.900  13.587  30.911  1.00  0.00    -0.272 OA
HETATM   24  N1  UNL     1      29.368  12.361  32.803  1.00  0.00    -0.340 N 
ATOM     25  H1  UNL     1      29.058  11.546  33.333  1.00  0.00     0.167 HD
BRANCH  24  26
HETATM   26  C4  UNL     1      30.456  13.043  33.373  1.00  0.00     0.065 C 
BRANCH  26  27
HETATM   27  C5  UNL     1      30.348  14.426  33.852  1.00  0.00     0.064 C 
BRANCH  27  28
HETATM   28  C6  UNL     1      30.820  15.553  33.010  1.00  0.00     0.127 C 
BRANCH  28  29
HETATM   29  N2  UNL     1      29.800  16.605  32.908  1.00  0.00    -0.389 N 
HETATM   30  C7  UNL     1      29.760  17.226  31.644  1.00  0.00     0.084 C 
HETATM   31  C8  UNL     1      28.456  17.123  30.903  1.00  0.00     0.212 C 
HETATM   32  O2  UNL     1      27.368  17.261  31.765  1.00  0.00    -0.385 OA
HETATM   33  C9  UNL     1      27.395  16.134  32.601  1.00  0.00     0.187 C 
HETATM   34  C10 UNL     1      28.568  16.255  33.502  1.00  0.00     0.148 C 
ENDBRANCH  28  29
ENDBRANCH  27  28
ENDBRANCH  26  27
ENDBRANCH  24  26
ENDBRANCH   2  22
TORSDOF 5
ENDMDL
