MODEL 1
REMARK VINA RESULT: -7.097313554      0.000      0.000
REMARK  6 active torsions:
REMARK  status: ('A' for Active; 'I' for Inactive)
REMARK    1  A    between atoms: C2_2  and  N1_3 
REMARK    2  A    between atoms: N1_3  and  C3_4 
REMARK    3  A    between atoms: N1_3  and  C5_7 
REMARK    4  A    between atoms: C3_4  and  O1_5 
REMARK    5  A    between atoms: C5_7  and  C6_8 
REMARK    6  A    between atoms: C10_15  and  N3_16 
ROOT
HETATM    1  C6  UNL     1      11.782  18.205  26.408  1.00  0.00     0.039 A 
HETATM    2  C7  UNL     1      11.823  17.135  25.508  1.00  0.00     0.048 A 
HETATM    3  C8  UNL     1      12.894  16.266  25.486  1.00  0.00     0.042 A 
HETATM    4 BR1  UNL     1      12.995  14.798  24.282  1.00  0.00    -0.049 Br
HETATM    5  C9  UNL     1      13.940  16.452  26.363  1.00  0.00     0.099 A 
HETATM    6  N2  UNL     1      15.015  15.611  26.370  1.00  0.00    -0.188 N 
ATOM      7  H2  UNL     1      15.045  14.832  25.714  1.00  0.00     0.184 HD
HETATM    8  C10 UNL     1      16.034  15.793  27.226  1.00  0.00     0.679 A 
HETATM    9  N4  UNL     1      15.972  16.827  28.079  1.00  0.00    -0.154 N 
ATOM     10  H4  UNL     1      16.744  16.967  28.729  1.00  0.00     0.187 HD
HETATM   11  C11 UNL     1      14.933  17.692  28.118  1.00  0.00     0.288 A 
HETATM   12  O2  UNL     1      14.868  18.659  28.913  1.00  0.00    -0.265 OA
HETATM   13  C12 UNL     1      13.888  17.512  27.248  1.00  0.00     0.130 A 
HETATM   14  N5  UNL     1      12.830  18.313  27.219  1.00  0.00    -0.352 N 
ATOM     15  H5  UNL     1      12.819  19.087  27.884  1.00  0.00     0.166 HD
ENDROOT
BRANCH   1  16
HETATM   16  C5  UNL     1      10.604  19.064  26.346  1.00  0.00     0.332 C 
BRANCH  16  17
HETATM   17  N1  UNL     1       9.774  19.109  27.491  1.00  0.00     0.116 N 
BRANCH  17  18
HETATM   18  C2  UNL     1       8.411  18.758  27.345  1.00  0.00     0.271 C 
HETATM   19  C1  UNL     1       7.579  18.999  28.586  1.00  0.00     0.037 C 
ENDBRANCH  17  18
BRANCH  17  20
HETATM   20  C3  UNL     1       9.923  20.352  28.182  1.00  0.00     0.440 C 
BRANCH  20  21
HETATM   21  O1  UNL     1      10.034  21.436  27.306  1.00  0.00    -0.367 OA
HETATM   22  C4  UNL     1       9.582  22.593  27.956  1.00  0.00     0.204 C 
ENDBRANCH  20  21
ENDBRANCH  17  20
ENDBRANCH  16  17
ENDBRANCH   1  16
BRANCH   8  23
HETATM   23  N3  UNL     1      17.061  14.985  27.230  1.00  0.00    -0.234 N 
ATOM     24  H32 UNL     1      17.167  14.272  26.508  1.00  0.00     0.174 HD
ATOM     25  H31 UNL     1      17.778  15.050  27.953  1.00  0.00     0.174 HD
ENDBRANCH   8  23
TORSDOF 6
ENDMDL
MODEL 2
REMARK VINA RESULT: -6.938248510      3.973      5.197
REMARK  6 active torsions:
REMARK  status: ('A' for Active; 'I' for Inactive)
REMARK    1  A    between atoms: C2_2  and  N1_3 
REMARK    2  A    between atoms: N1_3  and  C3_4 
REMARK    3  A    between atoms: N1_3  and  C5_7 
REMARK    4  A    between atoms: C3_4  and  O1_5 
REMARK    5  A    between atoms: C5_7  and  C6_8 
REMARK    6  A    between atoms: C10_15  and  N3_16 
ROOT
HETATM    1  C6  UNL     1       8.673  18.206  25.354  1.00  0.00     0.039 A 
HETATM    2  C7  UNL     1       8.481  19.370  26.106  1.00  0.00     0.048 A 
HETATM    3  C8  UNL     1       9.511  19.917  26.844  1.00  0.00     0.042 A 
HETATM    4 BR1  UNL     1       9.299  21.497  27.881  1.00  0.00    -0.049 Br
HETATM    5  C9  UNL     1      10.748  19.310  26.840  1.00  0.00     0.099 A 
HETATM    6  N2  UNL     1      11.790  19.824  27.556  1.00  0.00    -0.188 N 
ATOM      7  H2  UNL     1      11.650  20.673  28.104  1.00  0.00     0.184 HD
HETATM    8  C10 UNL     1      12.996  19.233  27.551  1.00  0.00     0.679 A 
HETATM    9  N4  UNL     1      13.154  18.118  26.822  1.00  0.00    -0.154 N 
ATOM     10  H4  UNL     1      14.068  17.666  26.818  1.00  0.00     0.187 HD
HETATM   11  C11 UNL     1      12.159  17.563  26.093  1.00  0.00     0.288 A 
HETATM   12  O2  UNL     1      12.301  16.522  25.410  1.00  0.00    -0.265 OA
HETATM   13  C12 UNL     1      10.925  18.162  26.092  1.00  0.00     0.130 A 
HETATM   14  N5  UNL     1       9.895  17.685  25.405  1.00  0.00    -0.352 N 
ATOM     15  H5  UNL     1      10.055  16.836  24.863  1.00  0.00     0.166 HD
ENDROOT
BRANCH   1  16
HETATM   16  C5  UNL     1       7.517  17.712  24.613  1.00  0.00     0.332 C 
BRANCH  16  17
HETATM   17  N1  UNL     1       6.883  18.614  23.727  1.00  0.00     0.116 N 
BRANCH  17  18
HETATM   18  C2  UNL     1       5.521  18.395  23.408  1.00  0.00     0.271 C 
HETATM   19  C1  UNL     1       5.248  17.045  22.780  1.00  0.00     0.037 C 
ENDBRANCH  17  18
BRANCH  17  20
HETATM   20  C3  UNL     1       7.671  18.812  22.549  1.00  0.00     0.440 C 
BRANCH  20  21
HETATM   21  O1  UNL     1       7.559  20.113  22.050  1.00  0.00    -0.367 OA
HETATM   22  C4  UNL     1       7.365  20.051  20.662  1.00  0.00     0.204 C 
ENDBRANCH  20  21
ENDBRANCH  17  20
ENDBRANCH  16  17
ENDBRANCH   1  16
BRANCH   8  23
HETATM   23  N3  UNL     1      13.991  19.729  28.238  1.00  0.00    -0.234 N 
ATOM     24  H32 UNL     1      14.956  19.545  27.964  1.00  0.00     0.174 HD
ATOM     25  H31 UNL     1      13.824  20.310  29.059  1.00  0.00     0.174 HD
ENDBRANCH   8  23
TORSDOF 6
ENDMDL
MODEL 3
REMARK VINA RESULT: -6.928080961      0.871      1.004
REMARK  6 active torsions:
REMARK  status: ('A' for Active; 'I' for Inactive)
REMARK    1  A    between atoms: C2_2  and  N1_3 
REMARK    2  A    between atoms: N1_3  and  C3_4 
REMARK    3  A    between atoms: N1_3  and  C5_7 
REMARK    4  A    between atoms: C3_4  and  O1_5 
REMARK    5  A    between atoms: C5_7  and  C6_8 
REMARK    6  A    between atoms: C10_15  and  N3_16 
ROOT
HETATM    1  C6  UNL     1      11.964  18.165  26.384  1.00  0.00     0.039 A 
HETATM    2  C7  UNL     1      12.001  17.077  25.505  1.00  0.00     0.048 A 
HETATM    3  C8  UNL     1      13.057  16.188  25.519  1.00  0.00     0.042 A 
HETATM    4 BR1  UNL     1      13.151  14.695  24.345  1.00  0.00    -0.049 Br
HETATM    5  C9  UNL     1      14.091  16.373  26.411  1.00  0.00     0.099 A 
HETATM    6  N2  UNL     1      15.150  15.512  26.452  1.00  0.00    -0.188 N 
ATOM      7  H2  UNL     1      15.176  14.720  25.812  1.00  0.00     0.184 HD
HETATM    8  C10 UNL     1      16.157  15.692  27.323  1.00  0.00     0.679 A 
HETATM    9  N4  UNL     1      16.099  16.744  28.154  1.00  0.00    -0.154 N 
ATOM     10  H4  UNL     1      16.862  16.883  28.815  1.00  0.00     0.187 HD
HETATM   11  C11 UNL     1      15.075  17.628  28.158  1.00  0.00     0.288 A 
HETATM   12  O2  UNL     1      15.015  18.611  28.934  1.00  0.00    -0.265 OA
HETATM   13  C12 UNL     1      14.043  17.450  27.274  1.00  0.00     0.130 A 
HETATM   14  N5  UNL     1      13.000  18.270  27.211  1.00  0.00    -0.352 N 
ATOM     15  H5  UNL     1      12.993  19.057  27.860  1.00  0.00     0.166 HD
ENDROOT
BRANCH   1  16
HETATM   16  C5  UNL     1      10.804  19.043  26.284  1.00  0.00     0.332 C 
BRANCH  16  17
HETATM   17  N1  UNL     1       9.911  19.063  27.381  1.00  0.00     0.116 N 
BRANCH  17  18
HETATM   18  C2  UNL     1       8.552  18.743  27.144  1.00  0.00     0.271 C 
HETATM   19  C1  UNL     1       8.351  17.501  26.304  1.00  0.00     0.037 C 
ENDBRANCH  17  18
BRANCH  17  20
HETATM   20  C3  UNL     1      10.041  20.277  28.125  1.00  0.00     0.440 C 
BRANCH  20  21
HETATM   21  O1  UNL     1       9.497  20.173  29.409  1.00  0.00    -0.367 OA
HETATM   22  C4  UNL     1       8.793  21.351  29.700  1.00  0.00     0.204 C 
ENDBRANCH  20  21
ENDBRANCH  17  20
ENDBRANCH  16  17
ENDBRANCH   1  16
BRANCH   8  23
HETATM   23  N3  UNL     1      17.168  14.866  27.360  1.00  0.00    -0.234 N 
ATOM     24  H32 UNL     1      17.530  14.444  26.505  1.00  0.00     0.174 HD
ATOM     25  H31 UNL     1      17.618  14.626  28.244  1.00  0.00     0.174 HD
ENDBRANCH   8  23
TORSDOF 6
ENDMDL
MODEL 4
REMARK VINA RESULT: -6.898683216      4.187      5.692
REMARK  6 active torsions:
REMARK  status: ('A' for Active; 'I' for Inactive)
REMARK    1  A    between atoms: C2_2  and  N1_3 
REMARK    2  A    between atoms: N1_3  and  C3_4 
REMARK    3  A    between atoms: N1_3  and  C5_7 
REMARK    4  A    between atoms: C3_4  and  O1_5 
REMARK    5  A    between atoms: C5_7  and  C6_8 
REMARK    6  A    between atoms: C10_15  and  N3_16 
ROOT
HETATM    1  C6  UNL     1       8.323  18.999  25.504  1.00  0.00     0.039 A 
HETATM    2  C7  UNL     1       8.303  20.112  26.352  1.00  0.00     0.048 A 
HETATM    3  C8  UNL     1       9.416  20.466  27.087  1.00  0.00     0.042 A 
HETATM    4 BR1  UNL     1       9.437  21.970  28.251  1.00  0.00    -0.049 Br
HETATM    5  C9  UNL     1      10.566  19.713  26.986  1.00  0.00     0.099 A 
HETATM    6  N2  UNL     1      11.686  20.035  27.697  1.00  0.00    -0.188 N 
ATOM      7  H2  UNL     1      11.671  20.846  28.314  1.00  0.00     0.184 HD
HETATM    8  C10 UNL     1      12.807  19.302  27.597  1.00  0.00     0.679 A 
HETATM    9  N4  UNL     1      12.800  18.239  26.778  1.00  0.00    -0.154 N 
ATOM     10  H4  UNL     1      13.650  17.680  26.701  1.00  0.00     0.187 HD
HETATM   11  C11 UNL     1      11.721  17.872  26.049  1.00  0.00     0.288 A 
HETATM   12  O2  UNL     1      11.710  16.882  25.282  1.00  0.00    -0.265 OA
HETATM   13  C12 UNL     1      10.574  18.617  26.145  1.00  0.00     0.130 A 
HETATM   14  N5  UNL     1       9.470  18.329  25.465  1.00  0.00    -0.352 N 
ATOM     15  H5  UNL     1       9.506  17.514  24.853  1.00  0.00     0.166 HD
ENDROOT
BRANCH   1  16
HETATM   16  C5  UNL     1       7.092  18.714  24.776  1.00  0.00     0.332 C 
BRANCH  16  17
HETATM   17  N1  UNL     1       7.221  18.227  23.454  1.00  0.00     0.116 N 
BRANCH  17  18
HETATM   18  C2  UNL     1       7.564  19.144  22.432  1.00  0.00     0.271 C 
HETATM   19  C1  UNL     1       7.539  18.549  21.040  1.00  0.00     0.037 C 
ENDBRANCH  17  18
BRANCH  17  20
HETATM   20  C3  UNL     1       6.086  17.435  23.088  1.00  0.00     0.440 C 
BRANCH  20  21
HETATM   21  O1  UNL     1       4.878  18.066  23.398  1.00  0.00    -0.367 OA
HETATM   22  C4  UNL     1       4.013  17.953  22.299  1.00  0.00     0.204 C 
ENDBRANCH  20  21
ENDBRANCH  17  20
ENDBRANCH  16  17
ENDBRANCH   1  16
BRANCH   8  23
HETATM   23  N3  UNL     1      13.877  19.614  28.278  1.00  0.00    -0.234 N 
ATOM     24  H32 UNL     1      13.907  20.462  28.845  1.00  0.00     0.174 HD
ATOM     25  H31 UNL     1      14.704  19.017  28.260  1.00  0.00     0.174 HD
ENDBRANCH   8  23
TORSDOF 6
ENDMDL
MODEL 5
REMARK VINA RESULT: -6.827328999      3.002      4.156
REMARK  6 active torsions:
REMARK  status: ('A' for Active; 'I' for Inactive)
REMARK    1  A    between atoms: C2_2  and  N1_3 
REMARK    2  A    between atoms: N1_3  and  C3_4 
REMARK    3  A    between atoms: N1_3  and  C5_7 
REMARK    4  A    between atoms: C3_4  and  O1_5 
REMARK    5  A    between atoms: C5_7  and  C6_8 
REMARK    6  A    between atoms: C10_15  and  N3_16 
ROOT
HETATM    1  C6  UNL     1       8.427  19.772  27.631  1.00  0.00     0.039 A 
HETATM    2  C7  UNL     1       7.710  19.345  26.508  1.00  0.00     0.048 A 
HETATM    3  C8  UNL     1       8.273  18.480  25.591  1.00  0.00     0.042 A 
HETATM    4 BR1  UNL     1       7.337  17.872  24.052  1.00  0.00    -0.049 Br
HETATM    5  C9  UNL     1       9.560  18.029  25.783  1.00  0.00     0.099 A 
HETATM    6  N2  UNL     1      10.148  17.172  24.898  1.00  0.00    -0.188 N 
ATOM      7  H2  UNL     1       9.624  16.861  24.080  1.00  0.00     0.184 HD
HETATM    8  C10 UNL     1      11.403  16.731  25.086  1.00  0.00     0.679 A 
HETATM    9  N4  UNL     1      12.070  17.156  26.170  1.00  0.00    -0.154 N 
ATOM     10  H4  UNL     1      13.023  16.823  26.314  1.00  0.00     0.187 HD
HETATM   11  C11 UNL     1      11.540  18.004  27.080  1.00  0.00     0.288 A 
HETATM   12  O2  UNL     1      12.158  18.403  28.095  1.00  0.00    -0.265 OA
HETATM   13  C12 UNL     1      10.259  18.457  26.896  1.00  0.00     0.130 A 
HETATM   14  N5  UNL     1       9.662  19.290  27.740  1.00  0.00    -0.352 N 
ATOM     15  H5  UNL     1      10.202  19.589  28.552  1.00  0.00     0.166 HD
ENDROOT
BRANCH   1  16
HETATM   16  C5  UNL     1       7.738  20.687  28.534  1.00  0.00     0.332 C 
BRANCH  16  17
HETATM   17  N1  UNL     1       8.353  20.950  29.781  1.00  0.00     0.116 N 
BRANCH  17  18
HETATM   18  C2  UNL     1       7.617  20.682  30.960  1.00  0.00     0.271 C 
HETATM   19  C1  UNL     1       6.634  19.538  30.824  1.00  0.00     0.037 C 
ENDBRANCH  17  18
BRANCH  17  20
HETATM   20  C3  UNL     1       8.920  22.263  29.805  1.00  0.00     0.440 C 
BRANCH  20  21
HETATM   21  O1  UNL     1      10.055  22.364  28.995  1.00  0.00    -0.367 OA
HETATM   22  C4  UNL     1       9.807  23.302  27.982  1.00  0.00     0.204 C 
ENDBRANCH  20  21
ENDBRANCH  17  20
ENDBRANCH  16  17
ENDBRANCH   1  16
BRANCH   8  23
HETATM   23  N3  UNL     1      11.961  15.910  24.236  1.00  0.00    -0.234 N 
ATOM     24  H32 UNL     1      12.955  15.690  24.300  1.00  0.00     0.174 HD
ATOM     25  H31 UNL     1      11.417  15.472  23.494  1.00  0.00     0.174 HD
ENDBRANCH   8  23
TORSDOF 6
ENDMDL
