MODEL 1
REMARK VINA RESULT: -6.603638135      0.000      0.000
REMARK  5 active torsions:
REMARK  status: ('A' for Active; 'I' for Inactive)
REMARK    1  A    between atoms: S1_2  and  N1_4 
REMARK    2  A    between atoms: N1_4  and  C2_6 
REMARK    3  A    between atoms: C2_6  and  C3_7 
REMARK    4  A    between atoms: N4_14  and  C6_16 
REMARK    5  A    between atoms: C6_16  and  C7_17 
ROOT
HETATM    1  C3  UNL     1      12.836  17.867  26.756  1.00  0.00     0.073 A 
HETATM    2  N2  UNL     1      13.610  18.736  27.377  1.00  0.00    -0.336 N 
ATOM      3  H2  UNL     1      13.320  19.711  27.447  1.00  0.00     0.168 HD
HETATM    4  C4  UNL     1      14.737  18.361  27.899  1.00  0.00     0.156 A 
HETATM    5  N3  UNL     1      15.777  18.931  28.593  1.00  0.00    -0.174 N 
ATOM      6  H3  UNL     1      15.841  19.915  28.856  1.00  0.00     0.186 HD
HETATM    7  C5  UNL     1      16.696  17.992  28.870  1.00  0.00     0.680 A 
HETATM    8  N4  UNL     1      17.802  18.246  29.527  1.00  0.00    -0.225 N 
ATOM      9  H4  UNL     1      17.986  19.195  29.849  1.00  0.00     0.177 HD
HETATM   10  N5  UNL     1      16.290  16.815  28.377  1.00  0.00    -0.182 N 
ATOM     11  H5  UNL     1      16.785  15.925  28.436  1.00  0.00     0.185 HD
HETATM   12  C8  UNL     1      15.089  17.043  27.781  1.00  0.00     0.136 A 
HETATM   13  S2  UNL     1      13.750  16.425  26.915  1.00  0.00    -0.053 SA
ENDROOT
BRANCH   1  14
HETATM   14  C2  UNL     1      11.504  18.081  26.087  1.00  0.00     0.194 C 
BRANCH  14  15
HETATM   15  N1  UNL     1      11.236  19.524  26.021  1.00  0.00    -0.335 N 
ATOM     16  H1  UNL     1      11.655  20.187  25.368  1.00  0.00     0.170 HD
BRANCH  15  17
HETATM   17  S1  UNL     1      10.080  19.892  27.251  1.00  0.00     0.106 S 
HETATM   18  C1  UNL     1       8.815  18.626  27.171  1.00  0.00     0.152 C 
HETATM   19  O1  UNL     1      10.854  19.786  28.736  1.00  0.00    -0.236 OA
ENDBRANCH  15  17
ENDBRANCH  14  15
ENDBRANCH   1  14
BRANCH   8  20
HETATM   20  C6  UNL     1      18.766  17.202  29.804  1.00  0.00     0.149 C 
BRANCH  20  21
HETATM   21  C7  UNL     1      18.628  16.859  31.274  1.00  0.00     0.105 C 
HETATM   22 BR1  UNL     1      20.098  17.692  32.202  1.00  0.00    -0.095 Br
ENDBRANCH  20  21
ENDBRANCH   8  20
TORSDOF 5
ENDMDL
MODEL 2
REMARK VINA RESULT: -6.596268964      1.406      1.406
REMARK  5 active torsions:
REMARK  status: ('A' for Active; 'I' for Inactive)
REMARK    1  A    between atoms: S1_2  and  N1_4 
REMARK    2  A    between atoms: N1_4  and  C2_6 
REMARK    3  A    between atoms: C2_6  and  C3_7 
REMARK    4  A    between atoms: N4_14  and  C6_16 
REMARK    5  A    between atoms: C6_16  and  C7_17 
ROOT
HETATM    1  C3  UNL     1      12.473  18.941  27.596  1.00  0.00     0.073 A 
HETATM    2  N2  UNL     1      13.539  19.612  27.989  1.00  0.00    -0.336 N 
ATOM      3  H2  UNL     1      13.490  20.626  28.084  1.00  0.00     0.168 HD
HETATM    4  C4  UNL     1      14.648  18.994  28.255  1.00  0.00     0.156 A 
HETATM    5  N3  UNL     1      15.917  19.314  28.670  1.00  0.00    -0.174 N 
ATOM      6  H3  UNL     1      16.251  20.256  28.872  1.00  0.00     0.186 HD
HETATM    7  C5  UNL     1      16.650  18.193  28.767  1.00  0.00     0.680 A 
HETATM    8  N4  UNL     1      17.906  18.190  29.144  1.00  0.00    -0.225 N 
ATOM      9  H4  UNL     1      18.360  19.073  29.377  1.00  0.00     0.177 HD
HETATM   10  N5  UNL     1      15.898  17.139  28.426  1.00  0.00    -0.182 N 
ATOM     11  H5  UNL     1      16.188  16.161  28.406  1.00  0.00     0.185 HD
HETATM   12  C8  UNL     1      14.670  17.632  28.112  1.00  0.00     0.136 A 
HETATM   13  S2  UNL     1      13.066  17.332  27.598  1.00  0.00    -0.053 SA
ENDROOT
BRANCH   1  14
HETATM   14  C2  UNL     1      11.102  19.449  27.240  1.00  0.00     0.194 C 
BRANCH  14  15
HETATM   15  N1  UNL     1      11.037  20.886  27.543  1.00  0.00    -0.335 N 
ATOM     16  H1  UNL     1      11.776  21.570  27.384  1.00  0.00     0.170 HD
BRANCH  15  17
HETATM   17  S1  UNL     1       9.479  21.201  28.219  1.00  0.00     0.106 S 
HETATM   18  C1  UNL     1       9.056  19.786  29.233  1.00  0.00     0.152 C 
HETATM   19  O1  UNL     1       9.607  22.552  29.207  1.00  0.00    -0.236 OA
ENDBRANCH  15  17
ENDBRANCH  14  15
ENDBRANCH   1  14
BRANCH   8  20
HETATM   20  C6  UNL     1      18.659  16.957  29.235  1.00  0.00     0.149 C 
BRANCH  20  21
HETATM   21  C7  UNL     1      18.632  16.536  30.691  1.00  0.00     0.105 C 
HETATM   22 BR1  UNL     1      19.809  17.718  31.658  1.00  0.00    -0.095 Br
ENDBRANCH  20  21
ENDBRANCH   8  20
TORSDOF 5
ENDMDL
MODEL 3
REMARK VINA RESULT: -6.530367208      5.201      5.822
REMARK  5 active torsions:
REMARK  status: ('A' for Active; 'I' for Inactive)
REMARK    1  A    between atoms: S1_2  and  N1_4 
REMARK    2  A    between atoms: N1_4  and  C2_6 
REMARK    3  A    between atoms: C2_6  and  C3_7 
REMARK    4  A    between atoms: N4_14  and  C6_16 
REMARK    5  A    between atoms: C6_16  and  C7_17 
ROOT
HETATM    1  C3  UNL     1      10.254  19.599  26.768  1.00  0.00     0.073 A 
HETATM    2  N2  UNL     1      11.513  19.214  26.672  1.00  0.00    -0.336 N 
ATOM      3  H2  UNL     1      12.248  19.784  27.092  1.00  0.00     0.168 HD
HETATM    4  C4  UNL     1      11.824  18.119  26.051  1.00  0.00     0.156 A 
HETATM    5  N3  UNL     1      12.960  17.409  25.746  1.00  0.00    -0.174 N 
ATOM      6  H3  UNL     1      13.909  17.675  26.007  1.00  0.00     0.186 HD
HETATM    7  C5  UNL     1      12.625  16.310  25.052  1.00  0.00     0.680 A 
HETATM    8  N4  UNL     1      13.506  15.438  24.624  1.00  0.00    -0.225 N 
ATOM      9  H4  UNL     1      14.495  15.588  24.822  1.00  0.00     0.177 HD
HETATM   10  N5  UNL     1      11.296  16.275  24.888  1.00  0.00    -0.182 N 
ATOM     11  H5  UNL     1      10.759  15.558  24.400  1.00  0.00     0.185 HD
HETATM   12  C8  UNL     1      10.806  17.386  25.501  1.00  0.00     0.136 A 
HETATM   13  S2  UNL     1       9.451  18.339  25.926  1.00  0.00    -0.053 SA
ENDROOT
BRANCH   1  14
HETATM   14  C2  UNL     1       9.676  20.817  27.435  1.00  0.00     0.194 C 
BRANCH  14  15
HETATM   15  N1  UNL     1       9.661  20.598  28.888  1.00  0.00    -0.335 N 
ATOM     16  H1  UNL     1      10.383  20.886  29.550  1.00  0.00     0.170 HD
BRANCH  15  17
HETATM   17  S1  UNL     1       8.198  19.763  29.270  1.00  0.00     0.106 S 
HETATM   18  C1  UNL     1       7.663  20.359  30.873  1.00  0.00     0.152 C 
HETATM   19  O1  UNL     1       7.046  20.188  28.126  1.00  0.00    -0.236 OA
ENDBRANCH  15  17
ENDBRANCH  14  15
ENDBRANCH   1  14
BRANCH   8  20
HETATM   20  C6  UNL     1      13.101  14.265  23.878  1.00  0.00     0.149 C 
BRANCH  20  21
HETATM   21  C7  UNL     1      13.550  13.060  24.681  1.00  0.00     0.105 C 
HETATM   22 BR1  UNL     1      14.640  11.969  23.524  1.00  0.00    -0.095 Br
ENDBRANCH  20  21
ENDBRANCH   8  20
TORSDOF 5
ENDMDL
MODEL 4
REMARK VINA RESULT: -6.492606016      1.581      1.586
REMARK  5 active torsions:
REMARK  status: ('A' for Active; 'I' for Inactive)
REMARK    1  A    between atoms: S1_2  and  N1_4 
REMARK    2  A    between atoms: N1_4  and  C2_6 
REMARK    3  A    between atoms: C2_6  and  C3_7 
REMARK    4  A    between atoms: N4_14  and  C6_16 
REMARK    5  A    between atoms: C6_16  and  C7_17 
ROOT
HETATM    1  C3  UNL     1      12.367  18.998  27.446  1.00  0.00     0.073 A 
HETATM    2  N2  UNL     1      13.403  19.663  27.922  1.00  0.00    -0.336 N 
ATOM      3  H2  UNL     1      13.335  20.670  28.065  1.00  0.00     0.168 HD
HETATM    4  C4  UNL     1      14.509  19.047  28.208  1.00  0.00     0.156 A 
HETATM    5  N3  UNL     1      15.752  19.362  28.698  1.00  0.00    -0.174 N 
ATOM      6  H3  UNL     1      16.062  20.297  28.963  1.00  0.00     0.186 HD
HETATM    7  C5  UNL     1      16.498  18.248  28.773  1.00  0.00     0.680 A 
HETATM    8  N4  UNL     1      17.735  18.243  29.208  1.00  0.00    -0.225 N 
ATOM      9  H4  UNL     1      18.164  19.118  29.506  1.00  0.00     0.177 HD
HETATM   10  N5  UNL     1      15.778  17.203  28.345  1.00  0.00    -0.182 N 
ATOM     11  H5  UNL     1      16.084  16.231  28.290  1.00  0.00     0.185 HD
HETATM   12  C8  UNL     1      14.558  17.694  27.998  1.00  0.00     0.136 A 
HETATM   13  S2  UNL     1      12.985  17.400  27.396  1.00  0.00    -0.053 SA
ENDROOT
BRANCH   1  14
HETATM   14  C2  UNL     1      11.006  19.506  27.052  1.00  0.00     0.194 C 
BRANCH  14  15
HETATM   15  N1  UNL     1      10.624  20.591  27.967  1.00  0.00    -0.335 N 
ATOM     16  H1  UNL     1      11.017  21.532  27.985  1.00  0.00     0.170 HD
BRANCH  15  17
HETATM   17  S1  UNL     1       9.386  19.979  29.006  1.00  0.00     0.106 S 
HETATM   18  C1  UNL     1       8.642  21.392  29.816  1.00  0.00     0.152 C 
HETATM   19  O1  UNL     1       8.226  19.236  28.046  1.00  0.00    -0.236 OA
ENDBRANCH  15  17
ENDBRANCH  14  15
ENDBRANCH   1  14
BRANCH   8  20
HETATM   20  C6  UNL     1      18.502  17.017  29.273  1.00  0.00     0.149 C 
BRANCH  20  21
HETATM   21  C7  UNL     1      18.536  16.599  30.729  1.00  0.00     0.105 C 
HETATM   22 BR1  UNL     1      19.794  17.747  31.631  1.00  0.00    -0.095 Br
ENDBRANCH  20  21
ENDBRANCH   8  20
TORSDOF 5
ENDMDL
MODEL 5
REMARK VINA RESULT: -6.434982136      4.390      7.214
REMARK  5 active torsions:
REMARK  status: ('A' for Active; 'I' for Inactive)
REMARK    1  A    between atoms: S1_2  and  N1_4 
REMARK    2  A    between atoms: N1_4  and  C2_6 
REMARK    3  A    between atoms: C2_6  and  C3_7 
REMARK    4  A    between atoms: N4_14  and  C6_16 
REMARK    5  A    between atoms: C6_16  and  C7_17 
ROOT
HETATM    1  C3  UNL     1      16.698  17.207  28.208  1.00  0.00     0.073 A 
HETATM    2  N2  UNL     1      16.175  18.401  28.410  1.00  0.00    -0.336 N 
ATOM      3  H2  UNL     1      16.768  19.162  28.742  1.00  0.00     0.168 HD
HETATM    4  C4  UNL     1      14.915  18.617  28.191  1.00  0.00     0.156 A 
HETATM    5  N3  UNL     1      14.032  19.665  28.276  1.00  0.00    -0.174 N 
ATOM      6  H3  UNL     1      14.267  20.611  28.578  1.00  0.00     0.186 HD
HETATM    7  C5  UNL     1      12.811  19.251  27.900  1.00  0.00     0.680 A 
HETATM    8  N4  UNL     1      11.764  20.039  27.879  1.00  0.00    -0.225 N 
ATOM      9  H4  UNL     1      11.865  21.014  28.159  1.00  0.00     0.177 HD
HETATM   10  N5  UNL     1      12.864  17.955  27.569  1.00  0.00    -0.182 N 
ATOM     11  H5  UNL     1      12.090  17.374  27.246  1.00  0.00     0.185 HD
HETATM   12  C8  UNL     1      14.155  17.567  27.748  1.00  0.00     0.136 A 
HETATM   13  S2  UNL     1      15.328  16.324  27.675  1.00  0.00    -0.053 SA
ENDROOT
BRANCH   1  14
HETATM   14  C2  UNL     1      18.117  16.741  28.395  1.00  0.00     0.194 C 
BRANCH  14  15
HETATM   15  N1  UNL     1      18.700  17.450  29.544  1.00  0.00    -0.335 N 
ATOM     16  H1  UNL     1      19.235  18.317  29.509  1.00  0.00     0.170 HD
BRANCH  15  17
HETATM   17  S1  UNL     1      18.309  16.544  30.962  1.00  0.00     0.106 S 
HETATM   18  C1  UNL     1      19.040  14.921  30.759  1.00  0.00     0.152 C 
HETATM   19  O1  UNL     1      19.034  17.300  32.274  1.00  0.00    -0.236 OA
ENDBRANCH  15  17
ENDBRANCH  14  15
ENDBRANCH   1  14
BRANCH   8  20
HETATM   20  C6  UNL     1      10.465  19.551  27.466  1.00  0.00     0.149 C 
BRANCH  20  21
HETATM   21  C7  UNL     1       9.552  19.665  28.671  1.00  0.00     0.105 C 
HETATM   22 BR1  UNL     1       7.841  18.931  28.172  1.00  0.00    -0.095 Br
ENDBRANCH  20  21
ENDBRANCH   8  20
TORSDOF 5
ENDMDL
