MODEL 1
REMARK VINA RESULT: -6.039069224      0.000      0.000
REMARK  6 active torsions:
REMARK  status: ('A' for Active; 'I' for Inactive)
REMARK    1  A    between atoms: S1_2  and  C2_3 
REMARK    2  A    between atoms: C3_4  and  O1_5 
REMARK    3  A    between atoms: C4_7  and  O2_8 
REMARK    4  A    between atoms: C5_10  and  C6_11 
REMARK    5  A    between atoms: C7_15  and  C8_16 
REMARK    6  A    between atoms: C8_16  and  C11_19 
ROOT
HETATM    1  C2  UNL     1      13.832  17.371  27.574  1.00  0.00     0.108 C 
HETATM    2  C3  UNL     1      13.210  18.548  28.232  1.00  0.00     0.166 C 
HETATM    3  C4  UNL     1      11.854  18.940  27.794  1.00  0.00     0.187 C 
HETATM    4  C5  UNL     1      11.661  18.565  26.339  1.00  0.00     0.253 C 
HETATM    5  O5  UNL     1      12.014  17.261  26.116  1.00  0.00    -0.365 OA
HETATM    6  C7  UNL     1      13.429  17.159  26.158  1.00  0.00     0.147 C 
ENDROOT
BRANCH   6   7
HETATM    7  C8  UNL     1      13.728  15.825  25.577  1.00  0.00    -0.011 C 
HETATM    8  C9  UNL     1      12.656  15.585  24.504  1.00  0.00     0.018 C 
HETATM    9  C10 UNL     1      13.505  14.760  26.630  1.00  0.00     0.018 C 
BRANCH   7  10
HETATM   10  C11 UNL     1      15.052  15.647  24.936  1.00  0.00     0.096 C 
HETATM   11 BR1  UNL     1      15.638  13.789  25.148  1.00  0.00    -0.096 Br
ENDBRANCH   7  10
ENDBRANCH   6   7
BRANCH   1  12
HETATM   12  S1  UNL     1      15.642  17.638  27.736  1.00  0.00    -0.163 SA
HETATM   13  C1  UNL     1      16.331  16.020  28.261  1.00  0.00     0.090 C 
ENDBRANCH   1  12
BRANCH   2  14
HETATM   14  O1  UNL     1      14.048  19.671  28.040  1.00  0.00    -0.392 OA
ATOM     15  H1  UNL     1      14.542  19.822  28.838  1.00  0.00     0.210 HD
ENDBRANCH   2  14
BRANCH   4  16
HETATM   16  C6  UNL     1      10.250  18.833  26.010  1.00  0.00     0.205 C 
HETATM   17  O3  UNL     1       9.400  17.943  26.199  1.00  0.00    -0.646 OA
HETATM   18  O4  UNL     1       9.873  20.051  25.501  1.00  0.00    -0.646 OA
ENDBRANCH   4  16
BRANCH   3  19
HETATM   19  O2  UNL     1      11.704  20.340  27.857  1.00  0.00    -0.390 OA
ATOM     20  H2  UNL     1      11.672  20.708  26.983  1.00  0.00     0.210 HD
ENDBRANCH   3  19
TORSDOF 6
ENDMDL
MODEL 2
REMARK VINA RESULT: -5.929539269      0.607      1.164
REMARK  6 active torsions:
REMARK  status: ('A' for Active; 'I' for Inactive)
REMARK    1  A    between atoms: S1_2  and  C2_3 
REMARK    2  A    between atoms: C3_4  and  O1_5 
REMARK    3  A    between atoms: C4_7  and  O2_8 
REMARK    4  A    between atoms: C5_10  and  C6_11 
REMARK    5  A    between atoms: C7_15  and  C8_16 
REMARK    6  A    between atoms: C8_16  and  C11_19 
ROOT
HETATM    1  C2  UNL     1      13.979  17.076  27.502  1.00  0.00     0.108 C 
HETATM    2  C3  UNL     1      13.477  18.293  28.190  1.00  0.00     0.166 C 
HETATM    3  C4  UNL     1      12.128  18.776  27.828  1.00  0.00     0.187 C 
HETATM    4  C5  UNL     1      11.829  18.416  26.388  1.00  0.00     0.253 C 
HETATM    5  O5  UNL     1      12.079  17.091  26.150  1.00  0.00    -0.365 OA
HETATM    6  C7  UNL     1      13.483  16.893  26.112  1.00  0.00     0.147 C 
ENDROOT
BRANCH   6   7
HETATM    7  C8  UNL     1      13.657  15.541  25.520  1.00  0.00    -0.011 C 
HETATM    8  C9  UNL     1      15.052  15.541  24.876  1.00  0.00     0.018 C 
HETATM    9  C10 UNL     1      12.676  15.364  24.381  1.00  0.00     0.018 C 
BRANCH   7  10
HETATM   10  C11 UNL     1      13.589  14.384  26.442  1.00  0.00     0.096 C 
HETATM   11 BR1  UNL     1      13.754  12.720  25.420  1.00  0.00    -0.096 Br
ENDBRANCH   7  10
ENDBRANCH   6   7
BRANCH   1  12
HETATM   12  S1  UNL     1      15.810  17.219  27.561  1.00  0.00    -0.163 SA
HETATM   13  C1  UNL     1      16.409  15.590  28.154  1.00  0.00     0.090 C 
ENDBRANCH   1  12
BRANCH   2  14
HETATM   14  O1  UNL     1      14.378  19.356  27.947  1.00  0.00    -0.392 OA
ATOM     15  H1  UNL     1      14.050  19.872  27.220  1.00  0.00     0.210 HD
ENDBRANCH   2  14
BRANCH   4  16
HETATM   16  C6  UNL     1      10.422  18.780  26.138  1.00  0.00     0.205 C 
HETATM   17  O3  UNL     1       9.523  17.969  26.426  1.00  0.00    -0.646 OA
HETATM   18  O4  UNL     1      10.105  19.999  25.593  1.00  0.00    -0.646 OA
ENDBRANCH   4  16
BRANCH   3  19
HETATM   19  O2  UNL     1      12.078  20.183  27.895  1.00  0.00    -0.390 OA
ATOM     20  H2  UNL     1      11.256  20.466  28.277  1.00  0.00     0.210 HD
ENDBRANCH   3  19
TORSDOF 6
ENDMDL
MODEL 3
REMARK VINA RESULT: -5.773579754      3.117      5.198
REMARK  6 active torsions:
REMARK  status: ('A' for Active; 'I' for Inactive)
REMARK    1  A    between atoms: S1_2  and  C2_3 
REMARK    2  A    between atoms: C3_4  and  O1_5 
REMARK    3  A    between atoms: C4_7  and  O2_8 
REMARK    4  A    between atoms: C5_10  and  C6_11 
REMARK    5  A    between atoms: C7_15  and  C8_16 
REMARK    6  A    between atoms: C8_16  and  C11_19 
ROOT
HETATM    1  C2  UNL     1      15.175  15.506  26.231  1.00  0.00     0.108 C 
HETATM    2  C3  UNL     1      14.369  16.520  26.957  1.00  0.00     0.166 C 
HETATM    3  C4  UNL     1      15.091  17.473  27.827  1.00  0.00     0.187 C 
HETATM    4  C5  UNL     1      16.342  16.817  28.371  1.00  0.00     0.253 C 
HETATM    5  O5  UNL     1      17.075  16.244  27.366  1.00  0.00    -0.365 OA
HETATM    6  C7  UNL     1      16.411  15.068  26.933  1.00  0.00     0.147 C 
ENDROOT
BRANCH   6   7
HETATM    7  C8  UNL     1      17.418  14.346  26.113  1.00  0.00    -0.011 C 
HETATM    8  C9  UNL     1      18.782  14.680  26.735  1.00  0.00     0.018 C 
HETATM    9  C10 UNL     1      17.443  14.936  24.719  1.00  0.00     0.018 C 
BRANCH   7  10
HETATM   10  C11 UNL     1      17.305  12.871  26.045  1.00  0.00     0.096 C 
HETATM   11 BR1  UNL     1      17.099  12.313  24.178  1.00  0.00    -0.096 Br
ENDBRANCH   7  10
ENDBRANCH   6   7
BRANCH   1  12
HETATM   12  S1  UNL     1      14.023  14.106  25.936  1.00  0.00    -0.163 SA
HETATM   13  C1  UNL     1      13.601  14.186  24.152  1.00  0.00     0.090 C 
ENDBRANCH   1  12
BRANCH   2  14
HETATM   14  O1  UNL     1      13.424  15.851  27.769  1.00  0.00    -0.392 OA
ATOM     15  H1  UNL     1      13.890  15.342  28.422  1.00  0.00     0.210 HD
ENDBRANCH   2  14
BRANCH   4  16
HETATM   16  C6  UNL     1      17.093  17.859  29.094  1.00  0.00     0.205 C 
HETATM   17  O3  UNL     1      16.983  19.047  28.738  1.00  0.00    -0.646 OA
HETATM   18  O4  UNL     1      17.905  17.526  30.149  1.00  0.00    -0.646 OA
ENDBRANCH   4  16
BRANCH   3  19
HETATM   19  O2  UNL     1      14.305  17.802  28.950  1.00  0.00    -0.390 OA
ATOM     20  H2  UNL     1      14.857  18.107  29.660  1.00  0.00     0.210 HD
ENDBRANCH   3  19
TORSDOF 6
ENDMDL
MODEL 4
REMARK VINA RESULT: -5.700460190      2.274      4.487
REMARK  6 active torsions:
REMARK  status: ('A' for Active; 'I' for Inactive)
REMARK    1  A    between atoms: S1_2  and  C2_3 
REMARK    2  A    between atoms: C3_4  and  O1_5 
REMARK    3  A    between atoms: C4_7  and  O2_8 
REMARK    4  A    between atoms: C5_10  and  C6_11 
REMARK    5  A    between atoms: C7_15  and  C8_16 
REMARK    6  A    between atoms: C8_16  and  C11_19 
ROOT
HETATM    1  C2  UNL     1      13.876  16.886  26.182  1.00  0.00     0.108 C 
HETATM    2  C3  UNL     1      13.686  18.195  26.858  1.00  0.00     0.166 C 
HETATM    3  C4  UNL     1      14.751  18.653  27.776  1.00  0.00     0.187 C 
HETATM    4  C5  UNL     1      15.437  17.454  28.397  1.00  0.00     0.253 C 
HETATM    5  O5  UNL     1      15.813  16.551  27.439  1.00  0.00    -0.365 OA
HETATM    6  C7  UNL     1      14.654  15.886  26.961  1.00  0.00     0.147 C 
ENDROOT
BRANCH   6   7
HETATM    7  C8  UNL     1      15.175  14.718  26.205  1.00  0.00    -0.011 C 
HETATM    8  C9  UNL     1      16.424  14.248  26.966  1.00  0.00     0.018 C 
HETATM    9  C10 UNL     1      15.665  15.178  24.849  1.00  0.00     0.018 C 
BRANCH   7  10
HETATM   10  C11 UNL     1      14.275  13.550  26.058  1.00  0.00     0.096 C 
HETATM   11 BR1  UNL     1      14.458  12.803  24.255  1.00  0.00    -0.096 Br
ENDBRANCH   7  10
ENDBRANCH   6   7
BRANCH   1  12
HETATM   12  S1  UNL     1      12.178  16.292  25.810  1.00  0.00    -0.163 SA
HETATM   13  C1  UNL     1      12.186  15.874  24.023  1.00  0.00     0.090 C 
ENDBRANCH   1  12
BRANCH   2  14
HETATM   14  O1  UNL     1      12.486  18.148  27.606  1.00  0.00    -0.392 OA
ATOM     15  H1  UNL     1      12.024  18.970  27.492  1.00  0.00     0.210 HD
ENDBRANCH   2  14
BRANCH   4  16
HETATM   16  C6  UNL     1      16.582  17.968  29.170  1.00  0.00     0.205 C 
HETATM   17  O3  UNL     1      17.107  19.047  28.836  1.00  0.00    -0.646 OA
HETATM   18  O4  UNL     1      17.067  17.267  30.245  1.00  0.00    -0.646 OA
ENDBRANCH   4  16
BRANCH   3  19
HETATM   19  O2  UNL     1      14.195  19.380  28.847  1.00  0.00    -0.390 OA
ATOM     20  H2  UNL     1      14.719  19.266  29.630  1.00  0.00     0.210 HD
ENDBRANCH   3  19
TORSDOF 6
ENDMDL
MODEL 5
REMARK VINA RESULT: -5.683707929      4.071      6.451
REMARK  6 active torsions:
REMARK  status: ('A' for Active; 'I' for Inactive)
REMARK    1  A    between atoms: S1_2  and  C2_3 
REMARK    2  A    between atoms: C3_4  and  O1_5 
REMARK    3  A    between atoms: C4_7  and  O2_8 
REMARK    4  A    between atoms: C5_10  and  C6_11 
REMARK    5  A    between atoms: C7_15  and  C8_16 
REMARK    6  A    between atoms: C8_16  and  C11_19 
ROOT
HETATM    1  C2  UNL     1       8.899  18.305  26.328  1.00  0.00     0.108 C 
HETATM    2  C3  UNL     1       9.920  17.533  25.574  1.00  0.00     0.166 C 
HETATM    3  C4  UNL     1      11.250  17.367  26.196  1.00  0.00     0.187 C 
HETATM    4  C5  UNL     1      11.551  18.560  27.078  1.00  0.00     0.253 C 
HETATM    5  O5  UNL     1      10.513  18.815  27.933  1.00  0.00    -0.365 OA
HETATM    6  C7  UNL     1       9.444  19.384  27.194  1.00  0.00     0.147 C 
ENDROOT
BRANCH   6   7
HETATM    7  C8  UNL     1       8.525  19.934  28.224  1.00  0.00    -0.011 C 
HETATM    8  C9  UNL     1       7.829  21.135  27.567  1.00  0.00     0.018 C 
HETATM    9  C10 UNL     1       9.337  20.502  29.368  1.00  0.00     0.018 C 
BRANCH   7  10
HETATM   10  C11 UNL     1       7.469  19.032  28.741  1.00  0.00     0.096 C 
HETATM   11 BR1  UNL     1       6.993  19.557  30.567  1.00  0.00    -0.096 Br
ENDBRANCH   7  10
ENDBRANCH   6   7
BRANCH   1  12
HETATM   12  S1  UNL     1       7.761  18.967  25.046  1.00  0.00    -0.163 SA
HETATM   13  C1  UNL     1       6.987  17.495  24.271  1.00  0.00     0.090 C 
ENDBRANCH   1  12
BRANCH   2  14
HETATM   14  O1  UNL     1      10.123  18.155  24.320  1.00  0.00    -0.392 OA
ATOM     15  H1  UNL     1       9.571  18.927  24.270  1.00  0.00     0.210 HD
ENDBRANCH   2  14
BRANCH   4  16
HETATM   16  C6  UNL     1      12.808  18.262  27.788  1.00  0.00     0.205 C 
HETATM   17  O3  UNL     1      13.182  17.079  27.895  1.00  0.00    -0.646 OA
HETATM   18  O4  UNL     1      13.560  19.275  28.328  1.00  0.00    -0.646 OA
ENDBRANCH   4  16
BRANCH   3  19
HETATM   19  O2  UNL     1      12.254  17.351  25.208  1.00  0.00    -0.390 OA
ATOM     20  H2  UNL     1      13.084  17.084  25.585  1.00  0.00     0.210 HD
ENDBRANCH   3  19
TORSDOF 6
ENDMDL
