MODEL 1
REMARK VINA RESULT: -8.591257410      0.000      0.000
REMARK  5 active torsions:
REMARK  status: ('A' for Active; 'I' for Inactive)
REMARK    1  A    between atoms: C2_2  and  C3_3 
REMARK       I    between atoms: N2_6  and  C4_7 
REMARK       I    between atoms: C4_7  and  N5_12 
REMARK    2  A    between atoms: N5_12  and  C6_14 
REMARK    3  A    between atoms: C6_14  and  C7_15 
REMARK    4  A    between atoms: C7_15  and  C8_16 
REMARK    5  A    between atoms: C8_16  and  N6_17 
REMARK       I    between atoms: N6_17  and  C9_19 
REMARK       I    between atoms: C9_19  and  N8_23 
ROOT
HETATM    1  C3  UNL     1       8.069  19.023  28.654  1.00  0.00     0.007 C 
HETATM    2  N1  UNL     1       8.010  18.509  27.476  1.00  0.00    -0.290 N 
ATOM      3  H1  UNL     1       7.184  18.059  27.082  1.00  0.00     0.187 HD
HETATM    4  N2  UNL     1       9.233  18.649  26.806  1.00  0.00    -0.098 N 
HETATM    5  C4  UNL     1       9.646  17.813  25.757  1.00  0.00     0.705 C 
HETATM    6  N3  UNL     1       9.178  17.940  24.589  1.00  0.00    -0.125 N 
ATOM      7  H3  UNL     1       9.495  17.319  23.844  1.00  0.00     0.197 HD
HETATM    8  C5  UNL     1       8.230  18.926  24.314  1.00  0.00     0.196 C 
HETATM    9  N4  UNL     1       7.424  19.746  24.064  1.00  0.00    -0.171 NA
HETATM   10  N5  UNL     1      10.600  16.804  26.016  1.00  0.00    -0.224 N 
ATOM     11  H5  UNL     1      10.436  16.188  26.812  1.00  0.00     0.177 HD
HETATM   12  C12 UNL     1       9.888  19.777  27.443  1.00  0.00     0.148 C 
HETATM   13  C13 UNL     1       9.371  21.111  27.001  1.00  0.00     0.060 C 
HETATM   14 CL1  UNL     1      11.643  19.734  27.295  1.00  0.00    -0.093 Cl
HETATM   15  C14 UNL     1       9.420  19.590  28.884  1.00  0.00     0.104 C 
ENDROOT
BRANCH  10  16
HETATM   16  C6  UNL     1      11.784  16.585  25.237  1.00  0.00     0.139 C 
BRANCH  16  17
HETATM   17  C7  UNL     1      12.942  17.259  25.930  1.00  0.00     0.040 C 
BRANCH  17  18
HETATM   18  C8  UNL     1      13.643  16.224  26.778  1.00  0.00     0.139 C 
BRANCH  18  19
HETATM   19  N6  UNL     1      14.355  16.821  27.893  1.00  0.00    -0.226 N 
HETATM   20  C9  UNL     1      15.781  16.788  27.907  1.00  0.00     0.682 C 
HETATM   21  N7  UNL     1      16.443  15.885  27.297  1.00  0.00    -0.230 N 
HETATM   22  N8  UNL     1      16.446  17.809  28.631  1.00  0.00    -0.126 N 
HETATM   23  C10 UNL     1      17.874  15.863  27.318  1.00  0.00     0.165 C 
ATOM     24  H7  UNL     1      15.941  15.162  26.782  1.00  0.00     0.177 HD
HETATM   25  C11 UNL     1      17.284  17.513  29.698  1.00  0.00     0.196 C 
ATOM     26  H8  UNL     1      16.306  18.783  28.363  1.00  0.00     0.197 HD
HETATM   27  N9  UNL     1      17.984  17.261  30.602  1.00  0.00    -0.171 NA
ATOM     28  H6  UNL     1      13.841  17.259  28.658  1.00  0.00     0.177 HD
ENDBRANCH  18  19
ENDBRANCH  17  18
ENDBRANCH  16  17
ENDBRANCH  10  16
BRANCH   1  29
HETATM   29  C2  UNL     1       6.953  19.046  29.627  1.00  0.00     0.049 C 
HETATM   30  C1  UNL     1       7.246  20.029  30.740  1.00  0.00     0.011 C 
ENDBRANCH   1  29
TORSDOF 5
ENDMDL
MODEL 2
REMARK VINA RESULT: -8.397748070      2.475      3.596
REMARK  5 active torsions:
REMARK  status: ('A' for Active; 'I' for Inactive)
REMARK    1  A    between atoms: C2_2  and  C3_3 
REMARK       I    between atoms: N2_6  and  C4_7 
REMARK       I    between atoms: C4_7  and  N5_12 
REMARK    2  A    between atoms: N5_12  and  C6_14 
REMARK    3  A    between atoms: C6_14  and  C7_15 
REMARK    4  A    between atoms: C7_15  and  C8_16 
REMARK    5  A    between atoms: C8_16  and  N6_17 
REMARK       I    between atoms: N6_17  and  C9_19 
REMARK       I    between atoms: C9_19  and  N8_23 
ROOT
HETATM    1  C3  UNL     1       8.051  19.040  28.640  1.00  0.00     0.007 C 
HETATM    2  N1  UNL     1       7.972  18.535  27.459  1.00  0.00    -0.290 N 
ATOM      3  H1  UNL     1       7.138  18.092  27.074  1.00  0.00     0.187 HD
HETATM    4  N2  UNL     1       9.185  18.675  26.771  1.00  0.00    -0.098 N 
HETATM    5  C4  UNL     1       9.578  17.845  25.710  1.00  0.00     0.705 C 
HETATM    6  N3  UNL     1       9.093  17.982  24.550  1.00  0.00    -0.125 N 
ATOM      7  H3  UNL     1       9.397  17.366  23.796  1.00  0.00     0.197 HD
HETATM    8  C5  UNL     1       8.146  18.974  24.297  1.00  0.00     0.196 C 
HETATM    9  N4  UNL     1       7.340  19.799  24.065  1.00  0.00    -0.171 NA
HETATM   10  N5  UNL     1      10.532  16.829  25.947  1.00  0.00    -0.224 N 
ATOM     11  H5  UNL     1      10.377  16.209  26.741  1.00  0.00     0.177 HD
HETATM   12  C12 UNL     1       9.854  19.796  27.406  1.00  0.00     0.148 C 
HETATM   13  C13 UNL     1       9.337  21.134  26.981  1.00  0.00     0.060 C 
HETATM   14 CL1  UNL     1      11.607  19.746  27.231  1.00  0.00    -0.093 Cl
HETATM   15  C14 UNL     1       9.407  19.600  28.852  1.00  0.00     0.104 C 
ENDROOT
BRANCH  10  16
HETATM   16  C6  UNL     1      11.703  16.612  25.149  1.00  0.00     0.139 C 
BRANCH  16  17
HETATM   17  C7  UNL     1      12.887  17.213  25.864  1.00  0.00     0.040 C 
BRANCH  17  18
HETATM   18  C8  UNL     1      13.775  16.081  26.326  1.00  0.00     0.139 C 
BRANCH  18  19
HETATM   19  N6  UNL     1      14.232  15.257  25.222  1.00  0.00    -0.226 N 
HETATM   20  C9  UNL     1      13.792  13.902  25.137  1.00  0.00     0.682 C 
HETATM   21  N7  UNL     1      13.445  13.237  26.168  1.00  0.00    -0.230 N 
HETATM   22  N8  UNL     1      13.754  13.314  23.848  1.00  0.00    -0.126 N 
HETATM   23  C10 UNL     1      13.006  11.878  26.069  1.00  0.00     0.165 C 
ATOM     24  H7  UNL     1      13.481  13.683  27.084  1.00  0.00     0.177 HD
HETATM   25  C11 UNL     1      14.508  12.189  23.542  1.00  0.00     0.196 C 
ATOM     26  H8  UNL     1      13.159  13.725  23.129  1.00  0.00     0.197 HD
HETATM   27  N9  UNL     1      15.151  11.245  23.284  1.00  0.00    -0.171 NA
ATOM     28  H6  UNL     1      14.859  15.642  24.516  1.00  0.00     0.177 HD
ENDBRANCH  18  19
ENDBRANCH  17  18
ENDBRANCH  16  17
ENDBRANCH  10  16
BRANCH   1  29
HETATM   29  C2  UNL     1       6.950  19.061  29.629  1.00  0.00     0.049 C 
HETATM   30  C1  UNL     1       7.278  20.011  30.761  1.00  0.00     0.011 C 
ENDBRANCH   1  29
TORSDOF 5
ENDMDL
MODEL 3
REMARK VINA RESULT: -8.316924179      2.360      3.376
REMARK  5 active torsions:
REMARK  status: ('A' for Active; 'I' for Inactive)
REMARK    1  A    between atoms: C2_2  and  C3_3 
REMARK       I    between atoms: N2_6  and  C4_7 
REMARK       I    between atoms: C4_7  and  N5_12 
REMARK    2  A    between atoms: N5_12  and  C6_14 
REMARK    3  A    between atoms: C6_14  and  C7_15 
REMARK    4  A    between atoms: C7_15  and  C8_16 
REMARK    5  A    between atoms: C8_16  and  N6_17 
REMARK       I    between atoms: N6_17  and  C9_19 
REMARK       I    between atoms: C9_19  and  N8_23 
ROOT
HETATM    1  C3  UNL     1       8.154  19.067  28.643  1.00  0.00     0.007 C 
HETATM    2  N1  UNL     1       8.050  18.549  27.470  1.00  0.00    -0.290 N 
ATOM      3  H1  UNL     1       7.202  18.118  27.101  1.00  0.00     0.187 HD
HETATM    4  N2  UNL     1       9.257  18.655  26.765  1.00  0.00    -0.098 N 
HETATM    5  C4  UNL     1       9.619  17.804  25.709  1.00  0.00     0.705 C 
HETATM    6  N3  UNL     1       9.122  17.936  24.554  1.00  0.00    -0.125 N 
ATOM      7  H3  UNL     1       9.403  17.304  23.804  1.00  0.00     0.197 HD
HETATM    8  C5  UNL     1       8.192  18.944  24.300  1.00  0.00     0.196 C 
HETATM    9  N4  UNL     1       7.400  19.783  24.068  1.00  0.00    -0.171 NA
HETATM   10  N5  UNL     1      10.555  16.772  25.948  1.00  0.00    -0.224 N 
ATOM     11  H5  UNL     1      10.398  16.165  26.752  1.00  0.00     0.177 HD
HETATM   12  C12 UNL     1       9.957  19.770  27.377  1.00  0.00     0.148 C 
HETATM   13  C13 UNL     1       9.462  21.114  26.941  1.00  0.00     0.060 C 
HETATM   14 CL1  UNL     1      11.706  19.682  27.180  1.00  0.00    -0.093 Cl
HETATM   15  C14 UNL     1       9.525  19.602  28.831  1.00  0.00     0.104 C 
ENDROOT
BRANCH  10  16
HETATM   16  C6  UNL     1      11.711  16.520  25.138  1.00  0.00     0.139 C 
BRANCH  16  17
HETATM   17  C7  UNL     1      12.941  16.866  25.939  1.00  0.00     0.040 C 
BRANCH  17  18
HETATM   18  C8  UNL     1      13.421  15.607  26.622  1.00  0.00     0.139 C 
BRANCH  18  19
HETATM   19  N6  UNL     1      13.292  14.439  25.770  1.00  0.00    -0.226 N 
HETATM   20  C9  UNL     1      14.461  13.697  25.425  1.00  0.00     0.682 C 
HETATM   21  N7  UNL     1      15.618  14.232  25.395  1.00  0.00    -0.230 N 
HETATM   22  N8  UNL     1      14.288  12.326  25.111  1.00  0.00    -0.126 N 
HETATM   23  C10 UNL     1      16.783  13.476  25.047  1.00  0.00     0.165 C 
ATOM     24  H7  UNL     1      15.716  15.220  25.625  1.00  0.00     0.177 HD
HETATM   25  C11 UNL     1      14.640  11.815  23.869  1.00  0.00     0.196 C 
ATOM     26  H8  UNL     1      13.897  11.699  25.815  1.00  0.00     0.197 HD
HETATM   27  N9  UNL     1      14.931  11.389  22.818  1.00  0.00    -0.171 NA
ATOM     28  H6  UNL     1      12.377  14.153  25.422  1.00  0.00     0.177 HD
ENDBRANCH  18  19
ENDBRANCH  17  18
ENDBRANCH  16  17
ENDBRANCH  10  16
BRANCH   1  29
HETATM   29  C2  UNL     1       7.067  19.123  29.646  1.00  0.00     0.049 C 
HETATM   30  C1  UNL     1       7.433  20.075  30.765  1.00  0.00     0.011 C 
ENDBRANCH   1  29
TORSDOF 5
ENDMDL
MODEL 4
REMARK VINA RESULT: -8.232437108      2.196      2.770
REMARK  5 active torsions:
REMARK  status: ('A' for Active; 'I' for Inactive)
REMARK    1  A    between atoms: C2_2  and  C3_3 
REMARK       I    between atoms: N2_6  and  C4_7 
REMARK       I    between atoms: C4_7  and  N5_12 
REMARK    2  A    between atoms: N5_12  and  C6_14 
REMARK    3  A    between atoms: C6_14  and  C7_15 
REMARK    4  A    between atoms: C7_15  and  C8_16 
REMARK    5  A    between atoms: C8_16  and  N6_17 
REMARK       I    between atoms: N6_17  and  C9_19 
REMARK       I    between atoms: C9_19  and  N8_23 
ROOT
HETATM    1  C3  UNL     1       7.996  19.048  28.688  1.00  0.00     0.007 C 
HETATM    2  N1  UNL     1       7.898  18.502  27.527  1.00  0.00    -0.290 N 
ATOM      3  H1  UNL     1       7.070  18.015  27.185  1.00  0.00     0.187 HD
HETATM    4  N2  UNL     1       9.083  18.664  26.795  1.00  0.00    -0.098 N 
HETATM    5  C4  UNL     1       9.473  17.814  25.748  1.00  0.00     0.705 C 
HETATM    6  N3  UNL     1       8.946  17.895  24.601  1.00  0.00    -0.125 N 
ATOM      7  H3  UNL     1       9.248  17.266  23.857  1.00  0.00     0.197 HD
HETATM    8  C5  UNL     1       7.953  18.842  24.348  1.00  0.00     0.196 C 
HETATM    9  N4  UNL     1       7.109  19.629  24.117  1.00  0.00    -0.171 NA
HETATM   10  N5  UNL     1      10.472  16.843  25.985  1.00  0.00    -0.224 N 
ATOM     11  H5  UNL     1      10.366  16.244  26.803  1.00  0.00     0.177 HD
HETATM   12  C12 UNL     1       9.729  19.829  27.371  1.00  0.00     0.148 C 
HETATM   13  C13 UNL     1       9.147  21.133  26.922  1.00  0.00     0.060 C 
HETATM   14 CL1  UNL     1      11.476  19.839  27.139  1.00  0.00    -0.093 Cl
HETATM   15  C14 UNL     1       9.337  19.664  28.837  1.00  0.00     0.104 C 
ENDROOT
BRANCH  10  16
HETATM   16  C6  UNL     1      11.624  16.643  25.156  1.00  0.00     0.139 C 
BRANCH  16  17
HETATM   17  C7  UNL     1      12.846  17.084  25.921  1.00  0.00     0.040 C 
BRANCH  17  18
HETATM   18  C8  UNL     1      14.049  16.408  25.305  1.00  0.00     0.139 C 
BRANCH  18  19
HETATM   19  N6  UNL     1      14.697  15.495  26.229  1.00  0.00    -0.226 N 
HETATM   20  C9  UNL     1      14.526  14.089  26.052  1.00  0.00     0.682 C 
HETATM   21  N7  UNL     1      13.500  13.599  25.477  1.00  0.00    -0.230 N 
HETATM   22  N8  UNL     1      15.553  13.245  26.546  1.00  0.00    -0.126 N 
HETATM   23  C10 UNL     1      13.341  12.186  25.305  1.00  0.00     0.165 C 
ATOM     24  H7  UNL     1      12.776  14.227  25.130  1.00  0.00     0.177 HD
HETATM   25  C11 UNL     1      15.299  12.287  27.517  1.00  0.00     0.196 C 
ATOM     26  H8  UNL     1      16.500  13.344  26.179  1.00  0.00     0.197 HD
HETATM   27  N9  UNL     1      15.084  11.484  28.342  1.00  0.00    -0.171 NA
ATOM     28  H6  UNL     1      15.266  15.854  26.996  1.00  0.00     0.177 HD
ENDBRANCH  18  19
ENDBRANCH  17  18
ENDBRANCH  16  17
ENDBRANCH  10  16
BRANCH   1  29
HETATM   29  C2  UNL     1       6.928  19.061  29.713  1.00  0.00     0.049 C 
HETATM   30  C1  UNL     1       7.255  20.061  30.801  1.00  0.00     0.011 C 
ENDBRANCH   1  29
TORSDOF 5
ENDMDL
MODEL 5
REMARK VINA RESULT: -8.189683236      2.010      2.473
REMARK  5 active torsions:
REMARK  status: ('A' for Active; 'I' for Inactive)
REMARK    1  A    between atoms: C2_2  and  C3_3 
REMARK       I    between atoms: N2_6  and  C4_7 
REMARK       I    between atoms: C4_7  and  N5_12 
REMARK    2  A    between atoms: N5_12  and  C6_14 
REMARK    3  A    between atoms: C6_14  and  C7_15 
REMARK    4  A    between atoms: C7_15  and  C8_16 
REMARK    5  A    between atoms: C8_16  and  N6_17 
REMARK       I    between atoms: N6_17  and  C9_19 
REMARK       I    between atoms: C9_19  and  N8_23 
ROOT
HETATM    1  C3  UNL     1       7.992  19.018  28.659  1.00  0.00     0.007 C 
HETATM    2  N1  UNL     1       7.945  18.512  27.477  1.00  0.00    -0.290 N 
ATOM      3  H1  UNL     1       7.120  18.075  27.067  1.00  0.00     0.187 HD
HETATM    4  N2  UNL     1       9.180  18.642  26.827  1.00  0.00    -0.098 N 
HETATM    5  C4  UNL     1       9.599  17.807  25.778  1.00  0.00     0.705 C 
HETATM    6  N3  UNL     1       9.150  17.948  24.604  1.00  0.00    -0.125 N 
ATOM      7  H3  UNL     1       9.472  17.328  23.860  1.00  0.00     0.197 HD
HETATM    8  C5  UNL     1       8.219  18.947  24.321  1.00  0.00     0.196 C 
HETATM    9  N4  UNL     1       7.427  19.778  24.064  1.00  0.00    -0.171 NA
HETATM   10  N5  UNL     1      10.537  16.785  26.045  1.00  0.00    -0.224 N 
ATOM     11  H5  UNL     1      10.352  16.166  26.835  1.00  0.00     0.177 HD
HETATM   12  C12 UNL     1       9.838  19.758  27.480  1.00  0.00     0.148 C 
HETATM   13  C13 UNL     1       9.345  21.100  27.039  1.00  0.00     0.060 C 
HETATM   14 CL1  UNL     1      11.595  19.694  27.359  1.00  0.00    -0.093 Cl
HETATM   15  C14 UNL     1       9.346  19.567  28.913  1.00  0.00     0.104 C 
ENDROOT
BRANCH  10  16
HETATM   16  C6  UNL     1      11.729  16.557  25.284  1.00  0.00     0.139 C 
BRANCH  16  17
HETATM   17  C7  UNL     1      12.787  17.525  25.751  1.00  0.00     0.040 C 
BRANCH  17  18
HETATM   18  C8  UNL     1      14.006  16.726  26.150  1.00  0.00     0.139 C 
BRANCH  18  19
HETATM   19  N6  UNL     1      13.671  15.615  27.022  1.00  0.00    -0.226 N 
HETATM   20  C9  UNL     1      14.535  14.480  27.066  1.00  0.00     0.682 C 
HETATM   21  N7  UNL     1      15.280  14.157  26.083  1.00  0.00    -0.230 N 
HETATM   22  N8  UNL     1      14.536  13.714  28.259  1.00  0.00    -0.126 N 
HETATM   23  C10 UNL     1      16.142  13.016  26.141  1.00  0.00     0.165 C 
ATOM     24  H7  UNL     1      15.261  14.725  25.237  1.00  0.00     0.177 HD
HETATM   25  C11 UNL     1      14.183  12.371  28.258  1.00  0.00     0.196 C 
ATOM     26  H8  UNL     1      14.803  14.158  29.137  1.00  0.00     0.197 HD
HETATM   27  N9  UNL     1      13.878  11.241  28.256  1.00  0.00    -0.171 NA
ATOM     28  H6  UNL     1      12.828  15.646  27.596  1.00  0.00     0.177 HD
ENDBRANCH  18  19
ENDBRANCH  17  18
ENDBRANCH  16  17
ENDBRANCH  10  16
BRANCH   1  29
HETATM   29  C2  UNL     1       6.862  19.049  29.615  1.00  0.00     0.049 C 
HETATM   30  C1  UNL     1       7.179  19.967  30.776  1.00  0.00     0.011 C 
ENDBRANCH   1  29
TORSDOF 5
ENDMDL
