MODEL 1
REMARK VINA RESULT: -4.716701102      0.000      0.000
REMARK  1 active torsions:
REMARK  status: ('A' for Active; 'I' for Inactive)
REMARK    1  A    between atoms: C2_2  and  C5_5 
ROOT
HETATM    1  C5  UNL     1      25.179 -12.144   6.240  1.00  0.00     0.098 C 
HETATM    2  C6  UNL     1      25.441 -12.179   4.758  1.00  0.00     0.020 C 
HETATM    3  C7  UNL     1      24.278 -11.193   4.361  1.00  0.00     0.027 C 
HETATM    4  C8  UNL     1      24.026 -10.351   5.694  1.00  0.00     0.126 C 
HETATM    5  N1  UNL     1      25.294 -10.667   6.200  1.00  0.00    -0.356 N 
HETATM    6  C9  UNL     1      26.527 -10.102   6.442  1.00  0.00     0.136 C 
HETATM    7  N2  UNL     1      26.851  -9.212   7.226  1.00  0.00    -0.380 N 
ATOM      8  H21 UNL     1      27.763  -8.794   7.405  1.00  0.00     0.158 HD
ATOM      9  H22 UNL     1      26.118  -8.824   7.821  1.00  0.00     0.158 HD
HETATM   10  S1  UNL     1      27.882 -10.819   5.342  1.00  0.00    -0.094 SA
HETATM   11  C10 UNL     1      26.724 -11.743   4.223  1.00  0.00     0.089 C 
ENDROOT
BRANCH   1  12
HETATM   12  C2  UNL     1      25.749 -12.937   7.228  1.00  0.00    -0.030 C 
HETATM   13  C1  UNL     1      24.825 -14.168   7.448  1.00  0.00     0.016 C 
HETATM   14  C3  UNL     1      25.546 -12.205   8.601  1.00  0.00     0.016 C 
HETATM   15  C4  UNL     1      27.110 -13.473   7.333  1.00  0.00     0.016 C 
ENDBRANCH   1  12
TORSDOF 1
ENDMDL
MODEL 2
REMARK VINA RESULT: -4.425753414      4.947      7.032
REMARK  1 active torsions:
REMARK  status: ('A' for Active; 'I' for Inactive)
REMARK    1  A    between atoms: C2_2  and  C5_5 
ROOT
HETATM    1  C5  UNL     1      22.102  -8.474   3.388  1.00  0.00     0.098 C 
HETATM    2  C6  UNL     1      22.297  -9.479   2.285  1.00  0.00     0.020 C 
HETATM    3  C7  UNL     1      23.115 -10.515   3.146  1.00  0.00     0.027 C 
HETATM    4  C8  UNL     1      22.678 -10.185   4.646  1.00  0.00     0.126 C 
HETATM    5  N1  UNL     1      21.506  -9.543   4.223  1.00  0.00    -0.356 N 
HETATM    6  C9  UNL     1      20.139  -9.714   4.187  1.00  0.00     0.136 C 
HETATM    7  N2  UNL     1      19.324  -9.777   5.105  1.00  0.00    -0.380 N 
ATOM      8  H21 UNL     1      18.313  -9.903   5.079  1.00  0.00     0.158 HD
ATOM      9  H22 UNL     1      19.681  -9.669   6.055  1.00  0.00     0.158 HD
HETATM   10  S1  UNL     1      19.480  -9.914   2.431  1.00  0.00    -0.094 SA
HETATM   11  C10 UNL     1      21.149 -10.103   1.640  1.00  0.00     0.089 C 
ENDROOT
BRANCH   1  12
HETATM   12  C2  UNL     1      21.583  -7.188   3.292  1.00  0.00    -0.030 C 
HETATM   13  C1  UNL     1      21.629  -6.761   1.798  1.00  0.00     0.016 C 
HETATM   14  C3  UNL     1      22.650  -6.201   3.883  1.00  0.00     0.016 C 
HETATM   15  C4  UNL     1      20.315  -6.648   3.793  1.00  0.00     0.016 C 
ENDBRANCH   1  12
TORSDOF 1
ENDMDL
MODEL 3
REMARK VINA RESULT: -4.400388037      4.895      7.034
REMARK  1 active torsions:
REMARK  status: ('A' for Active; 'I' for Inactive)
REMARK    1  A    between atoms: C2_2  and  C5_5 
ROOT
HETATM    1  C5  UNL     1      21.864  -8.325   3.938  1.00  0.00     0.098 C 
HETATM    2  C6  UNL     1      22.850  -9.408   3.593  1.00  0.00     0.020 C 
HETATM    3  C7  UNL     1      22.642 -10.249   4.909  1.00  0.00     0.027 C 
HETATM    4  C8  UNL     1      21.185  -9.821   5.402  1.00  0.00     0.126 C 
HETATM    5  N1  UNL     1      20.825  -9.365   4.127  1.00  0.00    -0.356 N 
HETATM    6  C9  UNL     1      20.029  -9.695   3.052  1.00  0.00     0.136 C 
HETATM    7  N2  UNL     1      18.805  -9.758   2.962  1.00  0.00    -0.380 N 
ATOM      8  H21 UNL     1      18.216 -10.002   2.166  1.00  0.00     0.158 HD
ATOM      9  H22 UNL     1      18.262  -9.513   3.791  1.00  0.00     0.158 HD
HETATM   10  S1  UNL     1      21.033 -10.148   1.519  1.00  0.00    -0.094 SA
HETATM   11  C10 UNL     1      22.666 -10.222   2.399  1.00  0.00     0.089 C 
ENDROOT
BRANCH   1  12
HETATM   12  C2  UNL     1      21.644  -7.124   3.275  1.00  0.00    -0.030 C 
HETATM   13  C1  UNL     1      22.632  -6.070   3.848  1.00  0.00     0.016 C 
HETATM   14  C3  UNL     1      20.289  -6.532   3.799  1.00  0.00     0.016 C 
HETATM   15  C4  UNL     1      21.596  -6.842   1.836  1.00  0.00     0.016 C 
ENDBRANCH   1  12
TORSDOF 1
ENDMDL
MODEL 4
REMARK VINA RESULT: -4.371874899      5.635      7.238
REMARK  1 active torsions:
REMARK  status: ('A' for Active; 'I' for Inactive)
REMARK    1  A    between atoms: C2_2  and  C5_5 
ROOT
HETATM    1  C5  UNL     1      20.863  -8.148   2.694  1.00  0.00     0.098 C 
HETATM    2  C6  UNL     1      22.257  -7.853   3.175  1.00  0.00     0.020 C 
HETATM    3  C7  UNL     1      22.010  -6.325   3.471  1.00  0.00     0.027 C 
HETATM    4  C8  UNL     1      20.431  -6.234   3.688  1.00  0.00     0.126 C 
HETATM    5  N1  UNL     1      20.334  -7.604   3.966  1.00  0.00    -0.356 N 
HETATM    6  C9  UNL     1      20.118  -8.476   5.010  1.00  0.00     0.136 C 
HETATM    7  N2  UNL     1      19.120  -8.648   5.707  1.00  0.00    -0.380 N 
ATOM      8  H21 UNL     1      18.960  -9.294   6.479  1.00  0.00     0.158 HD
ATOM      9  H22 UNL     1      18.296  -8.086   5.489  1.00  0.00     0.158 HD
HETATM   10  S1  UNL     1      21.641  -9.516   5.412  1.00  0.00    -0.094 SA
HETATM   11  C10 UNL     1      22.801  -8.544   4.336  1.00  0.00     0.089 C 
ENDROOT
BRANCH   1  12
HETATM   12  C2  UNL     1      20.392  -9.312   2.096  1.00  0.00    -0.030 C 
HETATM   13  C1  UNL     1      21.620 -10.184   1.711  1.00  0.00     0.016 C 
HETATM   14  C3  UNL     1      19.875  -8.935   0.664  1.00  0.00     0.016 C 
HETATM   15  C4  UNL     1      19.391 -10.272   2.571  1.00  0.00     0.016 C 
ENDBRANCH   1  12
TORSDOF 1
ENDMDL
MODEL 5
REMARK VINA RESULT: -4.343928371      1.729      3.158
REMARK  1 active torsions:
REMARK  status: ('A' for Active; 'I' for Inactive)
REMARK    1  A    between atoms: C2_2  and  C5_5 
ROOT
HETATM    1  C5  UNL     1      26.643 -11.427   6.715  1.00  0.00     0.098 C 
HETATM    2  C6  UNL     1      26.642  -9.922   6.711  1.00  0.00     0.020 C 
HETATM    3  C7  UNL     1      27.982  -9.756   5.899  1.00  0.00     0.027 C 
HETATM    4  C8  UNL     1      28.112 -11.135   5.103  1.00  0.00     0.126 C 
HETATM    5  N1  UNL     1      26.744 -11.406   5.237  1.00  0.00    -0.356 N 
HETATM    6  C9  UNL     1      25.579 -11.446   4.503  1.00  0.00     0.136 C 
HETATM    7  N2  UNL     1      25.250 -12.186   3.578  1.00  0.00    -0.380 N 
ATOM      8  H21 UNL     1      24.387 -12.215   3.035  1.00  0.00     0.158 HD
ATOM      9  H22 UNL     1      25.914 -12.908   3.298  1.00  0.00     0.158 HD
HETATM   10  S1  UNL     1      24.350 -10.111   5.020  1.00  0.00    -0.094 SA
HETATM   11  C10 UNL     1      25.546  -9.185   6.097  1.00  0.00     0.089 C 
ENDROOT
BRANCH   1  12
HETATM   12  C2  UNL     1      25.805 -12.281   7.422  1.00  0.00    -0.030 C 
HETATM   13  C1  UNL     1      25.843 -11.863   8.919  1.00  0.00     0.016 C 
HETATM   14  C3  UNL     1      26.519 -13.675   7.518  1.00  0.00     0.016 C 
HETATM   15  C4  UNL     1      24.405 -12.640   7.173  1.00  0.00     0.016 C 
ENDBRANCH   1  12
TORSDOF 1
ENDMDL
