MODEL 1
REMARK VINA RESULT: -6.245054361      0.000      0.000
REMARK  3 active torsions:
REMARK  status: ('A' for Active; 'I' for Inactive)
REMARK    1  A    between atoms: C2_2  and  N1_4 
REMARK       I    between atoms: N1_4  and  C4_6 
REMARK    2  A    between atoms: C4_6  and  O2_8 
REMARK    3  A    between atoms: O2_8  and  N2_9 
ROOT
HETATM    1  O2  UNL     1      23.265 -11.679   6.616  1.00  0.00    -0.181 OA
ENDROOT
BRANCH   1   2
HETATM    2  C4  UNL     1      22.871 -10.855   5.549  1.00  0.00     0.382 C 
HETATM    3  N1  UNL     1      21.911  -9.827   5.709  1.00  0.00    -0.332 N 
ATOM      4  H1  UNL     1      21.484  -9.669   6.621  1.00  0.00     0.165 HD
HETATM    5  O1  UNL     1      23.436 -11.102   4.450  1.00  0.00    -0.236 OA
BRANCH   3   6
HETATM    6  C2  UNL     1      21.538  -9.015   4.603  1.00  0.00     0.078 C 
HETATM    7  C1  UNL     1      20.150  -8.420   4.736  1.00  0.00     0.032 C 
HETATM    8  C3  UNL     1      22.497  -7.822   4.523  1.00  0.00     0.032 C 
ENDBRANCH   3   6
ENDBRANCH   1   2
BRANCH   1   9
HETATM    9  N2  UNL     1      24.563 -11.864   6.936  1.00  0.00    -0.264 N 
HETATM   10  C5  UNL     1      25.038 -12.874   7.572  1.00  0.00     0.010 C 
HETATM   11  C6  UNL     1      26.465 -13.019   7.891  1.00  0.00     0.054 C 
HETATM   12  C10 UNL     1      24.107 -13.937   8.002  1.00  0.00     0.054 C 
HETATM   13  C7  UNL     1      26.863 -14.466   8.107  1.00  0.00     0.006 C 
HETATM   14  C8  UNL     1      25.985 -15.183   9.077  1.00  0.00     0.001 C 
HETATM   15  C9  UNL     1      24.638 -14.564   9.270  1.00  0.00     0.006 C 
ATOM     16  H2  UNL     1      25.223 -11.141   6.648  1.00  0.00     0.194 HD
ENDBRANCH   1   9
TORSDOF 3
ENDMDL
MODEL 2
REMARK VINA RESULT: -6.204739680      1.334      1.664
REMARK  3 active torsions:
REMARK  status: ('A' for Active; 'I' for Inactive)
REMARK    1  A    between atoms: C2_2  and  N1_4 
REMARK       I    between atoms: N1_4  and  C4_6 
REMARK    2  A    between atoms: C4_6  and  O2_8 
REMARK    3  A    between atoms: O2_8  and  N2_9 
ROOT
HETATM    1  O2  UNL     1      23.213 -11.856   6.703  1.00  0.00    -0.181 OA
ENDROOT
BRANCH   1   2
HETATM    2  C4  UNL     1      22.719 -10.876   5.826  1.00  0.00     0.382 C 
HETATM    3  N1  UNL     1      23.291 -10.654   4.550  1.00  0.00    -0.332 N 
ATOM      4  H1  UNL     1      24.085 -11.215   4.245  1.00  0.00     0.165 HD
HETATM    5  O1  UNL     1      21.737 -10.218   6.262  1.00  0.00    -0.236 OA
BRANCH   3   6
HETATM    6  C2  UNL     1      22.762  -9.652   3.692  1.00  0.00     0.078 C 
HETATM    7  C1  UNL     1      23.681  -8.457   3.527  1.00  0.00     0.032 C 
HETATM    8  C3  UNL     1      22.593 -10.243   2.288  1.00  0.00     0.032 C 
ENDBRANCH   3   6
ENDBRANCH   1   2
BRANCH   1   9
HETATM    9  N2  UNL     1      24.528 -11.969   6.982  1.00  0.00    -0.264 N 
HETATM   10  C5  UNL     1      25.081 -12.959   7.584  1.00  0.00     0.010 C 
HETATM   11  C6  UNL     1      26.523 -13.026   7.859  1.00  0.00     0.054 C 
HETATM   12  C10 UNL     1      24.227 -14.084   8.021  1.00  0.00     0.054 C 
HETATM   13  C7  UNL     1      27.012 -14.450   8.037  1.00  0.00     0.006 C 
HETATM   14  C8  UNL     1      26.207 -15.233   9.018  1.00  0.00     0.001 C 
HETATM   15  C9  UNL     1      24.832 -14.700   9.261  1.00  0.00     0.006 C 
ATOM     16  H2  UNL     1      25.135 -11.203   6.689  1.00  0.00     0.194 HD
ENDBRANCH   1   9
TORSDOF 3
ENDMDL
MODEL 3
REMARK VINA RESULT: -6.200627543      0.699      1.022
REMARK  3 active torsions:
REMARK  status: ('A' for Active; 'I' for Inactive)
REMARK    1  A    between atoms: C2_2  and  N1_4 
REMARK       I    between atoms: N1_4  and  C4_6 
REMARK    2  A    between atoms: C4_6  and  O2_8 
REMARK    3  A    between atoms: O2_8  and  N2_9 
ROOT
HETATM    1  O2  UNL     1      23.264 -11.719   6.533  1.00  0.00    -0.181 OA
ENDROOT
BRANCH   1   2
HETATM    2  C4  UNL     1      22.865 -10.641   5.726  1.00  0.00     0.382 C 
HETATM    3  N1  UNL     1      21.502 -10.297   5.554  1.00  0.00    -0.332 N 
ATOM      4  H1  UNL     1      20.779 -10.839   6.024  1.00  0.00     0.165 HD
HETATM    5  O1  UNL     1      23.807 -10.012   5.174  1.00  0.00    -0.236 OA
BRANCH   3   6
HETATM    6  C2  UNL     1      21.139  -9.198   4.728  1.00  0.00     0.078 C 
HETATM    7  C1  UNL     1      20.812  -9.601   3.304  1.00  0.00     0.032 C 
HETATM    8  C3  UNL     1      19.860  -8.564   5.286  1.00  0.00     0.032 C 
ENDBRANCH   3   6
ENDBRANCH   1   2
BRANCH   1   9
HETATM    9  N2  UNL     1      24.538 -11.863   6.956  1.00  0.00    -0.264 N 
HETATM   10  C5  UNL     1      25.006 -12.883   7.579  1.00  0.00     0.010 C 
HETATM   11  C6  UNL     1      26.406 -12.982   8.015  1.00  0.00     0.054 C 
HETATM   12  C10 UNL     1      24.095 -14.010   7.871  1.00  0.00     0.054 C 
HETATM   13  C7  UNL     1      26.856 -14.419   8.191  1.00  0.00     0.006 C 
HETATM   14  C8  UNL     1      25.934 -15.227   9.042  1.00  0.00     0.001 C 
HETATM   15  C9  UNL     1      24.546 -14.682   9.147  1.00  0.00     0.006 C 
ATOM     16  H2  UNL     1      25.183 -11.096   6.765  1.00  0.00     0.194 HD
ENDBRANCH   1   9
TORSDOF 3
ENDMDL
MODEL 4
REMARK VINA RESULT: -5.934326875      1.173      1.943
REMARK  3 active torsions:
REMARK  status: ('A' for Active; 'I' for Inactive)
REMARK    1  A    between atoms: C2_2  and  N1_4 
REMARK       I    between atoms: N1_4  and  C4_6 
REMARK    2  A    between atoms: C4_6  and  O2_8 
REMARK    3  A    between atoms: O2_8  and  N2_9 
ROOT
HETATM    1  O2  UNL     1      23.826 -11.352   6.622  1.00  0.00    -0.181 OA
ENDROOT
BRANCH   1   2
HETATM    2  C4  UNL     1      22.783 -10.812   5.851  1.00  0.00     0.382 C 
HETATM    3  N1  UNL     1      23.014 -10.219   4.587  1.00  0.00    -0.332 N 
ATOM      4  H1  UNL     1      23.962 -10.174   4.212  1.00  0.00     0.165 HD
HETATM    5  O1  UNL     1      21.638 -10.899   6.369  1.00  0.00    -0.236 OA
BRANCH   3   6
HETATM    6  C2  UNL     1      21.931  -9.683   3.837  1.00  0.00     0.078 C 
HETATM    7  C1  UNL     1      21.824  -8.174   3.932  1.00  0.00     0.032 C 
HETATM    8  C3  UNL     1      22.159  -9.992   2.353  1.00  0.00     0.032 C 
ENDBRANCH   3   6
ENDBRANCH   1   2
BRANCH   1   9
HETATM    9  N2  UNL     1      23.794 -12.620   7.082  1.00  0.00    -0.264 N 
HETATM   10  C5  UNL     1      24.805 -13.281   7.517  1.00  0.00     0.010 C 
HETATM   11  C6  UNL     1      24.707 -14.664   8.006  1.00  0.00     0.054 C 
HETATM   12  C10 UNL     1      26.128 -12.622   7.527  1.00  0.00     0.054 C 
HETATM   13  C7  UNL     1      25.831 -15.020   8.959  1.00  0.00     0.006 C 
HETATM   14  C8  UNL     1      27.186 -14.699   8.422  1.00  0.00     0.001 C 
HETATM   15  C9  UNL     1      27.196 -13.673   7.335  1.00  0.00     0.006 C 
ATOM     16  H2  UNL     1      22.891 -13.094   7.083  1.00  0.00     0.194 HD
ENDBRANCH   1   9
TORSDOF 3
ENDMDL
MODEL 5
REMARK VINA RESULT: -5.905933461      1.369      6.648
REMARK  3 active torsions:
REMARK  status: ('A' for Active; 'I' for Inactive)
REMARK    1  A    between atoms: C2_2  and  N1_4 
REMARK       I    between atoms: N1_4  and  C4_6 
REMARK    2  A    between atoms: C4_6  and  O2_8 
REMARK    3  A    between atoms: O2_8  and  N2_9 
ROOT
HETATM    1  O2  UNL     1      23.242 -11.649   6.562  1.00  0.00    -0.181 OA
ENDROOT
BRANCH   1   2
HETATM    2  C4  UNL     1      24.444 -12.198   7.039  1.00  0.00     0.382 C 
HETATM    3  N1  UNL     1      24.469 -13.350   7.861  1.00  0.00    -0.332 N 
ATOM      4  H1  UNL     1      23.595 -13.806   8.123  1.00  0.00     0.165 HD
HETATM    5  O1  UNL     1      25.487 -11.589   6.680  1.00  0.00    -0.236 OA
BRANCH   3   6
HETATM    6  C2  UNL     1      25.707 -13.874   8.324  1.00  0.00     0.078 C 
HETATM    7  C1  UNL     1      26.080 -13.394   9.712  1.00  0.00     0.032 C 
HETATM    8  C3  UNL     1      25.588 -15.399   8.429  1.00  0.00     0.032 C 
ENDBRANCH   3   6
ENDBRANCH   1   2
BRANCH   1   9
HETATM    9  N2  UNL     1      23.209 -10.803   5.512  1.00  0.00    -0.264 N 
HETATM   10  C5  UNL     1      22.250  -9.995   5.235  1.00  0.00     0.010 C 
HETATM   11  C6  UNL     1      22.272  -9.095   4.073  1.00  0.00     0.054 C 
HETATM   12  C10 UNL     1      21.070  -9.969   6.124  1.00  0.00     0.054 C 
HETATM   13  C7  UNL     1      21.369  -7.891   4.258  1.00  0.00     0.006 C 
HETATM   14  C8  UNL     1      19.983  -8.251   4.675  1.00  0.00     0.001 C 
HETATM   15  C9  UNL     1      19.854  -9.600   5.307  1.00  0.00     0.006 C 
ATOM     16  H2  UNL     1      24.014 -10.805   4.885  1.00  0.00     0.194 HD
ENDBRANCH   1   9
TORSDOF 3
ENDMDL
