MODEL 1
REMARK VINA RESULT: -6.396363970      0.000      0.000
REMARK  2 active torsions:
REMARK  status: ('A' for Active; 'I' for Inactive)
REMARK    1  A    between atoms: C6_7  and  C7_8 
REMARK    2  A    between atoms: N2_14  and  N3_16 
ROOT
HETATM    1  C7  UNL     1      25.194 -13.188   6.920  1.00  0.00     0.057 C 
HETATM    2  C8  UNL     1      26.565 -12.837   7.364  1.00  0.00     0.014 C 
HETATM    3  C9  UNL     1      27.247 -14.121   7.883  1.00  0.00     0.001 C 
HETATM    4  C10 UNL     1      26.487 -14.619   9.106  1.00  0.00     0.006 C 
HETATM    5  C11 UNL     1      25.174 -15.156   8.573  1.00  0.00     0.054 C 
HETATM    6  C12 UNL     1      24.467 -14.016   7.942  1.00  0.00     0.011 C 
HETATM    7  N2  UNL     1      23.251 -13.757   8.279  1.00  0.00    -0.315 N 
ATOM      8  H2  UNL     1      22.763 -12.974   7.845  1.00  0.00     0.185 HD
ENDROOT
BRANCH   1   9
HETATM    9  C6  UNL     1      24.322 -12.122   6.472  1.00  0.00     0.008 C 
HETATM   10  C5  UNL     1      24.218 -11.571   5.282  1.00  0.00     0.003 C 
HETATM   11  N1  UNL     1      23.302 -10.506   4.958  1.00  0.00    -0.389 N 
HETATM   12  C4  UNL     1      24.937 -11.842   4.015  1.00  0.00     0.058 C 
HETATM   13  C1  UNL     1      22.103 -10.204   5.739  1.00  0.00     0.149 C 
HETATM   14  C2  UNL     1      23.787  -9.827   3.761  1.00  0.00     0.122 C 
HETATM   15  C3  UNL     1      24.244 -11.020   2.954  1.00  0.00     0.026 C 
ENDBRANCH   1   9
BRANCH   7  16
HETATM   16  N3  UNL     1      22.596 -14.539   9.232  1.00  0.00    -0.345 N 
ATOM     17  H32 UNL     1      22.971 -15.462   9.451  1.00  0.00     0.176 HD
ATOM     18  H31 UNL     1      21.758 -14.193   9.700  1.00  0.00     0.176 HD
ENDBRANCH   7  16
TORSDOF 2
ENDMDL
MODEL 2
REMARK VINA RESULT: -5.643113613      2.101      5.322
REMARK  2 active torsions:
REMARK  status: ('A' for Active; 'I' for Inactive)
REMARK    1  A    between atoms: C6_7  and  C7_8 
REMARK    2  A    between atoms: N2_14  and  N3_16 
ROOT
HETATM    1  C7  UNL     1      26.683 -11.358   6.459  1.00  0.00     0.057 C 
HETATM    2  C8  UNL     1      27.814 -11.864   5.643  1.00  0.00     0.014 C 
HETATM    3  C9  UNL     1      28.679 -10.659   5.216  1.00  0.00     0.001 C 
HETATM    4  C10 UNL     1      27.845  -9.752   4.321  1.00  0.00     0.006 C 
HETATM    5  C11 UNL     1      26.832  -9.099   5.240  1.00  0.00     0.054 C 
HETATM    6  C12 UNL     1      26.001 -10.188   5.806  1.00  0.00     0.011 C 
HETATM    7  N2  UNL     1      24.717 -10.114   5.729  1.00  0.00    -0.315 N 
ATOM      8  H2  UNL     1      24.144 -10.862   6.119  1.00  0.00     0.185 HD
ENDROOT
BRANCH   1   9
HETATM    9  C6  UNL     1      25.678 -12.302   6.902  1.00  0.00     0.008 C 
HETATM   10  C5  UNL     1      25.822 -13.414   7.590  1.00  0.00     0.003 C 
HETATM   11  N1  UNL     1      24.733 -14.277   7.974  1.00  0.00    -0.389 N 
HETATM   12  C4  UNL     1      27.031 -14.074   8.138  1.00  0.00     0.058 C 
HETATM   13  C1  UNL     1      23.340 -13.838   8.047  1.00  0.00     0.149 C 
HETATM   14  C2  UNL     1      25.272 -15.603   8.259  1.00  0.00     0.122 C 
HETATM   15  C3  UNL     1      26.536 -15.217   8.992  1.00  0.00     0.026 C 
ENDBRANCH   1   9
BRANCH   7  16
HETATM   16  N3  UNL     1      24.104  -9.019   5.118  1.00  0.00    -0.345 N 
ATOM     17  H32 UNL     1      24.458  -8.084   5.319  1.00  0.00     0.176 HD
ATOM     18  H31 UNL     1      23.318  -9.153   4.482  1.00  0.00     0.176 HD
ENDBRANCH   7  16
TORSDOF 2
ENDMDL
MODEL 3
REMARK VINA RESULT: -5.592003734      1.826      5.290
REMARK  2 active torsions:
REMARK  status: ('A' for Active; 'I' for Inactive)
REMARK    1  A    between atoms: C6_7  and  C7_8 
REMARK    2  A    between atoms: N2_14  and  N3_16 
ROOT
HETATM    1  C7  UNL     1      26.266 -11.544   5.912  1.00  0.00     0.057 C 
HETATM    2  C8  UNL     1      27.678 -11.948   5.702  1.00  0.00     0.014 C 
HETATM    3  C9  UNL     1      28.379 -10.841   4.886  1.00  0.00     0.001 C 
HETATM    4  C10 UNL     1      27.723 -10.754   3.514  1.00  0.00     0.006 C 
HETATM    5  C11 UNL     1      26.358 -10.144   3.759  1.00  0.00     0.054 C 
HETATM    6  C12 UNL     1      25.619 -11.081   4.637  1.00  0.00     0.011 C 
HETATM    7  N2  UNL     1      24.443 -11.480   4.295  1.00  0.00    -0.315 N 
ATOM      8  H2  UNL     1      23.933 -12.125   4.898  1.00  0.00     0.185 HD
ENDROOT
BRANCH   1   9
HETATM    9  C6  UNL     1      25.378 -12.472   6.581  1.00  0.00     0.008 C 
HETATM   10  C5  UNL     1      25.665 -13.458   7.403  1.00  0.00     0.003 C 
HETATM   11  N1  UNL     1      24.682 -14.321   8.010  1.00  0.00    -0.389 N 
HETATM   12  C4  UNL     1      26.963 -13.952   7.920  1.00  0.00     0.058 C 
HETATM   13  C1  UNL     1      23.271 -13.964   8.154  1.00  0.00     0.149 C 
HETATM   14  C2  UNL     1      25.343 -15.553   8.428  1.00  0.00     0.122 C 
HETATM   15  C3  UNL     1      26.633 -14.984   8.973  1.00  0.00     0.026 C 
ENDBRANCH   1   9
BRANCH   7  16
HETATM   16  N3  UNL     1      23.861 -11.038   3.105  1.00  0.00    -0.345 N 
ATOM     17  H32 UNL     1      24.448 -10.561   2.421  1.00  0.00     0.176 HD
ATOM     18  H31 UNL     1      22.869 -11.190   2.926  1.00  0.00     0.176 HD
ENDBRANCH   7  16
TORSDOF 2
ENDMDL
MODEL 4
REMARK VINA RESULT: -5.474246057      1.999      2.929
REMARK  2 active torsions:
REMARK  status: ('A' for Active; 'I' for Inactive)
REMARK    1  A    between atoms: C6_7  and  C7_8 
REMARK    2  A    between atoms: N2_14  and  N3_16 
ROOT
HETATM    1  C7  UNL     1      24.759 -12.561   7.154  1.00  0.00     0.057 C 
HETATM    2  C8  UNL     1      23.700 -13.529   7.533  1.00  0.00     0.014 C 
HETATM    3  C9  UNL     1      24.023 -14.069   8.943  1.00  0.00     0.001 C 
HETATM    4  C10 UNL     1      25.338 -14.835   8.884  1.00  0.00     0.006 C 
HETATM    5  C11 UNL     1      26.411 -13.781   8.701  1.00  0.00     0.054 C 
HETATM    6  C12 UNL     1      26.136 -13.107   7.409  1.00  0.00     0.011 C 
HETATM    7  N2  UNL     1      27.075 -13.003   6.534  1.00  0.00    -0.315 N 
ATOM      8  H2  UNL     1      26.888 -12.539   5.645  1.00  0.00     0.185 HD
ENDROOT
BRANCH   1   9
HETATM    9  C6  UNL     1      24.720 -11.984   5.827  1.00  0.00     0.008 C 
HETATM   10  C5  UNL     1      23.853 -11.142   5.307  1.00  0.00     0.003 C 
HETATM   11  N1  UNL     1      23.923 -10.635   3.959  1.00  0.00    -0.389 N 
HETATM   12  C4  UNL     1      22.645 -10.505   5.881  1.00  0.00     0.058 C 
HETATM   13  C1  UNL     1      25.148 -10.625   3.160  1.00  0.00     0.149 C 
HETATM   14  C2  UNL     1      22.597 -10.161   3.574  1.00  0.00     0.122 C 
HETATM   15  C3  UNL     1      22.177  -9.493   4.863  1.00  0.00     0.026 C 
ENDBRANCH   1   9
BRANCH   7  16
HETATM   16  N3  UNL     1      28.346 -13.519   6.791  1.00  0.00    -0.345 N 
ATOM     17  H32 UNL     1      28.613 -13.704   7.758  1.00  0.00     0.176 HD
ATOM     18  H31 UNL     1      28.995 -13.705   6.026  1.00  0.00     0.176 HD
ENDBRANCH   7  16
TORSDOF 2
ENDMDL
MODEL 5
REMARK VINA RESULT: -5.465514887      1.099      5.255
REMARK  2 active torsions:
REMARK  status: ('A' for Active; 'I' for Inactive)
REMARK    1  A    between atoms: C6_7  and  C7_8 
REMARK    2  A    between atoms: N2_14  and  N3_16 
ROOT
HETATM    1  C7  UNL     1      24.777 -11.459   5.732  1.00  0.00     0.057 C 
HETATM    2  C8  UNL     1      25.490 -11.900   4.508  1.00  0.00     0.014 C 
HETATM    3  C9  UNL     1      25.728 -10.661   3.617  1.00  0.00     0.001 C 
HETATM    4  C10 UNL     1      24.379 -10.105   3.181  1.00  0.00     0.006 C 
HETATM    5  C11 UNL     1      23.778  -9.483   4.426  1.00  0.00     0.054 C 
HETATM    6  C12 UNL     1      23.603 -10.576   5.411  1.00  0.00     0.011 C 
HETATM    7  N2  UNL     1      22.457 -10.750   5.971  1.00  0.00    -0.315 N 
ATOM      8  H2  UNL     1      22.334 -11.501   6.650  1.00  0.00     0.185 HD
ENDROOT
BRANCH   1   9
HETATM    9  C6  UNL     1      24.361 -12.467   6.685  1.00  0.00     0.008 C 
HETATM   10  C5  UNL     1      25.093 -13.286   7.408  1.00  0.00     0.003 C 
HETATM   11  N1  UNL     1      24.556 -14.255   8.332  1.00  0.00    -0.389 N 
HETATM   12  C4  UNL     1      26.562 -13.462   7.498  1.00  0.00     0.058 C 
HETATM   13  C1  UNL     1      23.216 -14.166   8.908  1.00  0.00     0.149 C 
HETATM   14  C2  UNL     1      25.565 -15.285   8.560  1.00  0.00     0.122 C 
HETATM   15  C3  UNL     1      26.803 -14.422   8.639  1.00  0.00     0.026 C 
ENDBRANCH   1   9
BRANCH   7  16
HETATM   16  N3  UNL     1      21.380  -9.919   5.657  1.00  0.00    -0.345 N 
ATOM     17  H32 UNL     1      20.998  -9.316   6.386  1.00  0.00     0.176 HD
ATOM     18  H31 UNL     1      20.983  -9.916   4.717  1.00  0.00     0.176 HD
ENDBRANCH   7  16
TORSDOF 2
ENDMDL
