MODEL 1
REMARK VINA RESULT: -7.303878591      0.000      0.000
REMARK  5 active torsions:
REMARK  status: ('A' for Active; 'I' for Inactive)
REMARK    1  A    between atoms: O1_2  and  C2_3 
REMARK    2  A    between atoms: C9_12  and  O2_13 
REMARK    3  A    between atoms: O2_13  and  C10_14 
REMARK    4  A    between atoms: N2_22  and  C18_23 
REMARK    5  A    between atoms: C18_23  and  C19_24 
ROOT
HETATM    1  C2  UNL     1      30.598  56.999  -1.640  1.00  0.00     0.102 A 
HETATM    2  C3  UNL     1      30.529  57.471  -0.352  1.00  0.00     0.054 A 
HETATM    3  C4  UNL     1      29.421  58.215   0.027  1.00  0.00     0.002 A 
HETATM    4  C5  UNL     1      29.034  58.823   1.189  1.00  0.00    -0.019 A 
HETATM    5  C6  UNL     1      27.795  59.458   1.032  1.00  0.00     0.050 A 
HETATM    6  N1  UNL     1      27.436  59.231  -0.232  1.00  0.00    -0.357 N 
ATOM      7  H1  UNL     1      26.575  59.563  -0.665  1.00  0.00     0.166 HD
HETATM    8  C7  UNL     1      28.388  58.490  -0.856  1.00  0.00     0.046 A 
HETATM    9  C8  UNL     1      28.516  57.983  -2.148  1.00  0.00     0.070 A 
HETATM   10  C9  UNL     1      29.594  57.243  -2.566  1.00  0.00     0.104 A 
HETATM   11  C16 UNL     1      27.308  60.152   2.230  1.00  0.00     0.269 C 
HETATM   12  C17 UNL     1      25.922  60.738   1.993  1.00  0.00     0.049 C 
HETATM   13  N2  UNL     1      27.288  59.325   3.437  1.00  0.00     0.103 N 
HETATM   14  C25 UNL     1      28.489  58.492   3.489  1.00  0.00     0.278 C 
HETATM   15  C26 UNL     1      29.591  58.958   2.560  1.00  0.00     0.072 C 
ENDROOT
BRANCH  13  16
HETATM   16  C18 UNL     1      27.358  60.259   4.529  1.00  0.00     0.318 C 
BRANCH  16  17
HETATM   17  C19 UNL     1      27.127  59.737   5.882  1.00  0.00     0.047 A 
HETATM   18  C20 UNL     1      25.782  59.413   6.157  1.00  0.00     0.127 A 
HETATM   19  F1  UNL     1      24.810  59.634   5.207  1.00  0.00    -0.205 F 
HETATM   20  C21 UNL     1      25.390  58.880   7.348  1.00  0.00     0.043 A 
HETATM   21  C22 UNL     1      26.339  58.654   8.307  1.00  0.00     0.006 A 
HETATM   22  C23 UNL     1      27.650  58.959   8.063  1.00  0.00     0.043 A 
HETATM   23  C24 UNL     1      28.055  59.503   6.845  1.00  0.00     0.127 A 
HETATM   24  F2  UNL     1      29.382  59.739   6.660  1.00  0.00    -0.205 F 
ENDBRANCH  16  17
ENDBRANCH  13  16
BRANCH   1  25
HETATM   25  O1  UNL     1      31.710  56.242  -2.053  1.00  0.00    -0.353 OA
HETATM   26  C1  UNL     1      32.944  56.814  -2.358  1.00  0.00     0.210 C 
ENDBRANCH   1  25
BRANCH  10  27
HETATM   27  O2  UNL     1      29.736  56.740  -3.829  1.00  0.00    -0.343 OA
BRANCH  27  28
HETATM   28  C10 UNL     1      30.260  57.336  -4.963  1.00  0.00     0.129 C 
HETATM   29  C11 UNL     1      30.723  58.750  -4.753  1.00  0.00     0.032 C 
HETATM   30  C12 UNL     1      30.000  59.763  -5.607  1.00  0.00     0.002 C 
HETATM   31  C13 UNL     1      29.982  59.388  -7.071  1.00  0.00     0.000 C 
HETATM   32  C14 UNL     1      29.580  57.958  -7.292  1.00  0.00     0.002 C 
HETATM   33  C15 UNL     1      29.142  57.280  -6.016  1.00  0.00     0.032 C 
ENDBRANCH  27  28
ENDBRANCH  10  27
TORSDOF 5
ENDMDL
MODEL 2
REMARK VINA RESULT: -7.089968993      1.340      2.288
REMARK  5 active torsions:
REMARK  status: ('A' for Active; 'I' for Inactive)
REMARK    1  A    between atoms: O1_2  and  C2_3 
REMARK    2  A    between atoms: C9_12  and  O2_13 
REMARK    3  A    between atoms: O2_13  and  C10_14 
REMARK    4  A    between atoms: N2_22  and  C18_23 
REMARK    5  A    between atoms: C18_23  and  C19_24 
ROOT
HETATM    1  C2  UNL     1      30.132  57.956  -1.318  1.00  0.00     0.102 A 
HETATM    2  C3  UNL     1      29.938  58.005   0.040  1.00  0.00     0.054 A 
HETATM    3  C4  UNL     1      29.335  59.128   0.588  1.00  0.00     0.002 A 
HETATM    4  C5  UNL     1      28.998  59.504   1.859  1.00  0.00    -0.019 A 
HETATM    5  C6  UNL     1      28.396  60.768   1.863  1.00  0.00     0.050 A 
HETATM    6  N1  UNL     1      28.371  61.155   0.587  1.00  0.00    -0.357 N 
ATOM      7  H1  UNL     1      27.992  62.040   0.250  1.00  0.00     0.166 HD
HETATM    8  C7  UNL     1      28.925  60.194  -0.197  1.00  0.00     0.046 A 
HETATM    9  C8  UNL     1      29.149  60.085  -1.569  1.00  0.00     0.070 A 
HETATM   10  C9  UNL     1      29.741  58.993  -2.154  1.00  0.00     0.104 A 
HETATM   11  C16 UNL     1      28.014  61.259   3.192  1.00  0.00     0.269 C 
HETATM   12  C17 UNL     1      27.292  62.597   3.091  1.00  0.00     0.049 C 
HETATM   13  N2  UNL     1      27.198  60.323   3.967  1.00  0.00     0.103 N 
HETATM   14  C25 UNL     1      27.698  58.960   3.785  1.00  0.00     0.278 C 
HETATM   15  C26 UNL     1      29.099  58.899   3.213  1.00  0.00     0.072 C 
ENDROOT
BRANCH  13  16
HETATM   16  C18 UNL     1      27.417  60.688   5.341  1.00  0.00     0.318 C 
BRANCH  16  17
HETATM   17  C19 UNL     1      26.927  59.765   6.373  1.00  0.00     0.047 A 
HETATM   18  C20 UNL     1      27.861  59.485   7.392  1.00  0.00     0.127 A 
HETATM   19  F1  UNL     1      29.125  60.029   7.340  1.00  0.00    -0.205 F 
HETATM   20  C21 UNL     1      27.565  58.681   8.451  1.00  0.00     0.043 A 
HETATM   21  C22 UNL     1      26.315  58.128   8.523  1.00  0.00     0.006 A 
HETATM   22  C23 UNL     1      25.392  58.386   7.547  1.00  0.00     0.043 A 
HETATM   23  C24 UNL     1      25.692  59.210   6.463  1.00  0.00     0.127 A 
HETATM   24  F2  UNL     1      24.707  59.456   5.556  1.00  0.00    -0.205 F 
ENDBRANCH  16  17
ENDBRANCH  13  16
BRANCH   1  25
HETATM   25  O1  UNL     1      30.741  56.830  -1.903  1.00  0.00    -0.353 OA
HETATM   26  C1  UNL     1      32.122  56.712  -2.058  1.00  0.00     0.210 C 
ENDBRANCH   1  25
BRANCH  10  27
HETATM   27  O2  UNL     1      29.969  58.871  -3.495  1.00  0.00    -0.343 OA
BRANCH  27  28
HETATM   28  C10 UNL     1      29.159  58.337  -4.483  1.00  0.00     0.129 C 
HETATM   29  C11 UNL     1      27.905  57.692  -3.965  1.00  0.00     0.032 C 
HETATM   30  C12 UNL     1      27.797  56.221  -4.287  1.00  0.00     0.002 C 
HETATM   31  C13 UNL     1      28.016  55.926  -5.753  1.00  0.00     0.000 C 
HETATM   32  C14 UNL     1      29.233  56.615  -6.301  1.00  0.00     0.002 C 
HETATM   33  C15 UNL     1      30.032  57.312  -5.226  1.00  0.00     0.032 C 
ENDBRANCH  27  28
ENDBRANCH  10  27
TORSDOF 5
ENDMDL
MODEL 3
REMARK VINA RESULT: -7.086844472      1.361      1.780
REMARK  5 active torsions:
REMARK  status: ('A' for Active; 'I' for Inactive)
REMARK    1  A    between atoms: O1_2  and  C2_3 
REMARK    2  A    between atoms: C9_12  and  O2_13 
REMARK    3  A    between atoms: O2_13  and  C10_14 
REMARK    4  A    between atoms: N2_22  and  C18_23 
REMARK    5  A    between atoms: C18_23  and  C19_24 
ROOT
HETATM    1  C2  UNL     1      30.502  58.548  -1.435  1.00  0.00     0.102 A 
HETATM    2  C3  UNL     1      30.408  58.611  -0.067  1.00  0.00     0.054 A 
HETATM    3  C4  UNL     1      29.487  59.482   0.499  1.00  0.00     0.002 A 
HETATM    4  C5  UNL     1      29.136  59.795   1.783  1.00  0.00    -0.019 A 
HETATM    5  C6  UNL     1      28.125  60.764   1.803  1.00  0.00     0.050 A 
HETATM    6  N1  UNL     1      27.867  61.036   0.523  1.00  0.00    -0.357 N 
ATOM      7  H1  UNL     1      27.174  61.708   0.195  1.00  0.00     0.166 HD
HETATM    8  C7  UNL     1      28.666  60.285  -0.278  1.00  0.00     0.046 A 
HETATM    9  C8  UNL     1      28.809  60.175  -1.660  1.00  0.00     0.070 A 
HETATM   10  C9  UNL     1      29.705  59.327  -2.263  1.00  0.00     0.104 A 
HETATM   11  C16 UNL     1      27.695  61.172   3.145  1.00  0.00     0.269 C 
HETATM   12  C17 UNL     1      26.539  62.161   3.070  1.00  0.00     0.049 C 
HETATM   13  N2  UNL     1      27.328  60.059   4.022  1.00  0.00     0.103 N 
HETATM   14  C25 UNL     1      28.265  58.951   3.838  1.00  0.00     0.278 C 
HETATM   15  C26 UNL     1      29.548  59.351   3.140  1.00  0.00     0.072 C 
ENDROOT
BRANCH  13  16
HETATM   16  C18 UNL     1      27.506  60.564   5.358  1.00  0.00     0.318 C 
BRANCH  16  17
HETATM   17  C19 UNL     1      27.126  59.684   6.471  1.00  0.00     0.047 A 
HETATM   18  C20 UNL     1      25.788  59.238   6.425  1.00  0.00     0.127 A 
HETATM   19  F1  UNL     1      24.951  59.665   5.420  1.00  0.00    -0.205 F 
HETATM   20  C21 UNL     1      25.274  58.384   7.354  1.00  0.00     0.043 A 
HETATM   21  C22 UNL     1      26.087  57.948   8.363  1.00  0.00     0.006 A 
HETATM   22  C23 UNL     1      27.388  58.366   8.428  1.00  0.00     0.043 A 
HETATM   23  C24 UNL     1      27.918  59.238   7.478  1.00  0.00     0.127 A 
HETATM   24  F2  UNL     1      29.233  59.574   7.582  1.00  0.00    -0.205 F 
ENDBRANCH  16  17
ENDBRANCH  13  16
BRANCH   1  25
HETATM   25  O1  UNL     1      31.426  57.675  -2.038  1.00  0.00    -0.353 OA
HETATM   26  C1  UNL     1      31.241  56.293  -2.085  1.00  0.00     0.210 C 
ENDBRANCH   1  25
BRANCH  10  27
HETATM   27  O2  UNL     1      29.859  59.209  -3.615  1.00  0.00    -0.343 OA
BRANCH  27  28
HETATM   28  C10 UNL     1      29.062  58.557  -4.541  1.00  0.00     0.129 C 
HETATM   29  C11 UNL     1      27.894  57.829  -3.939  1.00  0.00     0.032 C 
HETATM   30  C12 UNL     1      27.907  56.341  -4.190  1.00  0.00     0.002 C 
HETATM   31  C13 UNL     1      28.092  55.995  -5.649  1.00  0.00     0.000 C 
HETATM   32  C14 UNL     1      29.218  56.762  -6.282  1.00  0.00     0.002 C 
HETATM   33  C15 UNL     1      29.993  57.579  -5.276  1.00  0.00     0.032 C 
ENDBRANCH  27  28
ENDBRANCH  10  27
TORSDOF 5
ENDMDL
MODEL 4
REMARK VINA RESULT: -7.055586633      0.876      1.874
REMARK  5 active torsions:
REMARK  status: ('A' for Active; 'I' for Inactive)
REMARK    1  A    between atoms: O1_2  and  C2_3 
REMARK    2  A    between atoms: C9_12  and  O2_13 
REMARK    3  A    between atoms: O2_13  and  C10_14 
REMARK    4  A    between atoms: N2_22  and  C18_23 
REMARK    5  A    between atoms: C18_23  and  C19_24 
ROOT
HETATM    1  C2  UNL     1      30.449  57.004  -2.193  1.00  0.00     0.102 A 
HETATM    2  C3  UNL     1      30.411  57.443  -0.892  1.00  0.00     0.054 A 
HETATM    3  C4  UNL     1      29.321  58.194  -0.474  1.00  0.00     0.002 A 
HETATM    4  C5  UNL     1      28.964  58.776   0.710  1.00  0.00    -0.019 A 
HETATM    5  C6  UNL     1      27.734  59.435   0.592  1.00  0.00     0.050 A 
HETATM    6  N1  UNL     1      27.349  59.247  -0.670  1.00  0.00    -0.357 N 
ATOM      7  H1  UNL     1      26.486  59.605  -1.080  1.00  0.00     0.166 HD
HETATM    8  C7  UNL     1      28.278  58.509  -1.331  1.00  0.00     0.046 A 
HETATM    9  C8  UNL     1      28.375  58.034  -2.638  1.00  0.00     0.070 A 
HETATM   10  C9  UNL     1      29.433  57.288  -3.095  1.00  0.00     0.104 A 
HETATM   11  C16 UNL     1      27.280  60.105   1.816  1.00  0.00     0.269 C 
HETATM   12  C17 UNL     1      25.899  60.719   1.620  1.00  0.00     0.049 C 
HETATM   13  N2  UNL     1      27.266  59.246   3.002  1.00  0.00     0.103 N 
HETATM   14  C25 UNL     1      28.455  58.393   3.010  1.00  0.00     0.278 C 
HETATM   15  C26 UNL     1      29.548  58.866   2.074  1.00  0.00     0.072 C 
ENDROOT
BRANCH  13  16
HETATM   16  C18 UNL     1      27.371  60.150   4.117  1.00  0.00     0.318 C 
BRANCH  16  17
HETATM   17  C19 UNL     1      26.914  59.665   5.426  1.00  0.00     0.047 A 
HETATM   18  C20 UNL     1      27.955  59.348   6.323  1.00  0.00     0.127 A 
HETATM   19  F1  UNL     1      29.268  59.464   5.926  1.00  0.00    -0.205 F 
HETATM   20  C21 UNL     1      27.716  58.922   7.594  1.00  0.00     0.043 A 
HETATM   21  C22 UNL     1      26.418  58.798   8.009  1.00  0.00     0.006 A 
HETATM   22  C23 UNL     1      25.391  59.101   7.158  1.00  0.00     0.043 A 
HETATM   23  C24 UNL     1      25.633  59.539   5.856  1.00  0.00     0.127 A 
HETATM   24  F2  UNL     1      24.562  59.864   5.082  1.00  0.00    -0.205 F 
ENDBRANCH  16  17
ENDBRANCH  13  16
BRANCH   1  25
HETATM   25  O1  UNL     1      31.541  56.241  -2.647  1.00  0.00    -0.353 OA
HETATM   26  C1  UNL     1      32.867  56.616  -2.434  1.00  0.00     0.210 C 
ENDBRANCH   1  25
BRANCH  10  27
HETATM   27  O2  UNL     1      29.545  56.817  -4.372  1.00  0.00    -0.343 OA
BRANCH  27  28
HETATM   28  C10 UNL     1      30.088  57.423  -5.493  1.00  0.00     0.129 C 
HETATM   29  C11 UNL     1      31.159  56.615  -6.168  1.00  0.00     0.032 C 
HETATM   30  C12 UNL     1      32.504  57.299  -6.210  1.00  0.00     0.002 C 
HETATM   31  C13 UNL     1      32.429  58.704  -6.761  1.00  0.00     0.000 C 
HETATM   32  C14 UNL     1      31.322  59.505  -6.140  1.00  0.00     0.002 C 
HETATM   33  C15 UNL     1      30.647  58.770  -5.006  1.00  0.00     0.032 C 
ENDBRANCH  27  28
ENDBRANCH  10  27
TORSDOF 5
ENDMDL
MODEL 5
REMARK VINA RESULT: -6.967479334      1.826      2.528
REMARK  5 active torsions:
REMARK  status: ('A' for Active; 'I' for Inactive)
REMARK    1  A    between atoms: O1_2  and  C2_3 
REMARK    2  A    between atoms: C9_12  and  O2_13 
REMARK    3  A    between atoms: O2_13  and  C10_14 
REMARK    4  A    between atoms: N2_22  and  C18_23 
REMARK    5  A    between atoms: C18_23  and  C19_24 
ROOT
HETATM    1  C2  UNL     1      30.479  58.801  -1.226  1.00  0.00     0.102 A 
HETATM    2  C3  UNL     1      30.655  58.829   0.136  1.00  0.00     0.054 A 
HETATM    3  C4  UNL     1      29.819  59.631   0.900  1.00  0.00     0.002 A 
HETATM    4  C5  UNL     1      29.713  59.894   2.237  1.00  0.00    -0.019 A 
HETATM    5  C6  UNL     1      28.675  60.801   2.488  1.00  0.00     0.050 A 
HETATM    6  N1  UNL     1      28.155  61.085   1.293  1.00  0.00    -0.357 N 
ATOM      7  H1  UNL     1      27.375  61.722   1.130  1.00  0.00     0.166 HD
HETATM    8  C7  UNL     1      28.818  60.400   0.327  1.00  0.00     0.046 A 
HETATM    9  C8  UNL     1      28.690  60.329  -1.060  1.00  0.00     0.070 A 
HETATM   10  C9  UNL     1      29.494  59.549  -1.855  1.00  0.00     0.104 A 
HETATM   11  C16 UNL     1      28.499  61.153   3.901  1.00  0.00     0.269 C 
HETATM   12  C17 UNL     1      27.299  62.073   4.088  1.00  0.00     0.049 C 
HETATM   13  N2  UNL     1      28.373  60.001   4.796  1.00  0.00     0.103 N 
HETATM   14  C25 UNL     1      29.314  58.955   4.395  1.00  0.00     0.278 C 
HETATM   15  C26 UNL     1      30.410  59.446   3.472  1.00  0.00     0.072 C 
ENDROOT
BRANCH  13  16
HETATM   16  C18 UNL     1      28.785  60.487   6.087  1.00  0.00     0.318 C 
BRANCH  16  17
HETATM   17  C19 UNL     1      27.884  60.245   7.221  1.00  0.00     0.047 A 
HETATM   18  C20 UNL     1      27.516  61.409   7.928  1.00  0.00     0.127 A 
HETATM   19  F1  UNL     1      28.031  62.632   7.561  1.00  0.00    -0.205 F 
HETATM   20  C21 UNL     1      26.657  61.378   8.984  1.00  0.00     0.043 A 
HETATM   21  C22 UNL     1      26.134  60.173   9.367  1.00  0.00     0.006 A 
HETATM   22  C23 UNL     1      26.475  59.031   8.696  1.00  0.00     0.043 A 
HETATM   23  C24 UNL     1      27.354  59.059   7.614  1.00  0.00     0.127 A 
HETATM   24  F2  UNL     1      27.610  57.889   6.968  1.00  0.00    -0.205 F 
ENDBRANCH  16  17
ENDBRANCH  13  16
BRANCH   1  25
HETATM   25  O1  UNL     1      31.311  57.997  -2.027  1.00  0.00    -0.353 OA
HETATM   26  C1  UNL     1      31.354  56.608  -1.917  1.00  0.00     0.210 C 
ENDBRANCH   1  25
BRANCH  10  27
HETATM   27  O2  UNL     1      29.382  59.470  -3.214  1.00  0.00    -0.343 OA
BRANCH  27  28
HETATM   28  C10 UNL     1      28.574  58.654  -3.987  1.00  0.00     0.129 C 
HETATM   29  C11 UNL     1      27.748  57.681  -3.195  1.00  0.00     0.032 C 
HETATM   30  C12 UNL     1      28.036  56.234  -3.512  1.00  0.00     0.002 C 
HETATM   31  C13 UNL     1      27.985  55.939  -4.993  1.00  0.00     0.000 C 
HETATM   32  C14 UNL     1      28.756  56.940  -5.805  1.00  0.00     0.002 C 
HETATM   33  C15 UNL     1      29.524  57.911  -4.941  1.00  0.00     0.032 C 
ENDBRANCH  27  28
ENDBRANCH  10  27
TORSDOF 5
ENDMDL
