MODEL 1
REMARK VINA RESULT: -8.265695274      0.000      0.000
REMARK  5 active torsions:
REMARK  status: ('A' for Active; 'I' for Inactive)
REMARK    1  A    between atoms: C7_12  and  C8_13 
REMARK    2  A    between atoms: C11_16  and  O1_17 
REMARK    3  A    between atoms: O1_17  and  C12_18 
REMARK    4  A    between atoms: C17_23  and  O2_24 
REMARK    5  A    between atoms: O2_24  and  C18_25 
ROOT
HETATM    1  C8  UNL     1      27.446  59.542   2.140  1.00  0.00    -0.023 A 
HETATM    2  C9  UNL     1      26.297  60.235   2.427  1.00  0.00     0.015 A 
HETATM    3  C10 UNL     1      25.936  60.517   3.732  1.00  0.00     0.040 A 
HETATM    4  C11 UNL     1      26.687  60.134   4.806  1.00  0.00     0.102 A 
HETATM    5  C17 UNL     1      27.873  59.421   4.528  1.00  0.00     0.103 A 
HETATM    6  C23 UNL     1      28.230  59.140   3.226  1.00  0.00     0.052 A 
ENDROOT
BRANCH   1   7
HETATM    7  C7  UNL     1      27.854  59.226   0.777  1.00  0.00    -0.025 A 
HETATM    8  C6  UNL     1      29.000  58.496   0.542  1.00  0.00     0.022 A 
HETATM    9  C5  UNL     1      29.406  58.177  -0.751  1.00  0.00    -0.020 A 
HETATM   10  C4  UNL     1      30.646  57.405  -0.733  1.00  0.00     0.271 C 
HETATM   11  C26 UNL     1      28.670  58.584  -1.841  1.00  0.00     0.021 A 
HETATM   12  N1  UNL     1      30.635  56.278  -1.641  1.00  0.00    -0.071 N 
HETATM   13  C3  UNL     1      30.728  56.642  -3.020  1.00  0.00     0.239 C 
ATOM     14  H12 UNL     1      29.814  55.696  -1.479  1.00  0.00     0.277 HD
ATOM     15  H11 UNL     1      31.369  55.613  -1.396  1.00  0.00     0.277 HD
HETATM   16  C2  UNL     1      29.357  56.924  -3.552  1.00  0.00     0.112 C 
HETATM   17  C1  UNL     1      28.928  58.345  -3.255  1.00  0.00     0.273 C 
HETATM   18  F1  UNL     1      27.745  58.556  -3.962  1.00  0.00    -0.201 F 
HETATM   19  F2  UNL     1      29.881  59.206  -3.782  1.00  0.00    -0.201 F 
HETATM   20  C25 UNL     1      27.523  59.314  -1.628  1.00  0.00     0.014 A 
HETATM   21  C24 UNL     1      27.118  59.633  -0.341  1.00  0.00     0.013 A 
ENDBRANCH   1   7
BRANCH   5  22
HETATM   22  O2  UNL     1      28.618  59.040   5.613  1.00  0.00    -0.343 OA
BRANCH  22  23
HETATM   23  C18 UNL     1      29.890  59.483   5.939  1.00  0.00     0.129 C 
HETATM   24  C19 UNL     1      30.972  58.666   5.203  1.00  0.00     0.032 C 
HETATM   25  C20 UNL     1      32.165  59.591   5.181  1.00  0.00     0.002 C 
HETATM   26  C21 UNL     1      31.580  60.969   5.014  1.00  0.00     0.002 C 
HETATM   27  C22 UNL     1      30.142  60.904   5.450  1.00  0.00     0.032 C 
ENDBRANCH  22  23
ENDBRANCH   5  22
BRANCH   4  28
HETATM   28  O1  UNL     1      26.390  60.380   6.110  1.00  0.00    -0.343 OA
BRANCH  28  29
HETATM   29  C12 UNL     1      25.797  59.599   7.076  1.00  0.00     0.129 C 
HETATM   30  C13 UNL     1      25.425  58.224   6.660  1.00  0.00     0.032 C 
HETATM   31  C14 UNL     1      25.268  57.494   7.982  1.00  0.00     0.002 C 
HETATM   32  C15 UNL     1      26.581  57.943   8.654  1.00  0.00     0.002 C 
HETATM   33  C16 UNL     1      26.623  59.443   8.328  1.00  0.00     0.032 C 
ENDBRANCH  28  29
ENDBRANCH   4  28
TORSDOF 5
ENDMDL
MODEL 2
REMARK VINA RESULT: -8.213342037      2.134      3.412
REMARK  5 active torsions:
REMARK  status: ('A' for Active; 'I' for Inactive)
REMARK    1  A    between atoms: C7_12  and  C8_13 
REMARK    2  A    between atoms: C11_16  and  O1_17 
REMARK    3  A    between atoms: O1_17  and  C12_18 
REMARK    4  A    between atoms: C17_23  and  O2_24 
REMARK    5  A    between atoms: O2_24  and  C18_25 
ROOT
HETATM    1  C8  UNL     1      27.498  60.164   2.035  1.00  0.00    -0.023 A 
HETATM    2  C9  UNL     1      27.475  61.537   2.040  1.00  0.00     0.015 A 
HETATM    3  C10 UNL     1      26.882  62.241   3.071  1.00  0.00     0.040 A 
HETATM    4  C11 UNL     1      26.289  61.630   4.139  1.00  0.00     0.102 A 
HETATM    5  C17 UNL     1      26.304  60.219   4.149  1.00  0.00     0.103 A 
HETATM    6  C23 UNL     1      26.896  59.519   3.120  1.00  0.00     0.052 A 
ENDROOT
BRANCH   1   7
HETATM    7  C7  UNL     1      28.112  59.391   0.963  1.00  0.00    -0.025 A 
HETATM    8  C6  UNL     1      27.674  59.526  -0.337  1.00  0.00     0.022 A 
HETATM    9  C5  UNL     1      28.249  58.802  -1.377  1.00  0.00    -0.020 A 
HETATM   10  C4  UNL     1      27.608  59.120  -2.651  1.00  0.00     0.271 C 
HETATM   11  C26 UNL     1      29.281  57.923  -1.136  1.00  0.00     0.021 A 
HETATM   12  N1  UNL     1      28.547  59.312  -3.735  1.00  0.00    -0.071 N 
HETATM   13  C3  UNL     1      29.161  58.106  -4.194  1.00  0.00     0.239 C 
ATOM     14  H12 UNL     1      29.256  59.999  -3.477  1.00  0.00     0.277 HD
ATOM     15  H11 UNL     1      28.104  59.806  -4.510  1.00  0.00     0.277 HD
HETATM   16  C2  UNL     1      30.372  57.817  -3.362  1.00  0.00     0.112 C 
HETATM   17  C1  UNL     1      30.008  57.090  -2.086  1.00  0.00     0.273 C 
HETATM   18  F1  UNL     1      31.210  56.697  -1.499  1.00  0.00    -0.201 F 
HETATM   19  F2  UNL     1      29.319  55.934  -2.426  1.00  0.00    -0.201 F 
HETATM   20  C25 UNL     1      29.733  57.773   0.155  1.00  0.00     0.014 A 
HETATM   21  C24 UNL     1      29.161  58.493   1.191  1.00  0.00     0.013 A 
ENDBRANCH   1   7
BRANCH   5  22
HETATM   22  O2  UNL     1      25.705  59.617   5.225  1.00  0.00    -0.343 OA
BRANCH  22  23
HETATM   23  C18 UNL     1      26.333  58.876   6.214  1.00  0.00     0.129 C 
HETATM   24  C19 UNL     1      27.799  59.320   6.398  1.00  0.00     0.032 C 
HETATM   25  C20 UNL     1      28.129  58.888   7.806  1.00  0.00     0.002 C 
HETATM   26  C21 UNL     1      26.855  59.093   8.580  1.00  0.00     0.002 C 
HETATM   27  C22 UNL     1      25.724  59.126   7.588  1.00  0.00     0.032 C 
ENDBRANCH  22  23
ENDBRANCH   5  22
BRANCH   4  28
HETATM   28  O1  UNL     1      25.690  62.264   5.183  1.00  0.00    -0.343 OA
BRANCH  28  29
HETATM   29  C12 UNL     1      26.207  63.008   6.219  1.00  0.00     0.129 C 
HETATM   30  C13 UNL     1      25.609  62.765   7.555  1.00  0.00     0.032 C 
HETATM   31  C14 UNL     1      26.653  63.322   8.506  1.00  0.00     0.002 C 
HETATM   32  C15 UNL     1      27.902  62.647   7.906  1.00  0.00     0.002 C 
HETATM   33  C16 UNL     1      27.697  62.855   6.398  1.00  0.00     0.032 C 
ENDBRANCH  28  29
ENDBRANCH   4  28
TORSDOF 5
ENDMDL
MODEL 3
REMARK VINA RESULT: -8.096915937      4.285      8.493
REMARK  5 active torsions:
REMARK  status: ('A' for Active; 'I' for Inactive)
REMARK    1  A    between atoms: C7_12  and  C8_13 
REMARK    2  A    between atoms: C11_16  and  O1_17 
REMARK    3  A    between atoms: O1_17  and  C12_18 
REMARK    4  A    between atoms: C17_23  and  O2_24 
REMARK    5  A    between atoms: O2_24  and  C18_25 
ROOT
HETATM    1  C8  UNL     1      27.171  60.139   1.786  1.00  0.00    -0.023 A 
HETATM    2  C9  UNL     1      26.290  60.529   0.808  1.00  0.00     0.015 A 
HETATM    3  C10 UNL     1      26.693  60.664  -0.508  1.00  0.00     0.040 A 
HETATM    4  C11 UNL     1      27.972  60.421  -0.919  1.00  0.00     0.102 A 
HETATM    5  C17 UNL     1      28.890  60.018   0.075  1.00  0.00     0.103 A 
HETATM    6  C23 UNL     1      28.487  59.884   1.386  1.00  0.00     0.052 A 
ENDROOT
BRANCH   1   7
HETATM    7  C7  UNL     1      26.780  59.988   3.182  1.00  0.00    -0.025 A 
HETATM    8  C6  UNL     1      27.644  59.417   4.092  1.00  0.00     0.022 A 
HETATM    9  C5  UNL     1      27.294  59.268   5.431  1.00  0.00    -0.020 A 
HETATM   10  C4  UNL     1      28.374  58.635   6.185  1.00  0.00     0.271 C 
HETATM   11  C26 UNL     1      26.067  59.692   5.889  1.00  0.00     0.021 A 
HETATM   12  N1  UNL     1      28.629  59.264   7.462  1.00  0.00    -0.071 N 
HETATM   13  C3  UNL     1      27.621  59.016   8.445  1.00  0.00     0.239 C 
ATOM     14  H12 UNL     1      28.776  60.267   7.345  1.00  0.00     0.277 HD
ATOM     15  H11 UNL     1      29.548  58.997   7.816  1.00  0.00     0.277 HD
HETATM   16  C2  UNL     1      26.530  60.032   8.303  1.00  0.00     0.112 C 
HETATM   17  C1  UNL     1      25.530  59.628   7.243  1.00  0.00     0.273 C 
HETATM   18  F1  UNL     1      24.467  60.526   7.338  1.00  0.00    -0.201 F 
HETATM   19  F2  UNL     1      25.036  58.372   7.568  1.00  0.00    -0.201 F 
HETATM   20  C25 UNL     1      25.191  60.264   4.997  1.00  0.00     0.014 A 
HETATM   21  C24 UNL     1      25.537  60.412   3.663  1.00  0.00     0.013 A 
ENDBRANCH   1   7
BRANCH   5  22
HETATM   22  O2  UNL     1      30.172  59.777  -0.349  1.00  0.00    -0.343 OA
BRANCH  22  23
HETATM   23  C18 UNL     1      30.817  58.552  -0.374  1.00  0.00     0.129 C 
HETATM   24  C19 UNL     1      29.837  57.410  -0.718  1.00  0.00     0.032 C 
HETATM   25  C20 UNL     1      30.730  56.326  -1.271  1.00  0.00     0.002 C 
HETATM   26  C21 UNL     1      31.806  57.062  -2.025  1.00  0.00     0.002 C 
HETATM   27  C22 UNL     1      31.844  58.470  -1.497  1.00  0.00     0.032 C 
ENDBRANCH  22  23
ENDBRANCH   5  22
BRANCH   4  28
HETATM   28  O1  UNL     1      28.431  60.534  -2.194  1.00  0.00    -0.343 OA
BRANCH  28  29
HETATM   29  C12 UNL     1      28.222  59.760  -3.313  1.00  0.00     0.129 C 
HETATM   30  C13 UNL     1      29.442  59.235  -3.976  1.00  0.00     0.032 C 
HETATM   31  C14 UNL     1      28.911  58.089  -4.818  1.00  0.00     0.002 C 
HETATM   32  C15 UNL     1      28.056  57.386  -3.744  1.00  0.00     0.002 C 
HETATM   33  C16 UNL     1      27.335  58.565  -3.073  1.00  0.00     0.032 C 
ENDBRANCH  28  29
ENDBRANCH   4  28
TORSDOF 5
ENDMDL
MODEL 4
REMARK VINA RESULT: -8.063371597      4.242      8.687
REMARK  5 active torsions:
REMARK  status: ('A' for Active; 'I' for Inactive)
REMARK    1  A    between atoms: C7_12  and  C8_13 
REMARK    2  A    between atoms: C11_16  and  O1_17 
REMARK    3  A    between atoms: O1_17  and  C12_18 
REMARK    4  A    between atoms: C17_23  and  O2_24 
REMARK    5  A    between atoms: O2_24  and  C18_25 
ROOT
HETATM    1  C8  UNL     1      27.607  59.379   1.862  1.00  0.00    -0.023 A 
HETATM    2  C9  UNL     1      26.677  60.141   1.200  1.00  0.00     0.015 A 
HETATM    3  C10 UNL     1      26.539  60.073  -0.174  1.00  0.00     0.040 A 
HETATM    4  C11 UNL     1      27.306  59.256  -0.954  1.00  0.00     0.102 A 
HETATM    5  C17 UNL     1      28.268  58.465  -0.289  1.00  0.00     0.103 A 
HETATM    6  C23 UNL     1      28.403  58.535   1.081  1.00  0.00     0.052 A 
ENDROOT
BRANCH   1   7
HETATM    7  C7  UNL     1      27.779  59.428   3.308  1.00  0.00    -0.025 A 
HETATM    8  C6  UNL     1      26.702  59.672   4.133  1.00  0.00     0.022 A 
HETATM    9  C5  UNL     1      26.842  59.717   5.517  1.00  0.00    -0.020 A 
HETATM   10  C4  UNL     1      25.560  59.993   6.163  1.00  0.00     0.271 C 
HETATM   11  C26 UNL     1      28.070  59.519   6.108  1.00  0.00     0.021 A 
HETATM   12  N1  UNL     1      25.308  59.162   7.320  1.00  0.00    -0.071 N 
HETATM   13  C3  UNL     1      26.103  59.495   8.460  1.00  0.00     0.239 C 
ATOM     14  H12 UNL     1      25.418  58.176   7.083  1.00  0.00     0.277 HD
ATOM     15  H11 UNL     1      24.317  59.172   7.559  1.00  0.00     0.277 HD
HETATM   16  C2  UNL     1      27.412  58.772   8.381  1.00  0.00     0.112 C 
HETATM   17  C1  UNL     1      28.410  59.522   7.525  1.00  0.00     0.273 C 
HETATM   18  F1  UNL     1      29.634  58.875   7.687  1.00  0.00    -0.201 F 
HETATM   19  F2  UNL     1      28.550  60.802   8.042  1.00  0.00    -0.201 F 
HETATM   20  C25 UNL     1      29.158  59.275   5.302  1.00  0.00     0.014 A 
HETATM   21  C24 UNL     1      29.020  59.230   3.924  1.00  0.00     0.013 A 
ENDBRANCH   1   7
BRANCH   5  22
HETATM   22  O2  UNL     1      29.032  57.650  -1.082  1.00  0.00    -0.343 OA
BRANCH  22  23
HETATM   23  C18 UNL     1      30.376  57.354  -0.912  1.00  0.00     0.129 C 
HETATM   24  C19 UNL     1      30.916  56.513  -2.088  1.00  0.00     0.032 C 
HETATM   25  C20 UNL     1      32.401  56.781  -2.066  1.00  0.00     0.002 C 
HETATM   26  C21 UNL     1      32.526  58.222  -1.649  1.00  0.00     0.002 C 
HETATM   27  C22 UNL     1      31.245  58.604  -0.958  1.00  0.00     0.032 C 
ENDBRANCH  22  23
ENDBRANCH   5  22
BRANCH   4  28
HETATM   28  O1  UNL     1      27.221  59.142  -2.307  1.00  0.00    -0.343 OA
BRANCH  28  29
HETATM   29  C12 UNL     1      27.909  59.766  -3.322  1.00  0.00     0.129 C 
HETATM   30  C13 UNL     1      28.873  60.815  -2.904  1.00  0.00     0.032 C 
HETATM   31  C14 UNL     1      29.777  60.955  -4.115  1.00  0.00     0.002 C 
HETATM   32  C15 UNL     1      30.072  59.462  -4.360  1.00  0.00     0.002 C 
HETATM   33  C16 UNL     1      28.685  58.822  -4.206  1.00  0.00     0.032 C 
ENDBRANCH  28  29
ENDBRANCH   4  28
TORSDOF 5
ENDMDL
MODEL 5
REMARK VINA RESULT: -8.054492430      1.710      2.946
REMARK  5 active torsions:
REMARK  status: ('A' for Active; 'I' for Inactive)
REMARK    1  A    between atoms: C7_12  and  C8_13 
REMARK    2  A    between atoms: C11_16  and  O1_17 
REMARK    3  A    between atoms: O1_17  and  C12_18 
REMARK    4  A    between atoms: C17_23  and  O2_24 
REMARK    5  A    between atoms: O2_24  and  C18_25 
ROOT
HETATM    1  C8  UNL     1      28.605  60.297   2.578  1.00  0.00    -0.023 A 
HETATM    2  C9  UNL     1      28.548  61.649   2.802  1.00  0.00     0.015 A 
HETATM    3  C10 UNL     1      28.560  62.166   4.084  1.00  0.00     0.040 A 
HETATM    4  C11 UNL     1      28.631  61.379   5.198  1.00  0.00     0.102 A 
HETATM    5  C17 UNL     1      28.691  59.985   4.985  1.00  0.00     0.103 A 
HETATM    6  C23 UNL     1      28.679  59.472   3.706  1.00  0.00     0.052 A 
ENDROOT
BRANCH   1   7
HETATM    7  C7  UNL     1      28.592  59.719   1.240  1.00  0.00    -0.025 A 
HETATM    8  C6  UNL     1      29.623  58.907   0.819  1.00  0.00     0.022 A 
HETATM    9  C5  UNL     1      29.629  58.340  -0.452  1.00  0.00    -0.020 A 
HETATM   10  C4  UNL     1      30.826  57.527  -0.656  1.00  0.00     0.271 C 
HETATM   11  C26 UNL     1      28.597  58.575  -1.333  1.00  0.00     0.021 A 
HETATM   12  N1  UNL     1      30.557  56.256  -1.292  1.00  0.00    -0.071 N 
HETATM   13  C3  UNL     1      30.231  56.358  -2.680  1.00  0.00     0.239 C 
ATOM     14  H12 UNL     1      29.828  55.751  -0.789  1.00  0.00     0.277 HD
ATOM     15  H11 UNL     1      31.338  55.614  -1.154  1.00  0.00     0.277 HD
HETATM   16  C2  UNL     1      28.761  56.601  -2.827  1.00  0.00     0.112 C 
HETATM   17  C1  UNL     1      28.425  58.070  -2.689  1.00  0.00     0.273 C 
HETATM   18  F1  UNL     1      27.082  58.204  -3.042  1.00  0.00    -0.201 F 
HETATM   19  F2  UNL     1      29.168  58.776  -3.625  1.00  0.00    -0.201 F 
HETATM   20  C25 UNL     1      27.559  59.383  -0.932  1.00  0.00     0.014 A 
HETATM   21  C24 UNL     1      27.552  59.949   0.333  1.00  0.00     0.013 A 
ENDBRANCH   1   7
BRANCH   5  22
HETATM   22  O2  UNL     1      28.760  59.204   6.110  1.00  0.00    -0.343 OA
BRANCH  22  23
HETATM   23  C18 UNL     1      27.736  58.446   6.654  1.00  0.00     0.129 C 
HETATM   24  C19 UNL     1      27.594  58.703   8.169  1.00  0.00     0.032 C 
HETATM   25  C20 UNL     1      26.166  58.313   8.465  1.00  0.00     0.002 C 
HETATM   26  C21 UNL     1      25.392  58.728   7.242  1.00  0.00     0.002 C 
HETATM   27  C22 UNL     1      26.373  58.852   6.108  1.00  0.00     0.032 C 
ENDBRANCH  22  23
ENDBRANCH   5  22
BRANCH   4  28
HETATM   28  O1  UNL     1      28.648  61.823   6.484  1.00  0.00    -0.343 OA
BRANCH  28  29
HETATM   29  C12 UNL     1      27.726  62.534   7.217  1.00  0.00     0.129 C 
HETATM   30  C13 UNL     1      26.304  62.345   6.832  1.00  0.00     0.032 C 
HETATM   31  C14 UNL     1      25.549  62.830   8.056  1.00  0.00     0.002 C 
HETATM   32  C15 UNL     1      26.333  62.060   9.136  1.00  0.00     0.002 C 
HETATM   33  C16 UNL     1      27.791  62.272   8.701  1.00  0.00     0.032 C 
ENDBRANCH  28  29
ENDBRANCH   4  28
TORSDOF 5
ENDMDL
