MODEL 1
REMARK VINA RESULT: -6.688238253      0.000      0.000
REMARK  6 active torsions:
REMARK  status: ('A' for Active; 'I' for Inactive)
REMARK    1  A    between atoms: O1_2  and  C2_3 
REMARK    2  A    between atoms: C17_18  and  O2_19 
REMARK    3  A    between atoms: C17_18  and  C18_21 
REMARK    4  A    between atoms: C19_22  and  C20_23 
REMARK    5  A    between atoms: C20_23  and  C21_24 
REMARK    6  A    between atoms: C21_24  and  C22_25 
ROOT
HETATM    1  C2  UNL     1      27.586  62.371   7.376  1.00  0.00     0.259 C 
HETATM    2  C3  UNL     1      27.187  61.593   8.628  1.00  0.00     0.061 C 
HETATM    3  C4  UNL     1      25.917  60.794   8.402  1.00  0.00     0.015 C 
HETATM    4  C5  UNL     1      26.187  59.493   7.785  1.00  0.00    -0.032 A 
HETATM    5  C6  UNL     1      27.370  58.657   8.075  1.00  0.00     0.011 A 
HETATM    6  C7  UNL     1      26.523  57.392   7.938  1.00  0.00     0.006 A 
HETATM    7  C8  UNL     1      25.337  58.316   7.783  1.00  0.00    -0.001 A 
HETATM    8  C9  UNL     1      25.240  59.220   6.677  1.00  0.00    -0.001 A 
HETATM    9  C10 UNL     1      26.033  59.137   5.390  1.00  0.00     0.007 C 
HETATM   10  C11 UNL     1      25.918  60.384   4.625  1.00  0.00     0.015 C 
HETATM   11  C12 UNL     1      27.085  61.049   4.073  1.00  0.00     0.017 C 
HETATM   12  C13 UNL     1      26.625  61.862   2.852  1.00  0.00     0.021 C 
HETATM   13  C14 UNL     1      27.575  62.141   5.059  1.00  0.00     0.136 C 
HETATM   14  C15 UNL     1      28.927  62.526   4.471  1.00  0.00     0.036 C 
HETATM   15  C16 UNL     1      29.200  61.571   3.328  1.00  0.00     0.045 C 
HETATM   16  C17 UNL     1      28.337  60.377   3.801  1.00  0.00     0.085 C 
HETATM   17  O3  UNL     1      27.665  61.547   6.271  1.00  0.00    -0.355 OA
ENDROOT
BRANCH  16  18
HETATM   18  O2  UNL     1      29.050  60.007   4.969  1.00  0.00    -0.385 OA
ATOM     19  H2  UNL     1      29.987  59.923   4.833  1.00  0.00     0.211 HD
ENDBRANCH  16  18
BRANCH  16  20
HETATM   20  C18 UNL     1      28.457  59.333   2.829  1.00  0.00     0.007 C 
HETATM   21  C19 UNL     1      29.167  59.294   1.722  1.00  0.00    -0.027 C 
BRANCH  21  22
HETATM   22  C20 UNL     1      29.178  58.114   0.813  1.00  0.00     0.030 C 
BRANCH  22  23
HETATM   23  C21 UNL     1      28.616  58.503  -0.546  1.00  0.00     0.045 C 
BRANCH  23  24
HETATM   24  C22 UNL     1      29.405  57.895  -1.671  1.00  0.00     0.110 C 
HETATM   25  C23 UNL     1      30.288  58.935  -2.332  1.00  0.00     0.050 C 
HETATM   26 CL1  UNL     1      28.382  57.127  -2.885  1.00  0.00    -0.102 Cl
HETATM   27 CL2  UNL     1      30.474  56.652  -0.936  1.00  0.00    -0.102 Cl
ENDBRANCH  23  24
ENDBRANCH  22  23
ENDBRANCH  21  22
ENDBRANCH  16  20
BRANCH   1  28
HETATM   28  O1  UNL     1      26.772  63.475   7.201  1.00  0.00    -0.366 OA
HETATM   29  C1  UNL     1      27.012  64.392   8.220  1.00  0.00     0.204 C 
ENDBRANCH   1  28
TORSDOF 6
ENDMDL
MODEL 2
REMARK VINA RESULT: -6.653816201      1.081      1.288
REMARK  6 active torsions:
REMARK  status: ('A' for Active; 'I' for Inactive)
REMARK    1  A    between atoms: O1_2  and  C2_3 
REMARK    2  A    between atoms: C17_18  and  O2_19 
REMARK    3  A    between atoms: C17_18  and  C18_21 
REMARK    4  A    between atoms: C19_22  and  C20_23 
REMARK    5  A    between atoms: C20_23  and  C21_24 
REMARK    6  A    between atoms: C21_24  and  C22_25 
ROOT
HETATM    1  C2  UNL     1      27.736  61.883   8.040  1.00  0.00     0.259 C 
HETATM    2  C3  UNL     1      26.936  60.992   8.987  1.00  0.00     0.061 C 
HETATM    3  C4  UNL     1      25.708  60.420   8.304  1.00  0.00     0.015 C 
HETATM    4  C5  UNL     1      26.014  59.200   7.552  1.00  0.00    -0.032 A 
HETATM    5  C6  UNL     1      26.987  58.174   7.978  1.00  0.00     0.011 A 
HETATM    6  C7  UNL     1      26.095  57.074   7.404  1.00  0.00     0.006 A 
HETATM    7  C8  UNL     1      25.089  58.166   7.121  1.00  0.00    -0.001 A 
HETATM    8  C9  UNL     1      25.386  59.229   6.209  1.00  0.00    -0.001 A 
HETATM    9  C10 UNL     1      26.491  59.229   5.173  1.00  0.00     0.007 C 
HETATM   10  C11 UNL     1      26.708  60.579   4.642  1.00  0.00     0.015 C 
HETATM   11  C12 UNL     1      28.039  61.150   4.536  1.00  0.00     0.017 C 
HETATM   12  C13 UNL     1      28.012  62.190   3.405  1.00  0.00     0.021 C 
HETATM   13  C14 UNL     1      28.341  62.004   5.794  1.00  0.00     0.136 C 
HETATM   14  C15 UNL     1      29.832  62.280   5.651  1.00  0.00     0.036 C 
HETATM   15  C16 UNL     1      30.317  61.477   4.461  1.00  0.00     0.045 C 
HETATM   16  C17 UNL     1      29.249  60.357   4.476  1.00  0.00     0.085 C 
HETATM   17  O3  UNL     1      28.038  61.230   6.861  1.00  0.00    -0.355 OA
ENDROOT
BRANCH  16  18
HETATM   18  O2  UNL     1      29.576  59.723   5.700  1.00  0.00    -0.385 OA
ATOM     19  H2  UNL     1      30.184  60.218   6.236  1.00  0.00     0.211 HD
ENDBRANCH  16  18
BRANCH  16  20
HETATM   20  C18 UNL     1      29.532  59.464   3.394  1.00  0.00     0.007 C 
HETATM   21  C19 UNL     1      28.768  59.089   2.391  1.00  0.00    -0.027 C 
BRANCH  21  22
HETATM   22  C20 UNL     1      29.226  58.140   1.338  1.00  0.00     0.030 C 
BRANCH  22  23
HETATM   23  C21 UNL     1      28.563  58.479   0.013  1.00  0.00     0.045 C 
BRANCH  23  24
HETATM   24  C22 UNL     1      29.467  58.194  -1.153  1.00  0.00     0.110 C 
HETATM   25  C23 UNL     1      30.422  57.062  -0.829  1.00  0.00     0.050 C 
HETATM   26 CL1  UNL     1      30.379  59.611  -1.672  1.00  0.00    -0.102 Cl
HETATM   27 CL2  UNL     1      28.411  57.652  -2.502  1.00  0.00    -0.102 Cl
ENDBRANCH  23  24
ENDBRANCH  22  23
ENDBRANCH  21  22
ENDBRANCH  16  20
BRANCH   1  28
HETATM   28  O1  UNL     1      27.109  63.104   7.865  1.00  0.00    -0.366 OA
HETATM   29  C1  UNL     1      27.076  63.784   9.079  1.00  0.00     0.204 C 
ENDBRANCH   1  28
TORSDOF 6
ENDMDL
MODEL 3
REMARK VINA RESULT: -6.445558431      1.314      1.456
REMARK  6 active torsions:
REMARK  status: ('A' for Active; 'I' for Inactive)
REMARK    1  A    between atoms: O1_2  and  C2_3 
REMARK    2  A    between atoms: C17_18  and  O2_19 
REMARK    3  A    between atoms: C17_18  and  C18_21 
REMARK    4  A    between atoms: C19_22  and  C20_23 
REMARK    5  A    between atoms: C20_23  and  C21_24 
REMARK    6  A    between atoms: C21_24  and  C22_25 
ROOT
HETATM    1  C2  UNL     1      28.638  61.596   7.376  1.00  0.00     0.259 C 
HETATM    2  C3  UNL     1      27.816  60.878   8.443  1.00  0.00     0.061 C 
HETATM    3  C4  UNL     1      26.394  60.630   7.974  1.00  0.00     0.015 C 
HETATM    4  C5  UNL     1      26.282  59.401   7.183  1.00  0.00    -0.032 A 
HETATM    5  C6  UNL     1      27.044  58.164   7.445  1.00  0.00     0.011 A 
HETATM    6  C7  UNL     1      25.840  57.321   7.027  1.00  0.00     0.006 A 
HETATM    7  C8  UNL     1      25.085  58.625   6.913  1.00  0.00    -0.001 A 
HETATM    8  C9  UNL     1      25.471  59.625   5.963  1.00  0.00    -0.001 A 
HETATM    9  C10 UNL     1      26.363  59.408   4.759  1.00  0.00     0.007 C 
HETATM   10  C11 UNL     1      26.801  60.691   4.197  1.00  0.00     0.015 C 
HETATM   11  C12 UNL     1      28.193  60.943   3.871  1.00  0.00     0.017 C 
HETATM   12  C13 UNL     1      28.227  62.003   2.759  1.00  0.00     0.021 C 
HETATM   13  C14 UNL     1      28.884  61.657   5.061  1.00  0.00     0.136 C 
HETATM   14  C15 UNL     1      30.356  61.588   4.672  1.00  0.00     0.036 C 
HETATM   15  C16 UNL     1      30.441  60.739   3.420  1.00  0.00     0.045 C 
HETATM   16  C17 UNL     1      29.158  59.896   3.612  1.00  0.00     0.085 C 
HETATM   17  O3  UNL     1      28.585  60.935   6.164  1.00  0.00    -0.355 OA
ENDROOT
BRANCH  16  18
HETATM   18  O2  UNL     1      29.521  59.158   4.767  1.00  0.00    -0.385 OA
ATOM     19  H2  UNL     1      28.824  58.607   5.102  1.00  0.00     0.211 HD
ENDBRANCH  16  18
BRANCH  16  20
HETATM   20  C18 UNL     1      29.047  59.002   2.500  1.00  0.00     0.007 C 
HETATM   21  C19 UNL     1      29.658  59.029   1.336  1.00  0.00    -0.027 C 
BRANCH  21  22
HETATM   22  C20 UNL     1      29.425  58.007   0.278  1.00  0.00     0.030 C 
BRANCH  22  23
HETATM   23  C21 UNL     1      30.727  57.708  -0.448  1.00  0.00     0.045 C 
BRANCH  23  24
HETATM   24  C22 UNL     1      30.544  57.697  -1.940  1.00  0.00     0.110 C 
HETATM   25  C23 UNL     1      31.427  56.646  -2.583  1.00  0.00     0.050 C 
HETATM   26 CL1  UNL     1      30.857  59.268  -2.677  1.00  0.00    -0.102 Cl
HETATM   27 CL2  UNL     1      28.834  57.238  -2.245  1.00  0.00    -0.102 Cl
ENDBRANCH  23  24
ENDBRANCH  22  23
ENDBRANCH  21  22
ENDBRANCH  16  20
BRANCH   1  28
HETATM   28  O1  UNL     1      28.294  62.933   7.305  1.00  0.00    -0.366 OA
HETATM   29  C1  UNL     1      28.761  63.591   8.439  1.00  0.00     0.204 C 
ENDBRANCH   1  28
TORSDOF 6
ENDMDL
MODEL 4
REMARK VINA RESULT: -6.364014591      5.563      8.616
REMARK  6 active torsions:
REMARK  status: ('A' for Active; 'I' for Inactive)
REMARK    1  A    between atoms: O1_2  and  C2_3 
REMARK    2  A    between atoms: C17_18  and  O2_19 
REMARK    3  A    between atoms: C17_18  and  C18_21 
REMARK    4  A    between atoms: C19_22  and  C20_23 
REMARK    5  A    between atoms: C20_23  and  C21_24 
REMARK    6  A    between atoms: C21_24  and  C22_25 
ROOT
HETATM    1  C2  UNL     1      26.400  61.726   4.689  1.00  0.00     0.259 C 
HETATM    2  C3  UNL     1      25.771  60.339   4.580  1.00  0.00     0.061 C 
HETATM    3  C4  UNL     1      26.714  59.261   5.081  1.00  0.00     0.015 C 
HETATM    4  C5  UNL     1      26.632  59.090   6.534  1.00  0.00    -0.032 A 
HETATM    5  C6  UNL     1      25.388  59.202   7.322  1.00  0.00     0.011 A 
HETATM    6  C7  UNL     1      25.862  58.085   8.250  1.00  0.00     0.006 A 
HETATM    7  C8  UNL     1      27.043  57.938   7.318  1.00  0.00    -0.001 A 
HETATM    8  C9  UNL     1      27.983  59.004   7.139  1.00  0.00    -0.001 A 
HETATM    9  C10 UNL     1      28.164  60.193   8.059  1.00  0.00     0.007 C 
HETATM   10  C11 UNL     1      28.975  61.232   7.414  1.00  0.00     0.015 C 
HETATM   11  C12 UNL     1      28.565  62.625   7.411  1.00  0.00     0.017 C 
HETATM   12  C13 UNL     1      29.834  63.484   7.291  1.00  0.00     0.021 C 
HETATM   13  C14 UNL     1      27.800  62.939   6.100  1.00  0.00     0.136 C 
HETATM   14  C15 UNL     1      27.216  64.317   6.386  1.00  0.00     0.036 C 
HETATM   15  C16 UNL     1      27.528  64.636   7.834  1.00  0.00     0.045 C 
HETATM   16  C17 UNL     1      27.650  63.193   8.378  1.00  0.00     0.085 C 
HETATM   17  O3  UNL     1      26.861  61.975   5.966  1.00  0.00    -0.355 OA
ENDROOT
BRANCH  16  18
HETATM   18  O2  UNL     1      26.310  62.758   8.218  1.00  0.00    -0.385 OA
ATOM     19  H2  UNL     1      25.666  63.435   8.388  1.00  0.00     0.211 HD
ENDBRANCH  16  18
BRANCH  16  20
HETATM   20  C18 UNL     1      27.954  63.273   9.774  1.00  0.00     0.007 C 
HETATM   21  C19 UNL     1      28.427  64.280  10.475  1.00  0.00    -0.027 C 
BRANCH  21  22
HETATM   22  C20 UNL     1      28.687  64.192  11.939  1.00  0.00     0.030 C 
BRANCH  22  23
HETATM   23  C21 UNL     1      27.643  63.303  12.597  1.00  0.00     0.045 C 
BRANCH  23  24
HETATM   24  C22 UNL     1      27.552  63.551  14.076  1.00  0.00     0.110 C 
HETATM   25  C23 UNL     1      27.392  62.247  14.832  1.00  0.00     0.050 C 
HETATM   26 CL1  UNL     1      26.241  64.650  14.504  1.00  0.00    -0.102 Cl
HETATM   27 CL2  UNL     1      29.115  64.285  14.572  1.00  0.00    -0.102 Cl
ENDBRANCH  23  24
ENDBRANCH  22  23
ENDBRANCH  21  22
ENDBRANCH  16  20
BRANCH   1  28
HETATM   28  O1  UNL     1      27.346  61.917   3.699  1.00  0.00    -0.366 OA
HETATM   29  C1  UNL     1      26.707  62.204   2.497  1.00  0.00     0.204 C 
ENDBRANCH   1  28
TORSDOF 6
ENDMDL
MODEL 5
REMARK VINA RESULT: -6.359775237      3.607      4.316
REMARK  6 active torsions:
REMARK  status: ('A' for Active; 'I' for Inactive)
REMARK    1  A    between atoms: O1_2  and  C2_3 
REMARK    2  A    between atoms: C17_18  and  O2_19 
REMARK    3  A    between atoms: C17_18  and  C18_21 
REMARK    4  A    between atoms: C19_22  and  C20_23 
REMARK    5  A    between atoms: C20_23  and  C21_24 
REMARK    6  A    between atoms: C21_24  and  C22_25 
ROOT
HETATM    1  C2  UNL     1      26.563  62.418   8.235  1.00  0.00     0.259 C 
HETATM    2  C3  UNL     1      25.580  61.366   8.742  1.00  0.00     0.061 C 
HETATM    3  C4  UNL     1      25.117  60.453   7.622  1.00  0.00     0.015 C 
HETATM    4  C5  UNL     1      26.051  59.346   7.393  1.00  0.00    -0.032 A 
HETATM    5  C6  UNL     1      26.799  58.647   8.458  1.00  0.00     0.011 A 
HETATM    6  C7  UNL     1      26.655  57.325   7.704  1.00  0.00     0.006 A 
HETATM    7  C8  UNL     1      25.785  58.083   6.728  1.00  0.00    -0.001 A 
HETATM    8  C9  UNL     1      26.313  59.160   5.946  1.00  0.00    -0.001 A 
HETATM    9  C10 UNL     1      27.780  59.438   5.694  1.00  0.00     0.007 C 
HETATM   10  C11 UNL     1      27.965  60.780   5.129  1.00  0.00     0.015 C 
HETATM   11  C12 UNL     1      28.959  61.697   5.657  1.00  0.00     0.017 C 
HETATM   12  C13 UNL     1      29.359  62.655   4.524  1.00  0.00     0.021 C 
HETATM   13  C14 UNL     1      28.297  62.638   6.697  1.00  0.00     0.136 C 
HETATM   14  C15 UNL     1      29.503  63.317   7.336  1.00  0.00     0.036 C 
HETATM   15  C16 UNL     1      30.738  62.647   6.769  1.00  0.00     0.045 C 
HETATM   16  C17 UNL     1      30.122  61.274   6.407  1.00  0.00     0.085 C 
HETATM   17  O3  UNL     1      27.614  61.842   7.550  1.00  0.00    -0.355 OA
ENDROOT
BRANCH  16  18
HETATM   18  O2  UNL     1      29.819  60.793   7.705  1.00  0.00    -0.385 OA
ATOM     19  H2  UNL     1      30.384  60.084   7.990  1.00  0.00     0.211 HD
ENDBRANCH  16  18
BRANCH  16  20
HETATM   20  C18 UNL     1      31.156  60.465   5.836  1.00  0.00     0.007 C 
HETATM   21  C19 UNL     1      32.375  60.795   5.468  1.00  0.00    -0.027 C 
BRANCH  21  22
HETATM   22  C20 UNL     1      33.334  59.816   4.885  1.00  0.00     0.030 C 
BRANCH  22  23
HETATM   23  C21 UNL     1      34.750  60.363   4.976  1.00  0.00     0.045 C 
BRANCH  23  24
HETATM   24  C22 UNL     1      35.352  60.581   3.616  1.00  0.00     0.110 C 
HETATM   25  C23 UNL     1      36.366  61.708   3.651  1.00  0.00     0.050 C 
HETATM   26 CL1  UNL     1      34.141  60.909   2.378  1.00  0.00    -0.102 Cl
HETATM   27 CL2  UNL     1      36.227  59.069   3.193  1.00  0.00    -0.102 Cl
ENDBRANCH  23  24
ENDBRANCH  22  23
ENDBRANCH  21  22
ENDBRANCH  16  20
BRANCH   1  28
HETATM   28  O1  UNL     1      25.904  63.408   7.530  1.00  0.00    -0.366 OA
HETATM   29  C1  UNL     1      25.528  64.425   8.402  1.00  0.00     0.204 C 
ENDBRANCH   1  28
TORSDOF 6
ENDMDL
