MODEL 1
REMARK VINA RESULT: -7.594710269      0.000      0.000
REMARK  5 active torsions:
REMARK  status: ('A' for Active; 'I' for Inactive)
REMARK    1  A    between atoms: C2_2  and  C3_3 
REMARK    2  A    between atoms: C3_3  and  C4_4 
REMARK    3  A    between atoms: C7_7  and  N1_8 
REMARK    4  A    between atoms: C10_11  and  C11_12 
REMARK    5  A    between atoms: C12_15  and  C13_16 
ROOT
HETATM    1  C11 UNL     1      29.350  58.335  -0.315  1.00  0.00     0.085 A 
HETATM    2  N2  UNL     1      29.063  58.560  -1.606  1.00  0.00    -0.344 N 
ATOM      3  H2  UNL     1      28.440  59.298  -1.934  1.00  0.00     0.167 HD
HETATM    4  C12 UNL     1      29.695  57.696  -2.411  1.00  0.00     0.061 A 
HETATM    5  C19 UNL     1      30.427  56.876  -1.573  1.00  0.00     0.119 A 
HETATM    6  N4  UNL     1      30.197  57.288  -0.309  1.00  0.00    -0.353 N 
ATOM      7  H4  UNL     1      30.604  56.868   0.526  1.00  0.00     0.166 HD
ENDROOT
BRANCH   1   8
HETATM    8  C10 UNL     1      28.879  59.043   0.896  1.00  0.00     0.057 C 
HETATM    9  C9  UNL     1      29.962  59.207   1.947  1.00  0.00     0.042 C 
HETATM   10  C8  UNL     1      29.417  60.016   3.061  1.00  0.00     0.273 C 
HETATM   11  N1  UNL     1      28.046  60.227   3.125  1.00  0.00     0.093 N 
HETATM   12  C21 UNL     1      27.154  59.282   2.565  1.00  0.00     0.273 C 
HETATM   13  C20 UNL     1      27.769  58.299   1.608  1.00  0.00     0.042 C 
BRANCH  11  14
HETATM   14  C7  UNL     1      27.565  60.514   4.490  1.00  0.00     0.223 C 
HETATM   15  C6  UNL     1      28.264  59.627   5.423  1.00  0.00     0.036 C 
HETATM   16  C5  UNL     1      27.392  58.720   6.249  1.00  0.00     0.007 C 
HETATM   17  C4  UNL     1      26.141  59.485   6.669  1.00  0.00    -0.014 C 
HETATM   18  C23 UNL     1      25.353  59.653   5.399  1.00  0.00     0.007 C 
HETATM   19  C22 UNL     1      26.099  60.545   4.474  1.00  0.00     0.036 C 
BRANCH  17  20
HETATM   20  C3  UNL     1      25.423  58.675   7.711  1.00  0.00     0.004 C 
BRANCH  20  21
HETATM   21  C2  UNL     1      26.037  57.299   7.888  1.00  0.00    -0.004 C 
HETATM   22  C1  UNL     1      24.884  56.294   7.774  1.00  0.00     0.005 C 
ENDBRANCH  20  21
ENDBRANCH  17  20
ENDBRANCH  11  14
ENDBRANCH   1   8
BRANCH   4  23
HETATM   23  C13 UNL     1      29.651  57.606  -3.882  1.00  0.00     0.024 A 
HETATM   24  C14 UNL     1      28.748  56.795  -4.542  1.00  0.00    -0.032 A 
HETATM   25  C15 UNL     1      27.811  56.005  -3.703  1.00  0.00     0.050 C 
HETATM   26  C16 UNL     1      28.737  56.739  -5.929  1.00  0.00     0.097 A 
HETATM   27  N3  UNL     1      29.618  57.485  -6.632  1.00  0.00    -0.355 N 
HETATM   28  C17 UNL     1      30.516  58.289  -6.035  1.00  0.00     0.126 A 
ATOM     29  H3  UNL     1      29.601  57.436  -7.650  1.00  0.00     0.166 HD
HETATM   30 CL1  UNL     1      31.653  59.251  -6.993  1.00  0.00    -0.063 Cl
HETATM   31  C18 UNL     1      30.523  58.341  -4.659  1.00  0.00     0.085 A 
HETATM   32 CL2  UNL     1      31.680  59.380  -3.839  1.00  0.00    -0.080 Cl
ENDBRANCH   4  23
TORSDOF 5
ENDMDL
MODEL 2
REMARK VINA RESULT: -7.497196654      4.073     10.477
REMARK  5 active torsions:
REMARK  status: ('A' for Active; 'I' for Inactive)
REMARK    1  A    between atoms: C2_2  and  C3_3 
REMARK    2  A    between atoms: C3_3  and  C4_4 
REMARK    3  A    between atoms: C7_7  and  N1_8 
REMARK    4  A    between atoms: C10_11  and  C11_12 
REMARK    5  A    between atoms: C12_15  and  C13_16 
ROOT
HETATM    1  C11 UNL     1      26.774  60.047   3.349  1.00  0.00     0.085 A 
HETATM    2  N2  UNL     1      27.227  59.852   4.597  1.00  0.00    -0.344 N 
ATOM      3  H2  UNL     1      28.179  59.564   4.823  1.00  0.00     0.167 HD
HETATM    4  C12 UNL     1      26.274  60.083   5.510  1.00  0.00     0.061 A 
HETATM    5  C19 UNL     1      25.152  60.447   4.790  1.00  0.00     0.119 A 
HETATM    6  N4  UNL     1      25.486  60.415   3.484  1.00  0.00    -0.353 N 
ATOM      7  H4  UNL     1      24.857  60.637   2.713  1.00  0.00     0.166 HD
ENDROOT
BRANCH   1   8
HETATM    8  C10 UNL     1      27.479  59.909   2.055  1.00  0.00     0.057 C 
HETATM    9  C9  UNL     1      26.739  60.563   0.903  1.00  0.00     0.042 C 
HETATM   10  C8  UNL     1      27.577  60.459  -0.313  1.00  0.00     0.273 C 
HETATM   11  N1  UNL     1      28.668  59.599  -0.302  1.00  0.00     0.093 N 
HETATM   12  C21 UNL     1      28.666  58.459   0.535  1.00  0.00     0.273 C 
HETATM   13  C20 UNL     1      27.638  58.463   1.632  1.00  0.00     0.042 C 
BRANCH  11  14
HETATM   14  C7  UNL     1      29.062  59.143  -1.648  1.00  0.00     0.223 C 
HETATM   15  C6  UNL     1      27.952  59.403  -2.568  1.00  0.00     0.036 C 
HETATM   16  C5  UNL     1      27.391  58.203  -3.281  1.00  0.00     0.007 C 
HETATM   17  C4  UNL     1      28.538  57.275  -3.666  1.00  0.00    -0.014 C 
HETATM   18  C23 UNL     1      29.020  56.703  -2.361  1.00  0.00     0.007 C 
HETATM   19  C22 UNL     1      29.616  57.790  -1.540  1.00  0.00     0.036 C 
BRANCH  17  20
HETATM   20  C3  UNL     1      28.005  56.234  -4.609  1.00  0.00     0.004 C 
BRANCH  20  21
HETATM   21  C2  UNL     1      28.454  56.475  -6.039  1.00  0.00    -0.004 C 
HETATM   22  C1  UNL     1      29.939  56.850  -5.967  1.00  0.00     0.005 C 
ENDBRANCH  20  21
ENDBRANCH  17  20
ENDBRANCH  11  14
ENDBRANCH   1   8
BRANCH   4  23
HETATM   23  C13 UNL     1      26.363  59.986   6.978  1.00  0.00     0.024 A 
HETATM   24  C14 UNL     1      26.144  58.798   7.650  1.00  0.00    -0.032 A 
HETATM   25  C15 UNL     1      25.811  57.608   6.828  1.00  0.00     0.050 C 
HETATM   26  C16 UNL     1      26.238  58.748   9.034  1.00  0.00     0.097 A 
HETATM   27  N3  UNL     1      26.546  59.870   9.722  1.00  0.00    -0.355 N 
HETATM   28  C17 UNL     1      26.767  61.049   9.113  1.00  0.00     0.126 A 
ATOM     29  H3  UNL     1      26.612  59.821  10.739  1.00  0.00     0.166 HD
HETATM   30 CL1  UNL     1      27.168  62.496  10.051  1.00  0.00    -0.063 Cl
HETATM   31  C18 UNL     1      26.672  61.094   7.740  1.00  0.00     0.085 A 
HETATM   32 CL2  UNL     1      26.955  62.615   6.904  1.00  0.00    -0.080 Cl
ENDBRANCH   4  23
TORSDOF 5
ENDMDL
MODEL 3
REMARK VINA RESULT: -7.352464058      2.589      3.116
REMARK  5 active torsions:
REMARK  status: ('A' for Active; 'I' for Inactive)
REMARK    1  A    between atoms: C2_2  and  C3_3 
REMARK    2  A    between atoms: C3_3  and  C4_4 
REMARK    3  A    between atoms: C7_7  and  N1_8 
REMARK    4  A    between atoms: C10_11  and  C11_12 
REMARK    5  A    between atoms: C12_15  and  C13_16 
ROOT
HETATM    1  C11 UNL     1      29.921  59.816   0.665  1.00  0.00     0.085 A 
HETATM    2  N2  UNL     1      30.780  58.812   0.433  1.00  0.00    -0.344 N 
ATOM      3  H2  UNL     1      31.037  58.107   1.123  1.00  0.00     0.167 HD
HETATM    4  C12 UNL     1      31.258  58.850  -0.818  1.00  0.00     0.061 A 
HETATM    5  C19 UNL     1      30.662  59.947  -1.410  1.00  0.00     0.119 A 
HETATM    6  N4  UNL     1      29.858  60.512  -0.486  1.00  0.00    -0.353 N 
ATOM      7  H4  UNL     1      29.286  61.343  -0.637  1.00  0.00     0.166 HD
ENDROOT
BRANCH   1   8
HETATM    8  C10 UNL     1      29.166  60.150   1.893  1.00  0.00     0.057 C 
HETATM    9  C9  UNL     1      30.044  60.716   2.994  1.00  0.00     0.042 C 
HETATM   10  C8  UNL     1      29.178  61.112   4.128  1.00  0.00     0.273 C 
HETATM   11  N1  UNL     1      27.861  60.672   4.149  1.00  0.00     0.093 N 
HETATM   12  C21 UNL     1      27.504  59.466   3.502  1.00  0.00     0.273 C 
HETATM   13  C20 UNL     1      28.510  58.936   2.518  1.00  0.00     0.042 C 
BRANCH  11  14
HETATM   14  C7  UNL     1      27.288  60.617   5.507  1.00  0.00     0.223 C 
HETATM   15  C6  UNL     1      28.234  59.919   6.380  1.00  0.00     0.036 C 
HETATM   16  C5  UNL     1      27.714  58.680   7.058  1.00  0.00     0.007 C 
HETATM   17  C4  UNL     1      26.270  58.918   7.485  1.00  0.00    -0.014 C 
HETATM   18  C23 UNL     1      25.493  58.955   6.197  1.00  0.00     0.007 C 
HETATM   19  C22 UNL     1      25.902  60.149   5.411  1.00  0.00     0.036 C 
BRANCH  17  20
HETATM   20  C3  UNL     1      25.857  57.797   8.395  1.00  0.00     0.004 C 
BRANCH  20  21
HETATM   21  C2  UNL     1      24.927  56.815   7.705  1.00  0.00    -0.004 C 
HETATM   22  C1  UNL     1      25.630  55.452   7.748  1.00  0.00     0.005 C 
ENDBRANCH  20  21
ENDBRANCH  17  20
ENDBRANCH  11  14
ENDBRANCH   1   8
BRANCH   4  23
HETATM   23  C13 UNL     1      32.216  57.935  -1.466  1.00  0.00     0.024 A 
HETATM   24  C14 UNL     1      31.803  56.848  -2.213  1.00  0.00    -0.032 A 
HETATM   25  C15 UNL     1      30.339  56.631  -2.340  1.00  0.00     0.050 C 
HETATM   26  C16 UNL     1      32.736  56.011  -2.809  1.00  0.00     0.097 A 
HETATM   27  N3  UNL     1      34.054  56.266  -2.654  1.00  0.00    -0.355 N 
HETATM   28  C17 UNL     1      34.504  57.311  -1.937  1.00  0.00     0.126 A 
ATOM     29  H3  UNL     1      34.731  55.645  -3.097  1.00  0.00     0.166 HD
HETATM   30 CL1  UNL     1      36.241  57.611  -1.758  1.00  0.00    -0.063 Cl
HETATM   31  C18 UNL     1      33.575  58.138  -1.347  1.00  0.00     0.085 A 
HETATM   32 CL2  UNL     1      34.121  59.516  -0.401  1.00  0.00    -0.080 Cl
ENDBRANCH   4  23
TORSDOF 5
ENDMDL
MODEL 4
REMARK VINA RESULT: -7.198333203      4.062     10.455
REMARK  5 active torsions:
REMARK  status: ('A' for Active; 'I' for Inactive)
REMARK    1  A    between atoms: C2_2  and  C3_3 
REMARK    2  A    between atoms: C3_3  and  C4_4 
REMARK    3  A    between atoms: C7_7  and  N1_8 
REMARK    4  A    between atoms: C10_11  and  C11_12 
REMARK    5  A    between atoms: C12_15  and  C13_16 
ROOT
HETATM    1  C11 UNL     1      28.877  59.459   4.013  1.00  0.00     0.085 A 
HETATM    2  N2  UNL     1      27.927  59.854   4.874  1.00  0.00    -0.344 N 
ATOM      3  H2  UNL     1      27.024  60.237   4.595  1.00  0.00     0.167 HD
HETATM    4  C12 UNL     1      28.311  59.684   6.146  1.00  0.00     0.061 A 
HETATM    5  C19 UNL     1      29.583  59.148   6.081  1.00  0.00     0.119 A 
HETATM    6  N4  UNL     1      29.898  59.023   4.775  1.00  0.00    -0.353 N 
ATOM      7  H4  UNL     1      30.779  58.654   4.418  1.00  0.00     0.166 HD
ENDROOT
BRANCH   1   8
HETATM    8  C10 UNL     1      28.875  59.468   2.533  1.00  0.00     0.057 C 
HETATM    9  C9  UNL     1      28.045  58.347   1.934  1.00  0.00     0.042 C 
HETATM   10  C8  UNL     1      28.025  58.513   0.463  1.00  0.00     0.273 C 
HETATM   11  N1  UNL     1      28.925  59.392  -0.123  1.00  0.00     0.093 N 
HETATM   12  C21 UNL     1      30.164  59.664   0.504  1.00  0.00     0.273 C 
HETATM   13  C20 UNL     1      30.259  59.267   1.950  1.00  0.00     0.042 C 
BRANCH  11  14
HETATM   14  C7  UNL     1      29.218  59.071  -1.532  1.00  0.00     0.223 C 
HETATM   15  C6  UNL     1      28.013  59.322  -2.325  1.00  0.00     0.036 C 
HETATM   16  C5  UNL     1      27.464  58.143  -3.083  1.00  0.00     0.007 C 
HETATM   17  C4  UNL     1      28.627  57.332  -3.645  1.00  0.00    -0.014 C 
HETATM   18  C23 UNL     1      29.266  56.696  -2.440  1.00  0.00     0.007 C 
HETATM   19  C22 UNL     1      29.866  57.756  -1.588  1.00  0.00     0.036 C 
BRANCH  17  20
HETATM   20  C3  UNL     1      28.075  56.331  -4.620  1.00  0.00     0.004 C 
BRANCH  20  21
HETATM   21  C2  UNL     1      28.452  56.663  -6.052  1.00  0.00    -0.004 C 
HETATM   22  C1  UNL     1      29.936  57.050  -6.030  1.00  0.00     0.005 C 
ENDBRANCH  20  21
ENDBRANCH  17  20
ENDBRANCH  11  14
ENDBRANCH   1   8
BRANCH   4  23
HETATM   23  C13 UNL     1      27.566  59.988   7.382  1.00  0.00     0.024 A 
HETATM   24  C14 UNL     1      26.704  59.078   7.963  1.00  0.00    -0.032 A 
HETATM   25  C15 UNL     1      26.551  57.765   7.287  1.00  0.00     0.050 C 
HETATM   26  C16 UNL     1      26.022  59.402   9.128  1.00  0.00     0.097 A 
HETATM   27  N3  UNL     1      26.208  60.616   9.692  1.00  0.00    -0.355 N 
HETATM   28  C17 UNL     1      27.037  61.535   9.163  1.00  0.00     0.126 A 
ATOM     29  H3  UNL     1      25.702  60.844  10.548  1.00  0.00     0.166 HD
HETATM   30 CL1  UNL     1      27.252  63.115   9.935  1.00  0.00    -0.063 Cl
HETATM   31  C18 UNL     1      27.710  61.209   8.008  1.00  0.00     0.085 A 
HETATM   32 CL2  UNL     1      28.804  62.381   7.285  1.00  0.00    -0.080 Cl
ENDBRANCH   4  23
TORSDOF 5
ENDMDL
MODEL 5
REMARK VINA RESULT: -7.178926751      1.364      1.850
REMARK  5 active torsions:
REMARK  status: ('A' for Active; 'I' for Inactive)
REMARK    1  A    between atoms: C2_2  and  C3_3 
REMARK    2  A    between atoms: C3_3  and  C4_4 
REMARK    3  A    between atoms: C7_7  and  N1_8 
REMARK    4  A    between atoms: C10_11  and  C11_12 
REMARK    5  A    between atoms: C12_15  and  C13_16 
ROOT
HETATM    1  C11 UNL     1      29.535  58.315  -0.213  1.00  0.00     0.085 A 
HETATM    2  N2  UNL     1      29.446  58.631  -1.514  1.00  0.00    -0.344 N 
ATOM      3  H2  UNL     1      28.973  59.461  -1.871  1.00  0.00     0.167 HD
HETATM    4  C12 UNL     1      30.057  57.723  -2.286  1.00  0.00     0.061 A 
HETATM    5  C19 UNL     1      30.562  56.775  -1.416  1.00  0.00     0.119 A 
HETATM    6  N4  UNL     1      30.229  57.162  -0.167  1.00  0.00    -0.353 N 
ATOM      7  H4  UNL     1      30.468  56.656   0.686  1.00  0.00     0.166 HD
ENDROOT
BRANCH   1   8
HETATM    8  C10 UNL     1      29.012  59.030   0.972  1.00  0.00     0.057 C 
HETATM    9  C9  UNL     1      30.078  59.309   2.016  1.00  0.00     0.042 C 
HETATM   10  C8  UNL     1      29.472  60.116   3.100  1.00  0.00     0.273 C 
HETATM   11  N1  UNL     1      28.089  60.229   3.158  1.00  0.00     0.093 N 
HETATM   12  C21 UNL     1      27.270  59.202   2.632  1.00  0.00     0.273 C 
HETATM   13  C20 UNL     1      27.957  58.232   1.712  1.00  0.00     0.042 C 
BRANCH  11  14
HETATM   14  C7  UNL     1      27.587  60.529   4.512  1.00  0.00     0.223 C 
HETATM   15  C6  UNL     1      28.275  59.656   5.465  1.00  0.00     0.036 C 
HETATM   16  C5  UNL     1      27.394  58.755   6.288  1.00  0.00     0.007 C 
HETATM   17  C4  UNL     1      26.134  59.518   6.680  1.00  0.00    -0.014 C 
HETATM   18  C23 UNL     1      25.364  59.669   5.396  1.00  0.00     0.007 C 
HETATM   19  C22 UNL     1      26.121  60.553   4.472  1.00  0.00     0.036 C 
BRANCH  17  20
HETATM   20  C3  UNL     1      25.403  58.717   7.720  1.00  0.00     0.004 C 
BRANCH  20  21
HETATM   21  C2  UNL     1      26.040  57.359   7.946  1.00  0.00    -0.004 C 
HETATM   22  C1  UNL     1      24.939  56.319   7.703  1.00  0.00     0.005 C 
ENDBRANCH  20  21
ENDBRANCH  17  20
ENDBRANCH  11  14
ENDBRANCH   1   8
BRANCH   4  23
HETATM   23  C13 UNL     1      30.188  57.701  -3.755  1.00  0.00     0.024 A 
HETATM   24  C14 UNL     1      31.286  58.234  -4.402  1.00  0.00    -0.032 A 
HETATM   25  C15 UNL     1      32.344  58.839  -3.554  1.00  0.00     0.050 C 
HETATM   26  C16 UNL     1      31.372  58.192  -5.787  1.00  0.00     0.097 A 
HETATM   27  N3  UNL     1      30.374  57.625  -6.499  1.00  0.00    -0.355 N 
HETATM   28  C17 UNL     1      29.285  57.093  -5.914  1.00  0.00     0.126 A 
ATOM     29  H3  UNL     1      30.448  57.599  -7.517  1.00  0.00     0.166 HD
HETATM   30 CL1  UNL     1      27.999  56.359  -6.885  1.00  0.00    -0.063 Cl
HETATM   31  C18 UNL     1      29.204  57.138  -4.540  1.00  0.00     0.085 A 
HETATM   32 CL2  UNL     1      27.798  56.453  -3.736  1.00  0.00    -0.080 Cl
ENDBRANCH   4  23
TORSDOF 5
ENDMDL
