MODEL 1
REMARK VINA RESULT: -7.004720338      0.000      0.000
REMARK  5 active torsions:
REMARK  status: ('A' for Active; 'I' for Inactive)
REMARK    1  A    between atoms: C2_2  and  O1_3 
REMARK    2  A    between atoms: O1_3  and  C3_4 
REMARK    3  A    between atoms: C4_5  and  C5_6 
REMARK    4  A    between atoms: C6_7  and  C7_8 
REMARK    5  A    between atoms: C21_26  and  S1_27 
ROOT
HETATM    1  C3  UNL     1      27.402  61.161  -0.334  1.00  0.00     0.118 A 
HETATM    2  C4  UNL     1      26.640  61.068   0.816  1.00  0.00     0.068 A 
HETATM    3  N1  UNL     1      25.658  61.973   0.657  1.00  0.00    -0.347 N 
ATOM      4  H1  UNL     1      24.922  62.148   1.341  1.00  0.00     0.167 HD
HETATM    5  C21 UNL     1      25.768  62.615  -0.513  1.00  0.00     0.093 A 
HETATM    6  C23 UNL     1      26.873  62.120  -1.174  1.00  0.00     0.113 A 
HETATM    7  C24 UNL     1      27.371  62.517  -2.461  1.00  0.00     0.105 C 
HETATM    8  N2  UNL     1      27.791  62.829  -3.512  1.00  0.00    -0.191 NA
ENDROOT
BRANCH   1   9
HETATM    9  O1  UNL     1      28.537  60.381  -0.575  1.00  0.00    -0.347 OA
BRANCH   9  10
HETATM   10  C2  UNL     1      28.369  59.050  -1.036  1.00  0.00     0.171 C 
HETATM   11  C1  UNL     1      29.182  58.115  -0.170  1.00  0.00     0.034 C 
ENDBRANCH   9  10
ENDBRANCH   1   9
BRANCH   5  12
HETATM   12  S1  UNL     1      24.707  63.904  -1.182  1.00  0.00    -0.115 SA
HETATM   13  C22 UNL     1      22.964  63.535  -0.917  1.00  0.00     0.097 C 
ENDBRANCH   5  12
BRANCH   2  14
HETATM   14  C5  UNL     1      26.872  60.172   1.944  1.00  0.00     0.029 C 
HETATM   15  C6  UNL     1      26.970  60.598   3.176  1.00  0.00    -0.014 C 
BRANCH  15  16
HETATM   16  C7  UNL     1      27.205  59.684   4.310  1.00  0.00     0.051 C 
HETATM   17  C8  UNL     1      28.606  59.423   4.596  1.00  0.00    -0.043 A 
HETATM   18  C9  UNL     1      29.717  59.158   3.791  1.00  0.00     0.008 A 
HETATM   19  C13 UNL     1      28.800  59.460   5.951  1.00  0.00    -0.042 A 
HETATM   20  C10 UNL     1      30.964  58.940   4.333  1.00  0.00     0.001 A 
HETATM   21  C11 UNL     1      31.144  58.980   5.700  1.00  0.00     0.001 A 
HETATM   22  C12 UNL     1      30.063  59.241   6.515  1.00  0.00     0.008 A 
HETATM   23  C14 UNL     1      27.556  59.750   6.683  1.00  0.00    -0.003 C 
HETATM   24  C15 UNL     1      27.823  60.775   7.734  1.00  0.00     0.021 C 
HETATM   25  C16 UNL     1      26.867  58.525   7.234  1.00  0.00     0.093 C 
HETATM   26  C19 UNL     1      26.654  60.242   5.580  1.00  0.00    -0.016 C 
HETATM   27  C17 UNL     1      25.392  58.760   7.022  1.00  0.00     0.245 C 
HETATM   28  F1  UNL     1      24.758  57.540   6.827  1.00  0.00    -0.206 F 
HETATM   29  F2  UNL     1      24.824  59.454   8.076  1.00  0.00    -0.206 F 
HETATM   30  C18 UNL     1      25.296  59.615   5.806  1.00  0.00     0.090 C 
HETATM   31  C20 UNL     1      26.508  61.740   5.574  1.00  0.00     0.018 C 
ENDBRANCH  15  16
ENDBRANCH   2  14
TORSDOF 5
ENDMDL
MODEL 2
REMARK VINA RESULT: -6.986811017      2.870      4.339
REMARK  5 active torsions:
REMARK  status: ('A' for Active; 'I' for Inactive)
REMARK    1  A    between atoms: C2_2  and  O1_3 
REMARK    2  A    between atoms: O1_3  and  C3_4 
REMARK    3  A    between atoms: C4_5  and  C5_6 
REMARK    4  A    between atoms: C6_7  and  C7_8 
REMARK    5  A    between atoms: C21_26  and  S1_27 
ROOT
HETATM    1  C3  UNL     1      26.668  59.863   0.468  1.00  0.00     0.118 A 
HETATM    2  C4  UNL     1      27.105  59.645   1.762  1.00  0.00     0.068 A 
HETATM    3  N1  UNL     1      28.239  58.933   1.630  1.00  0.00    -0.347 N 
ATOM      4  H1  UNL     1      28.808  58.612   2.413  1.00  0.00     0.167 HD
HETATM    5  C21 UNL     1      28.526  58.700   0.343  1.00  0.00     0.093 A 
HETATM    6  C23 UNL     1      27.541  59.282  -0.429  1.00  0.00     0.113 A 
HETATM    7  C24 UNL     1      27.442  59.283  -1.862  1.00  0.00     0.105 C 
HETATM    8  N2  UNL     1      27.346  59.294  -3.032  1.00  0.00    -0.191 NA
ENDROOT
BRANCH   1   9
HETATM    9  O1  UNL     1      25.506  60.574   0.155  1.00  0.00    -0.347 OA
BRANCH   9  10
HETATM   10  C2  UNL     1      25.505  61.986   0.295  1.00  0.00     0.171 C 
HETATM   11  C1  UNL     1      26.177  62.606  -0.909  1.00  0.00     0.034 C 
ENDBRANCH   9  10
ENDBRANCH   1   9
BRANCH   5  12
HETATM   12  S1  UNL     1      29.923  57.802  -0.343  1.00  0.00    -0.115 SA
HETATM   13  C22 UNL     1      31.336  58.881  -0.625  1.00  0.00     0.097 C 
ENDBRANCH   5  12
BRANCH   2  14
HETATM   14  C5  UNL     1      26.457  60.099   2.987  1.00  0.00     0.029 C 
HETATM   15  C6  UNL     1      26.927  59.829   4.177  1.00  0.00    -0.014 C 
BRANCH  15  16
HETATM   16  C7  UNL     1      26.265  60.294   5.411  1.00  0.00     0.051 C 
HETATM   17  C8  UNL     1      26.121  59.276   6.439  1.00  0.00    -0.043 A 
HETATM   18  C9  UNL     1      25.745  57.930   6.412  1.00  0.00     0.008 A 
HETATM   19  C13 UNL     1      26.432  59.822   7.656  1.00  0.00    -0.042 A 
HETATM   20  C10 UNL     1      25.687  57.175   7.561  1.00  0.00     0.001 A 
HETATM   21  C11 UNL     1      26.003  57.739   8.780  1.00  0.00     0.001 A 
HETATM   22  C12 UNL     1      26.377  59.065   8.832  1.00  0.00     0.008 A 
HETATM   23  C14 UNL     1      26.812  61.240   7.547  1.00  0.00    -0.003 C 
HETATM   24  C15 UNL     1      28.035  61.493   8.365  1.00  0.00     0.021 C 
HETATM   25  C16 UNL     1      25.695  62.203   7.867  1.00  0.00     0.093 C 
HETATM   26  C19 UNL     1      27.041  61.388   6.064  1.00  0.00    -0.016 C 
HETATM   27  C17 UNL     1      25.826  63.324   6.866  1.00  0.00     0.245 C 
HETATM   28  F1  UNL     1      24.568  63.847   6.599  1.00  0.00    -0.206 F 
HETATM   29  F2  UNL     1      26.692  64.309   7.308  1.00  0.00    -0.206 F 
HETATM   30  C18 UNL     1      26.420  62.703   5.650  1.00  0.00     0.090 C 
HETATM   31  C20 UNL     1      28.502  61.400   5.701  1.00  0.00     0.018 C 
ENDBRANCH  15  16
ENDBRANCH   2  14
TORSDOF 5
ENDMDL
MODEL 3
REMARK VINA RESULT: -6.931100805      2.813      4.254
REMARK  5 active torsions:
REMARK  status: ('A' for Active; 'I' for Inactive)
REMARK    1  A    between atoms: C2_2  and  O1_3 
REMARK    2  A    between atoms: O1_3  and  C3_4 
REMARK    3  A    between atoms: C4_5  and  C5_6 
REMARK    4  A    between atoms: C6_7  and  C7_8 
REMARK    5  A    between atoms: C21_26  and  S1_27 
ROOT
HETATM    1  C3  UNL     1      28.326  59.101   1.940  1.00  0.00     0.118 A 
HETATM    2  C4  UNL     1      27.141  59.788   2.127  1.00  0.00     0.068 A 
HETATM    3  N1  UNL     1      26.789  60.214   0.901  1.00  0.00    -0.347 N 
ATOM      4  H1  UNL     1      25.950  60.758   0.702  1.00  0.00     0.167 HD
HETATM    5  C21 UNL     1      27.680  59.835  -0.025  1.00  0.00     0.093 A 
HETATM    6  C23 UNL     1      28.677  59.120   0.605  1.00  0.00     0.113 A 
HETATM    7  C24 UNL     1      29.836  58.521   0.003  1.00  0.00     0.105 C 
HETATM    8  N2  UNL     1      30.788  58.026  -0.472  1.00  0.00    -0.191 NA
ENDROOT
BRANCH   1   9
HETATM    9  O1  UNL     1      29.037  58.489   2.977  1.00  0.00    -0.347 OA
BRANCH   9  10
HETATM   10  C2  UNL     1      30.017  59.241   3.674  1.00  0.00     0.171 C 
HETATM   11  C1  UNL     1      29.945  58.909   5.147  1.00  0.00     0.034 C 
ENDBRANCH   9  10
ENDBRANCH   1   9
BRANCH   5  12
HETATM   12  S1  UNL     1      27.656  60.157  -1.793  1.00  0.00    -0.115 SA
HETATM   13  C22 UNL     1      27.641  58.631  -2.748  1.00  0.00     0.097 C 
ENDBRANCH   5  12
BRANCH   2  14
HETATM   14  C5  UNL     1      26.444  59.991   3.392  1.00  0.00     0.029 C 
HETATM   15  C6  UNL     1      26.884  60.801   4.319  1.00  0.00    -0.014 C 
BRANCH  15  16
HETATM   16  C7  UNL     1      26.171  61.000   5.596  1.00  0.00     0.051 C 
HETATM   17  C8  UNL     1      26.121  59.826   6.451  1.00  0.00    -0.043 A 
HETATM   18  C9  UNL     1      25.881  58.471   6.207  1.00  0.00     0.008 A 
HETATM   19  C13 UNL     1      26.369  60.203   7.743  1.00  0.00    -0.042 A 
HETATM   20  C10 UNL     1      25.890  57.543   7.224  1.00  0.00     0.001 A 
HETATM   21  C11 UNL     1      26.141  57.938   8.523  1.00  0.00     0.001 A 
HETATM   22  C12 UNL     1      26.381  59.270   8.787  1.00  0.00     0.008 A 
HETATM   23  C14 UNL     1      26.607  61.651   7.863  1.00  0.00    -0.003 C 
HETATM   24  C15 UNL     1      27.793  61.889   8.738  1.00  0.00     0.021 C 
HETATM   25  C16 UNL     1      25.397  62.439   8.305  1.00  0.00     0.093 C 
HETATM   26  C19 UNL     1      26.830  62.050   6.427  1.00  0.00    -0.016 C 
HETATM   27  C17 UNL     1      25.423  63.710   7.492  1.00  0.00     0.245 C 
HETATM   28  F1  UNL     1      24.122  64.143   7.281  1.00  0.00    -0.206 F 
HETATM   29  F2  UNL     1      26.185  64.693   8.100  1.00  0.00    -0.206 F 
HETATM   30  C18 UNL     1      26.084  63.346   6.208  1.00  0.00     0.090 C 
HETATM   31  C20 UNL     1      28.285  62.260   6.102  1.00  0.00     0.018 C 
ENDBRANCH  15  16
ENDBRANCH   2  14
TORSDOF 5
ENDMDL
MODEL 4
REMARK VINA RESULT: -6.912734363      5.811      8.324
REMARK  5 active torsions:
REMARK  status: ('A' for Active; 'I' for Inactive)
REMARK    1  A    between atoms: C2_2  and  O1_3 
REMARK    2  A    between atoms: O1_3  and  C3_4 
REMARK    3  A    between atoms: C4_5  and  C5_6 
REMARK    4  A    between atoms: C6_7  and  C7_8 
REMARK    5  A    between atoms: C21_26  and  S1_27 
ROOT
HETATM    1  C3  UNL     1      26.635  64.581   8.892  1.00  0.00     0.118 A 
HETATM    2  C4  UNL     1      27.383  63.584   9.490  1.00  0.00     0.068 A 
HETATM    3  N1  UNL     1      27.733  64.083  10.689  1.00  0.00    -0.347 N 
ATOM      4  H1  UNL     1      28.296  63.582  11.377  1.00  0.00     0.167 HD
HETATM    5  C21 UNL     1      27.251  65.320  10.865  1.00  0.00     0.093 A 
HETATM    6  C23 UNL     1      26.542  65.670   9.735  1.00  0.00     0.113 A 
HETATM    7  C24 UNL     1      25.853  66.905   9.485  1.00  0.00     0.105 C 
HETATM    8  N2  UNL     1      25.284  67.908   9.264  1.00  0.00    -0.191 NA
ENDROOT
BRANCH   1   9
HETATM    9  O1  UNL     1      26.072  64.466   7.618  1.00  0.00    -0.347 OA
BRANCH   9  10
HETATM   10  C2  UNL     1      24.834  63.788   7.473  1.00  0.00     0.171 C 
HETATM   11  C1  UNL     1      25.034  62.565   6.606  1.00  0.00     0.034 C 
ENDBRANCH   9  10
ENDBRANCH   1   9
BRANCH   5  12
HETATM   12  S1  UNL     1      27.443  66.399  12.290  1.00  0.00    -0.115 SA
HETATM   13  C22 UNL     1      26.481  65.821  13.698  1.00  0.00     0.097 C 
ENDBRANCH   5  12
BRANCH   2  14
HETATM   14  C5  UNL     1      27.708  62.280   8.921  1.00  0.00     0.029 C 
HETATM   15  C6  UNL     1      28.654  62.112   8.035  1.00  0.00    -0.014 C 
BRANCH  15  16
HETATM   16  C7  UNL     1      28.976  60.789   7.466  1.00  0.00     0.051 C 
HETATM   17  C8  UNL     1      27.939  59.785   7.646  1.00  0.00    -0.043 A 
HETATM   18  C9  UNL     1      27.121  59.433   8.722  1.00  0.00     0.008 A 
HETATM   19  C13 UNL     1      27.793  59.080   6.482  1.00  0.00    -0.042 A 
HETATM   20  C10 UNL     1      26.199  58.415   8.624  1.00  0.00     0.001 A 
HETATM   21  C11 UNL     1      26.063  57.712   7.444  1.00  0.00     0.001 A 
HETATM   22  C12 UNL     1      26.860  58.042   6.367  1.00  0.00     0.008 A 
HETATM   23  C14 UNL     1      28.709  59.549   5.429  1.00  0.00    -0.003 C 
HETATM   24  C15 UNL     1      27.964  59.681   4.142  1.00  0.00     0.021 C 
HETATM   25  C16 UNL     1      29.961  58.718   5.288  1.00  0.00     0.093 C 
HETATM   26  C19 UNL     1      29.178  60.868   5.989  1.00  0.00    -0.016 C 
HETATM   27  C17 UNL     1      31.076  59.703   5.036  1.00  0.00     0.245 C 
HETATM   28  F1  UNL     1      32.257  59.201   5.562  1.00  0.00    -0.206 F 
HETATM   29  F2  UNL     1      31.212  59.992   3.689  1.00  0.00    -0.206 F 
HETATM   30  C18 UNL     1      30.665  60.954   5.733  1.00  0.00     0.090 C 
HETATM   31  C20 UNL     1      28.500  62.047   5.344  1.00  0.00     0.018 C 
ENDBRANCH  15  16
ENDBRANCH   2  14
TORSDOF 5
ENDMDL
MODEL 5
REMARK VINA RESULT: -6.894372190      2.740      4.090
REMARK  5 active torsions:
REMARK  status: ('A' for Active; 'I' for Inactive)
REMARK    1  A    between atoms: C2_2  and  O1_3 
REMARK    2  A    between atoms: O1_3  and  C3_4 
REMARK    3  A    between atoms: C4_5  and  C5_6 
REMARK    4  A    between atoms: C6_7  and  C7_8 
REMARK    5  A    between atoms: C21_26  and  S1_27 
ROOT
HETATM    1  C3  UNL     1      28.174  58.571  -0.239  1.00  0.00     0.118 A 
HETATM    2  C4  UNL     1      29.197  58.180   0.605  1.00  0.00     0.068 A 
HETATM    3  N1  UNL     1      30.165  57.724  -0.210  1.00  0.00    -0.347 N 
ATOM      4  H1  UNL     1      31.062  57.360   0.112  1.00  0.00     0.167 HD
HETATM    5  C21 UNL     1      29.804  57.809  -1.497  1.00  0.00     0.093 A 
HETATM    6  C23 UNL     1      28.535  58.347  -1.552  1.00  0.00     0.113 A 
HETATM    7  C24 UNL     1      27.752  58.618  -2.726  1.00  0.00     0.105 C 
HETATM    8  N2  UNL     1      27.099  58.846  -3.674  1.00  0.00    -0.191 NA
ENDROOT
BRANCH   1   9
HETATM    9  O1  UNL     1      26.965  59.109   0.210  1.00  0.00    -0.347 OA
BRANCH   9  10
HETATM   10  C2  UNL     1      26.755  60.508   0.104  1.00  0.00     0.171 C 
HETATM   11  C1  UNL     1      25.374  60.846   0.619  1.00  0.00     0.034 C 
ENDBRANCH   9  10
ENDBRANCH   1   9
BRANCH   5  12
HETATM   12  S1  UNL     1      30.744  57.332  -2.952  1.00  0.00    -0.115 SA
HETATM   13  C22 UNL     1      32.293  56.527  -2.511  1.00  0.00     0.097 C 
ENDBRANCH   5  12
BRANCH   2  14
HETATM   14  C5  UNL     1      29.200  58.255   2.062  1.00  0.00     0.029 C 
HETATM   15  C6  UNL     1      29.415  59.369   2.711  1.00  0.00    -0.014 C 
BRANCH  15  16
HETATM   16  C7  UNL     1      29.416  59.436   4.186  1.00  0.00     0.051 C 
HETATM   17  C8  UNL     1      30.529  60.178   4.756  1.00  0.00    -0.043 A 
HETATM   18  C9  UNL     1      31.897  60.224   4.475  1.00  0.00     0.008 A 
HETATM   19  C13 UNL     1      30.064  60.970   5.771  1.00  0.00    -0.042 A 
HETATM   20  C10 UNL     1      32.752  61.033   5.188  1.00  0.00     0.001 A 
HETATM   21  C11 UNL     1      32.269  61.825   6.209  1.00  0.00     0.001 A 
HETATM   22  C12 UNL     1      30.922  61.798   6.505  1.00  0.00     0.008 A 
HETATM   23  C14 UNL     1      28.611  60.831   5.964  1.00  0.00    -0.003 C 
HETATM   24  C15 UNL     1      27.997  62.182   6.119  1.00  0.00     0.021 C 
HETATM   25  C16 UNL     1      28.226  59.890   7.080  1.00  0.00     0.093 C 
HETATM   26  C19 UNL     1      28.196  60.124   4.698  1.00  0.00    -0.016 C 
HETATM   27  C17 UNL     1      27.028  59.126   6.572  1.00  0.00     0.245 C 
HETATM   28  F1  UNL     1      27.023  57.858   7.135  1.00  0.00    -0.206 F 
HETATM   29  F2  UNL     1      25.843  59.793   6.833  1.00  0.00    -0.206 F 
HETATM   30  C18 UNL     1      27.199  59.058   5.094  1.00  0.00     0.090 C 
HETATM   31  C20 UNL     1      27.554  61.050   3.700  1.00  0.00     0.018 C 
ENDBRANCH  15  16
ENDBRANCH   2  14
TORSDOF 5
ENDMDL
