MODEL 1
REMARK VINA RESULT: -8.519868661      0.000      0.000
REMARK  6 active torsions:
REMARK  status: ('A' for Active; 'I' for Inactive)
REMARK       I    between atoms: N2_8  and  C7_9 
REMARK    1  A    between atoms: C7_9  and  C8_11 
REMARK    2  A    between atoms: C13_16  and  N3_17 
REMARK       I    between atoms: N3_17  and  C14_18 
REMARK       I    between atoms: C14_18  and  N4_20 
REMARK    3  A    between atoms: C16_27  and  S1_28 
REMARK    4  A    between atoms: S1_28  and  C17_29 
REMARK    5  A    between atoms: C17_29  and  C18_30 
REMARK    6  A    between atoms: C18_30  and  C19_31 
ROOT
HETATM    1  C1  UNL     1       2.500   2.247  22.221  1.00  0.00     0.032 C 
HETATM    2  C2  UNL     1       1.616   1.066  21.846  1.00  0.00     0.084 C 
HETATM    3  C3  UNL     1       0.973   0.601  23.125  1.00  0.00     0.028 C 
HETATM    4  C4  UNL     1       0.757  -0.879  22.857  1.00  0.00     0.042 C 
HETATM    5  C5  UNL     1       2.126  -1.220  22.255  1.00  0.00     0.195 C 
HETATM    6  C6  UNL     1       3.068  -1.389  23.382  1.00  0.00     0.084 C 
HETATM    7  N1  UNL     1       3.816  -1.534  24.263  1.00  0.00    -0.195 NA
HETATM    8  N2  UNL     1       2.454  -0.080  21.439  1.00  0.00    -0.330 N 
HETATM    9  C7  UNL     1       3.450  -0.034  20.417  1.00  0.00     0.232 C 
HETATM   10  O1  UNL     1       3.609   1.114  19.857  1.00  0.00    -0.272 OA
ENDROOT
BRANCH   9  11
HETATM   11  C8  UNL     1       4.305  -1.112  19.928  1.00  0.00     0.138 C 
HETATM   12  C9  UNL     1       5.338  -0.510  18.945  1.00  0.00     0.021 C 
HETATM   13  C10 UNL     1       5.061  -0.815  17.530  1.00  0.00     0.002 C 
HETATM   14  C11 UNL     1       3.643  -0.934  17.107  1.00  0.00     0.007 C 
HETATM   15  C12 UNL     1       2.830  -1.827  18.025  1.00  0.00     0.069 C 
HETATM   16  C13 UNL     1       3.626  -2.257  19.204  1.00  0.00     0.081 C 
BRANCH  16  17
HETATM   17  N3  UNL     1       3.188  -3.361  19.892  1.00  0.00    -0.360 NA
HETATM   18  C14 UNL     1       2.787  -4.397  20.696  1.00  0.00     0.399 C 
HETATM   19  O2  UNL     1       2.741  -4.547  21.953  1.00  0.00    -0.230 OA
HETATM   20  N4  UNL     1       2.351  -5.562  19.980  1.00  0.00    -0.275 N 
HETATM   21  C15 UNL     1       1.658  -6.543  20.324  1.00  0.00     0.170 A 
ATOM     22  H4  UNL     1       2.666  -5.595  19.010  1.00  0.00     0.173 HD
HETATM   23  N5  UNL     1       1.350  -7.581  19.478  1.00  0.00    -0.278 N 
HETATM   24  S2  UNL     1       0.737  -6.997  21.714  1.00  0.00    -0.026 SA
HETATM   25  N6  UNL     1       0.585  -8.465  19.887  1.00  0.00    -0.286 N 
ATOM     26  H5  UNL     1       1.742  -7.622  18.538  1.00  0.00     0.189 HD
HETATM   27  C16 UNL     1       0.056  -8.447  21.098  1.00  0.00     0.130 A 
ATOM     28  H6  UNL     1       0.353  -9.239  19.263  1.00  0.00     0.188 HD
BRANCH  27  29
HETATM   29  S1  UNL     1      -1.042  -9.636  21.873  1.00  0.00    -0.103 SA
BRANCH  29  30
HETATM   30  C17 UNL     1      -2.691  -9.401  21.183  1.00  0.00     0.082 C 
BRANCH  30  31
HETATM   31  C18 UNL     1      -3.018  -7.918  21.246  1.00  0.00     0.025 C 
BRANCH  31  32
HETATM   32  C19 UNL     1      -3.202  -7.590  22.707  1.00  0.00     0.115 C 
HETATM   33 CL1  UNL     1      -2.703  -5.918  22.990  1.00  0.00    -0.130 Cl
ENDBRANCH  31  32
ENDBRANCH  30  31
ENDBRANCH  29  30
ENDBRANCH  27  29
ENDBRANCH  16  17
ENDBRANCH   9  11
TORSDOF 6
ENDMDL
MODEL 2
REMARK VINA RESULT: -8.463601743      1.339      1.496
REMARK  6 active torsions:
REMARK  status: ('A' for Active; 'I' for Inactive)
REMARK       I    between atoms: N2_8  and  C7_9 
REMARK    1  A    between atoms: C7_9  and  C8_11 
REMARK    2  A    between atoms: C13_16  and  N3_17 
REMARK       I    between atoms: N3_17  and  C14_18 
REMARK       I    between atoms: C14_18  and  N4_20 
REMARK    3  A    between atoms: C16_27  and  S1_28 
REMARK    4  A    between atoms: S1_28  and  C17_29 
REMARK    5  A    between atoms: C17_29  and  C18_30 
REMARK    6  A    between atoms: C18_30  and  C19_31 
ROOT
HETATM    1  C1  UNL     1       2.506   2.255  22.214  1.00  0.00     0.032 C 
HETATM    2  C2  UNL     1       1.629   1.069  21.840  1.00  0.00     0.084 C 
HETATM    3  C3  UNL     1       0.968   0.617  23.116  1.00  0.00     0.028 C 
HETATM    4  C4  UNL     1       0.757  -0.866  22.861  1.00  0.00     0.042 C 
HETATM    5  C5  UNL     1       2.135  -1.212  22.282  1.00  0.00     0.195 C 
HETATM    6  C6  UNL     1       3.062  -1.367  23.424  1.00  0.00     0.084 C 
HETATM    7  N1  UNL     1       3.797  -1.501  24.317  1.00  0.00    -0.195 NA
HETATM    8  N2  UNL     1       2.473  -0.081  21.458  1.00  0.00    -0.330 N 
HETATM    9  C7  UNL     1       3.483  -0.045  20.449  1.00  0.00     0.232 C 
HETATM   10  O1  UNL     1       3.649   1.097  19.878  1.00  0.00    -0.272 OA
ENDROOT
BRANCH   9  11
HETATM   11  C8  UNL     1       4.346  -1.128  19.985  1.00  0.00     0.138 C 
HETATM   12  C9  UNL     1       5.409  -0.532  19.030  1.00  0.00     0.021 C 
HETATM   13  C10 UNL     1       5.169  -0.836  17.608  1.00  0.00     0.002 C 
HETATM   14  C11 UNL     1       3.762  -0.949  17.146  1.00  0.00     0.007 C 
HETATM   15  C12 UNL     1       2.921  -1.838  18.043  1.00  0.00     0.069 C 
HETATM   16  C13 UNL     1       3.681  -2.270  19.243  1.00  0.00     0.081 C 
BRANCH  16  17
HETATM   17  N3  UNL     1       3.220  -3.372  19.920  1.00  0.00    -0.360 NA
HETATM   18  C14 UNL     1       2.793  -4.405  20.714  1.00  0.00     0.399 C 
HETATM   19  O2  UNL     1       2.717  -4.556  21.969  1.00  0.00    -0.230 OA
HETATM   20  N4  UNL     1       2.366  -5.566  19.987  1.00  0.00    -0.275 N 
HETATM   21  C15 UNL     1       1.658  -6.543  20.314  1.00  0.00     0.170 A 
ATOM     22  H4  UNL     1       2.703  -5.601  19.025  1.00  0.00     0.173 HD
HETATM   23  N5  UNL     1       1.363  -7.578  19.460  1.00  0.00    -0.278 N 
HETATM   24  S2  UNL     1       0.702  -6.991  21.682  1.00  0.00    -0.026 SA
HETATM   25  N6  UNL     1       0.582  -8.457  19.850  1.00  0.00    -0.286 N 
ATOM     26  H5  UNL     1       1.776  -7.621  18.529  1.00  0.00     0.189 HD
HETATM   27  C16 UNL     1       0.025  -8.436  21.048  1.00  0.00     0.130 A 
ATOM     28  H6  UNL     1       0.359  -9.229  19.220  1.00  0.00     0.188 HD
BRANCH  27  29
HETATM   29  S1  UNL     1      -1.099  -9.618  21.796  1.00  0.00    -0.103 SA
BRANCH  29  30
HETATM   30  C17 UNL     1      -2.756  -9.282  21.170  1.00  0.00     0.082 C 
BRANCH  30  31
HETATM   31  C18 UNL     1      -2.841  -9.829  19.755  1.00  0.00     0.025 C 
BRANCH  31  32
HETATM   32  C19 UNL     1      -3.881  -8.998  19.045  1.00  0.00     0.115 C 
HETATM   33 CL1  UNL     1      -3.823  -9.355  17.315  1.00  0.00    -0.130 Cl
ENDBRANCH  31  32
ENDBRANCH  30  31
ENDBRANCH  29  30
ENDBRANCH  27  29
ENDBRANCH  16  17
ENDBRANCH   9  11
TORSDOF 6
ENDMDL
MODEL 3
REMARK VINA RESULT: -8.342378904      1.443      1.732
REMARK  6 active torsions:
REMARK  status: ('A' for Active; 'I' for Inactive)
REMARK       I    between atoms: N2_8  and  C7_9 
REMARK    1  A    between atoms: C7_9  and  C8_11 
REMARK    2  A    between atoms: C13_16  and  N3_17 
REMARK       I    between atoms: N3_17  and  C14_18 
REMARK       I    between atoms: C14_18  and  N4_20 
REMARK    3  A    between atoms: C16_27  and  S1_28 
REMARK    4  A    between atoms: S1_28  and  C17_29 
REMARK    5  A    between atoms: C17_29  and  C18_30 
REMARK    6  A    between atoms: C18_30  and  C19_31 
ROOT
HETATM    1  C1  UNL     1       2.489   2.142  22.251  1.00  0.00     0.032 C 
HETATM    2  C2  UNL     1       1.619   0.961  21.844  1.00  0.00     0.084 C 
HETATM    3  C3  UNL     1       0.979   0.455  23.110  1.00  0.00     0.028 C 
HETATM    4  C4  UNL     1       0.781  -1.020  22.803  1.00  0.00     0.042 C 
HETATM    5  C5  UNL     1       2.154  -1.329  22.194  1.00  0.00     0.195 C 
HETATM    6  C6  UNL     1       3.097  -1.517  23.317  1.00  0.00     0.084 C 
HETATM    7  N1  UNL     1       3.846  -1.676  24.195  1.00  0.00    -0.195 NA
HETATM    8  N2  UNL     1       2.470  -0.164  21.409  1.00  0.00    -0.330 N 
HETATM    9  C7  UNL     1       3.466  -0.080  20.389  1.00  0.00     0.232 C 
HETATM   10  O1  UNL     1       3.612   1.085  19.860  1.00  0.00    -0.272 OA
ENDROOT
BRANCH   9  11
HETATM   11  C8  UNL     1       4.334  -1.135  19.873  1.00  0.00     0.138 C 
HETATM   12  C9  UNL     1       5.366  -0.494  18.913  1.00  0.00     0.021 C 
HETATM   13  C10 UNL     1       5.098  -0.760  17.488  1.00  0.00     0.002 C 
HETATM   14  C11 UNL     1       3.684  -0.880  17.055  1.00  0.00     0.007 C 
HETATM   15  C12 UNL     1       2.875  -1.808  17.943  1.00  0.00     0.069 C 
HETATM   16  C13 UNL     1       3.669  -2.265  19.112  1.00  0.00     0.081 C 
BRANCH  16  17
HETATM   17  N3  UNL     1       3.239  -3.393  19.766  1.00  0.00    -0.360 NA
HETATM   18  C14 UNL     1       2.849  -4.457  20.537  1.00  0.00     0.399 C 
HETATM   19  O2  UNL     1       2.831  -4.658  21.787  1.00  0.00    -0.230 OA
HETATM   20  N4  UNL     1       2.389  -5.590  19.785  1.00  0.00    -0.275 N 
HETATM   21  C15 UNL     1       1.697  -6.580  20.105  1.00  0.00     0.170 A 
ATOM     22  H4  UNL     1       2.682  -5.586  18.808  1.00  0.00     0.173 HD
HETATM   23  N5  UNL     1       1.363  -7.581  19.226  1.00  0.00    -0.278 N 
HETATM   24  S2  UNL     1       0.805  -7.083  21.497  1.00  0.00    -0.026 SA
HETATM   25  N6  UNL     1       0.600  -8.476  19.616  1.00  0.00    -0.286 N 
ATOM     26  H5  UNL     1       1.733  -7.587  18.276  1.00  0.00     0.189 HD
HETATM   27  C16 UNL     1       0.099  -8.503  20.839  1.00  0.00     0.130 A 
ATOM     28  H6  UNL     1       0.349  -9.223  18.968  1.00  0.00     0.188 HD
BRANCH  27  29
HETATM   29  S1  UNL     1      -0.989  -9.716  21.590  1.00  0.00    -0.103 SA
BRANCH  29  30
HETATM   30  C17 UNL     1      -0.662  -9.731  23.363  1.00  0.00     0.082 C 
BRANCH  30  31
HETATM   31  C18 UNL     1       0.521 -10.652  23.613  1.00  0.00     0.025 C 
BRANCH  31  32
HETATM   32  C19 UNL     1       1.131 -10.207  24.919  1.00  0.00     0.115 C 
HETATM   33 CL1  UNL     1       0.959  -8.454  25.069  1.00  0.00    -0.130 Cl
ENDBRANCH  31  32
ENDBRANCH  30  31
ENDBRANCH  29  30
ENDBRANCH  27  29
ENDBRANCH  16  17
ENDBRANCH   9  11
TORSDOF 6
ENDMDL
MODEL 4
REMARK VINA RESULT: -8.323415950      1.989      2.332
REMARK  6 active torsions:
REMARK  status: ('A' for Active; 'I' for Inactive)
REMARK       I    between atoms: N2_8  and  C7_9 
REMARK    1  A    between atoms: C7_9  and  C8_11 
REMARK    2  A    between atoms: C13_16  and  N3_17 
REMARK       I    between atoms: N3_17  and  C14_18 
REMARK       I    between atoms: C14_18  and  N4_20 
REMARK    3  A    between atoms: C16_27  and  S1_28 
REMARK    4  A    between atoms: S1_28  and  C17_29 
REMARK    5  A    between atoms: C17_29  and  C18_30 
REMARK    6  A    between atoms: C18_30  and  C19_31 
ROOT
HETATM    1  C1  UNL     1       2.573   2.275  22.246  1.00  0.00     0.032 C 
HETATM    2  C2  UNL     1       1.677   1.103  21.869  1.00  0.00     0.084 C 
HETATM    3  C3  UNL     1       1.043   0.631  23.151  1.00  0.00     0.028 C 
HETATM    4  C4  UNL     1       0.814  -0.845  22.872  1.00  0.00     0.042 C 
HETATM    5  C5  UNL     1       2.174  -1.190  22.254  1.00  0.00     0.195 C 
HETATM    6  C6  UNL     1       3.126  -1.376  23.370  1.00  0.00     0.084 C 
HETATM    7  N1  UNL     1       3.881  -1.533  24.242  1.00  0.00    -0.195 NA
HETATM    8  N2  UNL     1       2.503  -0.046  21.445  1.00  0.00    -0.330 N 
HETATM    9  C7  UNL     1       3.489   0.002  20.413  1.00  0.00     0.232 C 
HETATM   10  O1  UNL     1       3.651   1.154  19.861  1.00  0.00    -0.272 OA
ENDROOT
BRANCH   9  11
HETATM   11  C8  UNL     1       4.331  -1.078  19.907  1.00  0.00     0.138 C 
HETATM   12  C9  UNL     1       5.352  -0.477  18.911  1.00  0.00     0.021 C 
HETATM   13  C10 UNL     1       5.052  -0.775  17.498  1.00  0.00     0.002 C 
HETATM   14  C11 UNL     1       3.628  -0.885  17.097  1.00  0.00     0.007 C 
HETATM   15  C12 UNL     1       2.825  -1.779  18.025  1.00  0.00     0.069 C 
HETATM   16  C13 UNL     1       3.636  -2.217  19.189  1.00  0.00     0.081 C 
BRANCH  16  17
HETATM   17  N3  UNL     1       3.204  -3.322  19.880  1.00  0.00    -0.360 NA
HETATM   18  C14 UNL     1       2.810  -4.358  20.686  1.00  0.00     0.399 C 
HETATM   19  O2  UNL     1       2.770  -4.508  21.943  1.00  0.00    -0.230 OA
HETATM   20  N4  UNL     1       2.373  -5.524  19.972  1.00  0.00    -0.275 N 
HETATM   21  C15 UNL     1       1.684  -6.507  20.320  1.00  0.00     0.170 A 
ATOM     22  H4  UNL     1       2.683  -5.557  19.001  1.00  0.00     0.173 HD
HETATM   23  N5  UNL     1       1.374  -7.546  19.476  1.00  0.00    -0.278 N 
HETATM   24  S2  UNL     1       0.770  -6.963  21.715  1.00  0.00    -0.026 SA
HETATM   25  N6  UNL     1       0.612  -8.431  19.888  1.00  0.00    -0.286 N 
ATOM     26  H5  UNL     1       1.761  -7.586  18.534  1.00  0.00     0.189 HD
HETATM   27  C16 UNL     1       0.089  -8.414  21.102  1.00  0.00     0.130 A 
ATOM     28  H6  UNL     1       0.379  -9.206  19.266  1.00  0.00     0.188 HD
BRANCH  27  29
HETATM   29  S1  UNL     1      -1.002  -9.606  21.882  1.00  0.00    -0.103 SA
BRANCH  29  30
HETATM   30  C17 UNL     1      -0.446 -11.256  21.414  1.00  0.00     0.082 C 
BRANCH  30  31
HETATM   31  C18 UNL     1       0.801 -11.576  22.221  1.00  0.00     0.025 C 
BRANCH  31  32
HETATM   32  C19 UNL     1       1.210 -12.974  21.826  1.00  0.00     0.115 C 
HETATM   33 CL1  UNL     1       1.455 -13.031  20.077  1.00  0.00    -0.130 Cl
ENDBRANCH  31  32
ENDBRANCH  30  31
ENDBRANCH  29  30
ENDBRANCH  27  29
ENDBRANCH  16  17
ENDBRANCH   9  11
TORSDOF 6
ENDMDL
MODEL 5
REMARK VINA RESULT: -8.176663399      2.292      2.666
REMARK  6 active torsions:
REMARK  status: ('A' for Active; 'I' for Inactive)
REMARK       I    between atoms: N2_8  and  C7_9 
REMARK    1  A    between atoms: C7_9  and  C8_11 
REMARK    2  A    between atoms: C13_16  and  N3_17 
REMARK       I    between atoms: N3_17  and  C14_18 
REMARK       I    between atoms: C14_18  and  N4_20 
REMARK    3  A    between atoms: C16_27  and  S1_28 
REMARK    4  A    between atoms: S1_28  and  C17_29 
REMARK    5  A    between atoms: C17_29  and  C18_30 
REMARK    6  A    between atoms: C18_30  and  C19_31 
ROOT
HETATM    1  C1  UNL     1       0.223   1.282  24.398  1.00  0.00     0.032 C 
HETATM    2  C2  UNL     1      -0.268   0.025  23.694  1.00  0.00     0.084 C 
HETATM    3  C3  UNL     1      -0.808  -0.876  24.773  1.00  0.00     0.028 C 
HETATM    4  C4  UNL     1      -0.579  -2.257  24.183  1.00  0.00     0.042 C 
HETATM    5  C5  UNL     1       0.856  -2.070  23.674  1.00  0.00     0.195 C 
HETATM    6  C6  UNL     1       1.755  -2.233  24.837  1.00  0.00     0.084 C 
HETATM    7  N1  UNL     1       2.473  -2.368  25.744  1.00  0.00    -0.195 NA
HETATM    8  N2  UNL     1       0.880  -0.729  23.152  1.00  0.00    -0.330 N 
HETATM    9  C7  UNL     1       1.867  -0.185  22.274  1.00  0.00     0.232 C 
HETATM   10  O1  UNL     1       1.715   1.061  21.984  1.00  0.00    -0.272 OA
ENDROOT
BRANCH   9  11
HETATM   11  C8  UNL     1       3.015  -0.852  21.668  1.00  0.00     0.138 C 
HETATM   12  C9  UNL     1       3.962   0.230  21.092  1.00  0.00     0.021 C 
HETATM   13  C10 UNL     1       3.926   0.330  19.622  1.00  0.00     0.002 C 
HETATM   14  C11 UNL     1       2.640   0.054  18.935  1.00  0.00     0.007 C 
HETATM   15  C12 UNL     1       1.986  -1.232  19.409  1.00  0.00     0.069 C 
HETATM   16  C13 UNL     1       2.732  -1.830  20.545  1.00  0.00     0.081 C 
BRANCH  16  17
HETATM   17  N3  UNL     1       2.518  -3.160  20.811  1.00  0.00    -0.360 NA
HETATM   18  C14 UNL     1       2.322  -4.456  21.211  1.00  0.00     0.399 C 
HETATM   19  O2  UNL     1       2.270  -5.011  22.348  1.00  0.00    -0.230 OA
HETATM   20  N4  UNL     1       2.165  -5.387  20.130  1.00  0.00    -0.275 N 
HETATM   21  C15 UNL     1       1.686  -6.540  20.083  1.00  0.00     0.170 A 
ATOM     22  H4  UNL     1       2.509  -5.044  19.233  1.00  0.00     0.173 HD
HETATM   23  N5  UNL     1       1.631  -7.287  18.932  1.00  0.00    -0.278 N 
HETATM   24  S2  UNL     1       0.840  -7.587  21.168  1.00  0.00    -0.026 SA
HETATM   25  N6  UNL     1       1.058  -8.385  18.969  1.00  0.00    -0.286 N 
ATOM     26  H5  UNL     1       2.051  -6.945  18.067  1.00  0.00     0.189 HD
HETATM   27  C16 UNL     1       0.501  -8.861  20.069  1.00  0.00     0.130 A 
ATOM     28  H6  UNL     1       1.015  -8.944  18.117  1.00  0.00     0.188 HD
BRANCH  27  29
HETATM   29  S1  UNL     1      -0.342 -10.424  20.326  1.00  0.00    -0.103 SA
BRANCH  29  30
HETATM   30  C17 UNL     1      -2.044 -10.236  19.761  1.00  0.00     0.082 C 
BRANCH  30  31
HETATM   31  C18 UNL     1      -2.040 -10.274  18.242  1.00  0.00     0.025 C 
BRANCH  31  32
HETATM   32  C19 UNL     1      -3.436  -9.900  17.808  1.00  0.00     0.115 C 
HETATM   33 CL1  UNL     1      -3.395  -9.375  16.121  1.00  0.00    -0.130 Cl
ENDBRANCH  31  32
ENDBRANCH  30  31
ENDBRANCH  29  30
ENDBRANCH  27  29
ENDBRANCH  16  17
ENDBRANCH   9  11
TORSDOF 6
ENDMDL
