MODEL 1
REMARK VINA RESULT: -9.052875030      0.000      0.000
REMARK  8 active torsions:
REMARK  status: ('A' for Active; 'I' for Inactive)
REMARK    1  A    between atoms: O1_2  and  C2_3 
REMARK    2  A    between atoms: C2_3  and  C3_5 
REMARK    3  A    between atoms: C4_6  and  C5_7 
REMARK    4  A    between atoms: C7_9  and  C8_10 
REMARK    5  A    between atoms: C8_10  and  C9_11 
REMARK    6  A    between atoms: C10_12  and  C11_13 
REMARK    7  A    between atoms: C20_25  and  O5_26 
REMARK    8  A    between atoms: C24_32  and  O7_34 
ROOT
HETATM    1  C9  UNL     1       2.302  -1.863  20.655  1.00  0.00    -0.045 C 
HETATM    2  C10 UNL     1       1.420  -2.853  21.414  1.00  0.00     0.006 C 
HETATM    3  C12 UNL     1       1.494  -3.439  22.526  1.00  0.00     0.021 C 
HETATM    4  C13 UNL     1       1.011  -4.328  23.616  1.00  0.00    -0.059 C 
HETATM    5  C14 UNL     1       1.551  -5.681  23.779  1.00  0.00     0.048 C 
HETATM    6  C15 UNL     1       0.127  -3.846  24.516  1.00  0.00     0.031 C 
HETATM    7  C16 UNL     1      -0.446  -2.470  24.565  1.00  0.00     0.138 C 
HETATM    8  O4  UNL     1      -0.146  -1.540  23.747  1.00  0.00    -0.336 OA
HETATM    9  C17 UNL     1       0.443  -0.327  23.826  1.00  0.00     0.148 C 
HETATM   10  C18 UNL     1       0.950   0.047  25.191  1.00  0.00     0.065 C 
HETATM   11 CL1  UNL     1      -0.950   0.820  23.571  1.00  0.00    -0.087 Cl
HETATM   12  C19 UNL     1       1.326  -0.100  22.700  1.00  0.00     0.107 C 
HETATM   13  C20 UNL     1       1.239   1.137  21.803  1.00  0.00     0.200 C 
HETATM   14  C21 UNL     1       2.129   0.580  20.697  1.00  0.00     0.171 C 
HETATM   15  O6  UNL     1       2.205   1.086  19.613  1.00  0.00    -0.294 OA
HETATM   16  C22 UNL     1       2.875  -0.659  21.151  1.00  0.00     0.075 C 
HETATM   17  C23 UNL     1       4.301  -0.341  20.829  1.00  0.00     0.032 C 
HETATM   18  C24 UNL     1       2.749  -0.283  22.646  1.00  0.00     0.083 C 
HETATM   19  C25 UNL     1       3.635  -0.901  23.588  1.00  0.00     0.048 C 
ENDROOT
BRANCH   1  20
HETATM   20  C8  UNL     1       3.058  -2.574  19.596  1.00  0.00     0.064 C 
BRANCH  20  21
HETATM   21  C7  UNL     1       2.527  -2.423  18.234  1.00  0.00    -0.016 C 
HETATM   22  C5  UNL     1       3.037  -1.830  17.228  1.00  0.00    -0.065 C 
HETATM   23  C6  UNL     1       4.309  -1.104  17.238  1.00  0.00     0.048 C 
BRANCH  22  24
HETATM   24  C4  UNL     1       2.282  -1.828  15.942  1.00  0.00     0.012 C 
HETATM   25  C3  UNL     1       1.420  -2.767  15.662  1.00  0.00     0.082 C 
BRANCH  25  26
HETATM   26  C2  UNL     1       0.682  -2.781  14.428  1.00  0.00     0.282 C 
HETATM   27  O2  UNL     1      -0.199  -1.927  14.168  1.00  0.00    -0.260 OA
BRANCH  26  28
HETATM   28  O1  UNL     1       0.921  -3.758  13.460  1.00  0.00    -0.323 OA
HETATM   29  C1  UNL     1       0.083  -3.900  12.326  1.00  0.00     0.213 C 
ENDBRANCH  26  28
ENDBRANCH  25  26
ENDBRANCH  22  24
ENDBRANCH  20  21
ENDBRANCH   1  20
BRANCH   2  30
HETATM   30  C11 UNL     1       0.330  -3.194  20.461  1.00  0.00     0.270 C 
HETATM   31  O3  UNL     1      -0.377  -4.182  20.348  1.00  0.00    -0.301 OA
ENDBRANCH   2  30
BRANCH  18  32
HETATM   32  O7  UNL     1       3.333   1.050  22.612  1.00  0.00    -0.388 OA
ATOM     33  H7  UNL     1       4.275   0.928  22.576  1.00  0.00     0.210 HD
ENDBRANCH  18  32
BRANCH  13  34
HETATM   34  O5  UNL     1       1.573   2.319  22.315  1.00  0.00    -0.387 OA
ATOM     35  H5  UNL     1       1.460   3.096  21.779  1.00  0.00     0.210 HD
ENDBRANCH  13  34
TORSDOF 8
ENDMDL
MODEL 2
REMARK VINA RESULT: -8.493912655      2.550      4.992
REMARK  8 active torsions:
REMARK  status: ('A' for Active; 'I' for Inactive)
REMARK    1  A    between atoms: O1_2  and  C2_3 
REMARK    2  A    between atoms: C2_3  and  C3_5 
REMARK    3  A    between atoms: C4_6  and  C5_7 
REMARK    4  A    between atoms: C7_9  and  C8_10 
REMARK    5  A    between atoms: C8_10  and  C9_11 
REMARK    6  A    between atoms: C10_12  and  C11_13 
REMARK    7  A    between atoms: C20_25  and  O5_26 
REMARK    8  A    between atoms: C24_32  and  O7_34 
ROOT
HETATM    1  C9  UNL     1       1.685  -2.730  20.090  1.00  0.00    -0.045 C 
HETATM    2  C10 UNL     1       2.306  -1.372  20.412  1.00  0.00     0.006 C 
HETATM    3  C12 UNL     1       1.913  -0.331  21.001  1.00  0.00     0.021 C 
HETATM    4  C13 UNL     1       2.056   1.043  21.550  1.00  0.00    -0.059 C 
HETATM    5  C14 UNL     1       1.484   2.197  20.850  1.00  0.00     0.048 C 
HETATM    6  C15 UNL     1       2.648   1.214  22.752  1.00  0.00     0.031 C 
HETATM    7  C16 UNL     1       3.192   0.151  23.646  1.00  0.00     0.138 C 
HETATM    8  O4  UNL     1       3.145  -1.096  23.384  1.00  0.00    -0.336 OA
HETATM    9  C17 UNL     1       2.565  -2.184  23.936  1.00  0.00     0.148 C 
HETATM   10  C18 UNL     1       1.691  -1.905  25.127  1.00  0.00     0.065 C 
HETATM   11 CL1  UNL     1       3.980  -3.076  24.660  1.00  0.00    -0.087 Cl
HETATM   12  C19 UNL     1       2.045  -3.073  22.918  1.00  0.00     0.107 C 
HETATM   13  C20 UNL     1       2.393  -4.561  22.847  1.00  0.00     0.200 C 
HETATM   14  C21 UNL     1       1.855  -4.771  21.434  1.00  0.00     0.171 C 
HETATM   15  O6  UNL     1       2.096  -5.752  20.791  1.00  0.00    -0.294 OA
HETATM   16  C22 UNL     1       1.001  -3.601  20.983  1.00  0.00     0.075 C 
HETATM   17  C23 UNL     1      -0.270  -4.252  20.539  1.00  0.00     0.032 C 
HETATM   18  C24 UNL     1       0.696  -3.162  22.434  1.00  0.00     0.083 C 
HETATM   19  C25 UNL     1      -0.427  -2.304  22.671  1.00  0.00     0.048 C 
ENDROOT
BRANCH   1  20
HETATM   20  C8  UNL     1       1.261  -2.764  18.670  1.00  0.00     0.064 C 
BRANCH  20  21
HETATM   21  C7  UNL     1       2.261  -2.293  17.701  1.00  0.00    -0.016 C 
HETATM   22  C5  UNL     1       2.146  -2.108  16.445  1.00  0.00    -0.065 C 
HETATM   23  C6  UNL     1       0.937  -2.380  15.665  1.00  0.00     0.048 C 
BRANCH  22  24
HETATM   24  C4  UNL     1       3.331  -1.613  15.687  1.00  0.00     0.012 C 
HETATM   25  C3  UNL     1       3.954  -0.523  16.039  1.00  0.00     0.082 C 
BRANCH  25  26
HETATM   26  C2  UNL     1       5.097  -0.032  15.319  1.00  0.00     0.282 C 
HETATM   27  O2  UNL     1       5.004   0.434  14.159  1.00  0.00    -0.260 OA
BRANCH  26  28
HETATM   28  O1  UNL     1       6.371  -0.056  15.891  1.00  0.00    -0.323 OA
HETATM   29  C1  UNL     1       6.553  -0.154  17.293  1.00  0.00     0.213 C 
ENDBRANCH  26  28
ENDBRANCH  25  26
ENDBRANCH  22  24
ENDBRANCH  20  21
ENDBRANCH   1  20
BRANCH   2  30
HETATM   30  C11 UNL     1       3.622  -1.384  19.718  1.00  0.00     0.270 C 
HETATM   31  O3  UNL     1       4.676  -0.819  19.954  1.00  0.00    -0.301 OA
ENDBRANCH   2  30
BRANCH  18  32
HETATM   32  O7  UNL     1       0.154  -4.408  22.956  1.00  0.00    -0.388 OA
ATOM     33  H7  UNL     1      -0.539  -4.669  22.362  1.00  0.00     0.210 HD
ENDBRANCH  18  32
BRANCH  13  34
HETATM   34  O5  UNL     1       1.933  -5.369  23.798  1.00  0.00    -0.387 OA
ATOM     35  H5  UNL     1       1.182  -5.918  23.605  1.00  0.00     0.210 HD
ENDBRANCH  13  34
TORSDOF 8
ENDMDL
MODEL 3
REMARK VINA RESULT: -8.135306362      3.764      6.329
REMARK  8 active torsions:
REMARK  status: ('A' for Active; 'I' for Inactive)
REMARK    1  A    between atoms: O1_2  and  C2_3 
REMARK    2  A    between atoms: C2_3  and  C3_5 
REMARK    3  A    between atoms: C4_6  and  C5_7 
REMARK    4  A    between atoms: C7_9  and  C8_10 
REMARK    5  A    between atoms: C8_10  and  C9_11 
REMARK    6  A    between atoms: C10_12  and  C11_13 
REMARK    7  A    between atoms: C20_25  and  O5_26 
REMARK    8  A    between atoms: C24_32  and  O7_34 
ROOT
HETATM    1  C9  UNL     1       1.129  -1.518  25.107  1.00  0.00    -0.045 C 
HETATM    2  C10 UNL     1       1.887  -1.988  23.867  1.00  0.00     0.006 C 
HETATM    3  C12 UNL     1       1.761  -1.811  22.627  1.00  0.00     0.021 C 
HETATM    4  C13 UNL     1       2.146  -1.959  21.198  1.00  0.00    -0.059 C 
HETATM    5  C14 UNL     1       1.431  -2.889  20.319  1.00  0.00     0.048 C 
HETATM    6  C15 UNL     1       3.109  -1.160  20.689  1.00  0.00     0.031 C 
HETATM    7  C16 UNL     1       3.865  -0.093  21.406  1.00  0.00     0.138 C 
HETATM    8  O4  UNL     1       3.674   0.221  22.626  1.00  0.00    -0.336 OA
HETATM    9  C17 UNL     1       3.257   1.320  23.294  1.00  0.00     0.148 C 
HETATM   10  C18 UNL     1       2.840   2.473  22.424  1.00  0.00     0.065 C 
HETATM   11 CL1  UNL     1       4.786   1.923  24.080  1.00  0.00    -0.087 Cl
HETATM   12  C19 UNL     1       2.386   0.964  24.395  1.00  0.00     0.107 C 
HETATM   13  C20 UNL     1       2.618   1.433  25.833  1.00  0.00     0.200 C 
HETATM   14  C21 UNL     1       1.633   0.455  26.468  1.00  0.00     0.171 C 
HETATM   15  O6  UNL     1       1.600   0.247  27.647  1.00  0.00    -0.294 OA
HETATM   16  C22 UNL     1       0.737  -0.189  25.427  1.00  0.00     0.075 C 
HETATM   17  C23 UNL     1      -0.640   0.060  25.956  1.00  0.00     0.032 C 
HETATM   18  C24 UNL     1       0.950   0.962  24.416  1.00  0.00     0.083 C 
HETATM   19  C25 UNL     1       0.012   1.119  23.344  1.00  0.00     0.048 C 
ENDROOT
BRANCH   1  20
HETATM   20  C8  UNL     1       0.257  -2.608  25.607  1.00  0.00     0.064 C 
BRANCH  20  21
HETATM   21  C7  UNL     1      -0.438  -3.385  24.570  1.00  0.00    -0.016 C 
HETATM   22  C5  UNL     1      -0.471  -4.647  24.390  1.00  0.00    -0.065 C 
HETATM   23  C6  UNL     1       0.250  -5.629  25.203  1.00  0.00     0.048 C 
BRANCH  22  24
HETATM   24  C4  UNL     1      -1.266  -5.183  23.249  1.00  0.00     0.012 C 
HETATM   25  C3  UNL     1      -2.087  -6.185  23.407  1.00  0.00     0.082 C 
BRANCH  25  26
HETATM   26  C2  UNL     1      -2.861  -6.715  22.318  1.00  0.00     0.282 C 
HETATM   27  O2  UNL     1      -4.113  -6.645  22.295  1.00  0.00    -0.260 OA
BRANCH  26  28
HETATM   28  O1  UNL     1      -2.243  -7.336  21.232  1.00  0.00    -0.323 OA
HETATM   29  C1  UNL     1      -1.600  -8.593  21.363  1.00  0.00     0.213 C 
ENDBRANCH  26  28
ENDBRANCH  25  26
ENDBRANCH  22  24
ENDBRANCH  20  21
ENDBRANCH   1  20
BRANCH   2  30
HETATM   30  C11 UNL     1       2.897  -2.951  24.385  1.00  0.00     0.270 C 
HETATM   31  O3  UNL     1       3.326  -4.002  23.940  1.00  0.00    -0.301 OA
ENDBRANCH   2  30
BRANCH  18  32
HETATM   32  O7  UNL     1       0.551   2.091  25.245  1.00  0.00    -0.388 OA
ATOM     33  H7  UNL     1       0.560   2.854  24.679  1.00  0.00     0.210 HD
ENDBRANCH  18  32
BRANCH  13  34
HETATM   34  O5  UNL     1       2.459   2.724  26.114  1.00  0.00    -0.387 OA
ATOM     35  H5  UNL     1       3.231   3.276  26.167  1.00  0.00     0.210 HD
ENDBRANCH  13  34
TORSDOF 8
ENDMDL
MODEL 4
REMARK VINA RESULT: -8.032914313      2.176      4.863
REMARK  8 active torsions:
REMARK  status: ('A' for Active; 'I' for Inactive)
REMARK    1  A    between atoms: O1_2  and  C2_3 
REMARK    2  A    between atoms: C2_3  and  C3_5 
REMARK    3  A    between atoms: C4_6  and  C5_7 
REMARK    4  A    between atoms: C7_9  and  C8_10 
REMARK    5  A    between atoms: C8_10  and  C9_11 
REMARK    6  A    between atoms: C10_12  and  C11_13 
REMARK    7  A    between atoms: C20_25  and  O5_26 
REMARK    8  A    between atoms: C24_32  and  O7_34 
ROOT
HETATM    1  C9  UNL     1       1.241  -2.542  23.708  1.00  0.00    -0.045 C 
HETATM    2  C10 UNL     1       2.502  -1.776  23.310  1.00  0.00     0.006 C 
HETATM    3  C12 UNL     1       2.739  -0.747  22.625  1.00  0.00     0.021 C 
HETATM    4  C13 UNL     1       3.603   0.303  22.025  1.00  0.00    -0.059 C 
HETATM    5  C14 UNL     1       3.962   0.261  20.604  1.00  0.00     0.048 C 
HETATM    6  C15 UNL     1       3.988   1.353  22.783  1.00  0.00     0.031 C 
HETATM    7  C16 UNL     1       3.633   1.610  24.209  1.00  0.00     0.138 C 
HETATM    8  O4  UNL     1       2.879   0.855  24.905  1.00  0.00    -0.336 OA
HETATM    9  C17 UNL     1       1.683   0.977  25.522  1.00  0.00     0.148 C 
HETATM   10  C18 UNL     1       0.992   2.297  25.316  1.00  0.00     0.065 C 
HETATM   11 CL1  UNL     1       2.137   1.017  27.287  1.00  0.00    -0.087 Cl
HETATM   12  C19 UNL     1       0.890  -0.224  25.368  1.00  0.00     0.107 C 
HETATM   13  C20 UNL     1       0.268  -0.976  26.547  1.00  0.00     0.200 C 
HETATM   14  C21 UNL     1      -0.068  -2.238  25.756  1.00  0.00     0.171 C 
HETATM   15  O6  UNL     1      -0.379  -3.266  26.285  1.00  0.00    -0.294 OA
HETATM   16  C22 UNL     1       0.044  -2.007  24.262  1.00  0.00     0.075 C 
HETATM   17  C23 UNL     1      -1.276  -2.476  23.740  1.00  0.00     0.032 C 
HETATM   18  C24 UNL     1      -0.145  -0.478  24.404  1.00  0.00     0.083 C 
HETATM   19  C25 UNL     1      -0.535   0.277  23.250  1.00  0.00     0.048 C 
ENDROOT
BRANCH   1  20
HETATM   20  C8  UNL     1       1.101  -3.753  22.866  1.00  0.00     0.064 C 
BRANCH  20  21
HETATM   21  C7  UNL     1       1.351  -3.556  21.431  1.00  0.00    -0.016 C 
HETATM   22  C5  UNL     1       0.551  -3.676  20.446  1.00  0.00    -0.065 C 
HETATM   23  C6  UNL     1      -0.849  -4.095  20.549  1.00  0.00     0.048 C 
BRANCH  22  24
HETATM   24  C4  UNL     1       1.066  -3.411  19.072  1.00  0.00     0.012 C 
HETATM   25  C3  UNL     1       1.768  -2.345  18.806  1.00  0.00     0.082 C 
BRANCH  25  26
HETATM   26  C2  UNL     1       2.273  -2.073  17.487  1.00  0.00     0.282 C 
HETATM   27  O2  UNL     1       2.891  -1.017  17.215  1.00  0.00    -0.260 OA
BRANCH  26  28
HETATM   28  O1  UNL     1       2.091  -2.986  16.447  1.00  0.00    -0.323 OA
HETATM   29  C1  UNL     1       1.366  -2.644  15.278  1.00  0.00     0.213 C 
ENDBRANCH  26  28
ENDBRANCH  25  26
ENDBRANCH  22  24
ENDBRANCH  20  21
ENDBRANCH   1  20
BRANCH   2  30
HETATM   30  C11 UNL     1       3.625  -2.611  23.816  1.00  0.00     0.270 C 
HETATM   31  O3  UNL     1       3.976  -2.909  24.945  1.00  0.00    -0.301 OA
ENDBRANCH   2  30
BRANCH  18  32
HETATM   32  O7  UNL     1      -1.402  -0.456  25.137  1.00  0.00    -0.388 OA
ATOM     33  H7  UNL     1      -1.389   0.332  25.667  1.00  0.00     0.210 HD
ENDBRANCH  18  32
BRANCH  13  34
HETATM   34  O5  UNL     1      -0.724  -0.398  27.219  1.00  0.00    -0.387 OA
ATOM     35  H5  UNL     1      -0.517   0.315  27.811  1.00  0.00     0.210 HD
ENDBRANCH  13  34
TORSDOF 8
ENDMDL
MODEL 5
REMARK VINA RESULT: -8.025312352      3.141      5.364
REMARK  8 active torsions:
REMARK  status: ('A' for Active; 'I' for Inactive)
REMARK    1  A    between atoms: O1_2  and  C2_3 
REMARK    2  A    between atoms: C2_3  and  C3_5 
REMARK    3  A    between atoms: C4_6  and  C5_7 
REMARK    4  A    between atoms: C7_9  and  C8_10 
REMARK    5  A    between atoms: C8_10  and  C9_11 
REMARK    6  A    between atoms: C10_12  and  C11_13 
REMARK    7  A    between atoms: C20_25  and  O5_26 
REMARK    8  A    between atoms: C24_32  and  O7_34 
ROOT
HETATM    1  C9  UNL     1       1.387  -3.604  23.321  1.00  0.00    -0.045 C 
HETATM    2  C10 UNL     1       2.343  -2.419  23.451  1.00  0.00     0.006 C 
HETATM    3  C12 UNL     1       2.267  -1.185  23.212  1.00  0.00     0.021 C 
HETATM    4  C13 UNL     1       2.769   0.213  23.176  1.00  0.00    -0.059 C 
HETATM    5  C14 UNL     1       3.219   0.820  21.920  1.00  0.00     0.048 C 
HETATM    6  C15 UNL     1       2.726   0.958  24.303  1.00  0.00     0.031 C 
HETATM    7  C16 UNL     1       2.207   0.540  25.637  1.00  0.00     0.138 C 
HETATM    8  O4  UNL     1       1.703  -0.605  25.882  1.00  0.00    -0.336 OA
HETATM    9  C17 UNL     1       0.495  -1.074  26.266  1.00  0.00     0.148 C 
HETATM   10  C18 UNL     1      -0.582  -0.033  26.390  1.00  0.00     0.065 C 
HETATM   11 CL1  UNL     1       0.785  -1.581  27.992  1.00  0.00    -0.087 Cl
HETATM   12  C19 UNL     1       0.164  -2.299  25.568  1.00  0.00     0.107 C 
HETATM   13  C20 UNL     1      -0.250  -3.586  26.283  1.00  0.00     0.200 C 
HETATM   14  C21 UNL     1      -0.087  -4.491  25.065  1.00  0.00     0.171 C 
HETATM   15  O6  UNL     1      -0.071  -5.686  25.147  1.00  0.00    -0.294 OA
HETATM   16  C22 UNL     1       0.045  -3.687  23.786  1.00  0.00     0.075 C 
HETATM   17  C23 UNL     1      -1.002  -4.278  22.897  1.00  0.00     0.032 C 
HETATM   18  C24 UNL     1      -0.655  -2.451  24.398  1.00  0.00     0.083 C 
HETATM   19  C25 UNL     1      -1.195  -1.459  23.515  1.00  0.00     0.048 C 
ENDROOT
BRANCH   1  20
HETATM   20  C8  UNL     1       1.721  -4.389  22.109  1.00  0.00     0.064 C 
BRANCH  20  21
HETATM   21  C7  UNL     1       2.410  -3.644  21.045  1.00  0.00    -0.016 C 
HETATM   22  C5  UNL     1       1.950  -3.190  19.947  1.00  0.00    -0.065 C 
HETATM   23  C6  UNL     1       0.572  -3.361  19.481  1.00  0.00     0.048 C 
BRANCH  22  24
HETATM   24  C4  UNL     1       2.874  -2.458  19.035  1.00  0.00     0.012 C 
HETATM   25  C3  UNL     1       3.968  -1.903  19.481  1.00  0.00     0.082 C 
BRANCH  25  26
HETATM   26  C2  UNL     1       4.871  -1.194  18.617  1.00  0.00     0.282 C 
HETATM   27  O2  UNL     1       5.784  -0.461  19.064  1.00  0.00    -0.260 OA
BRANCH  26  28
HETATM   28  O1  UNL     1       4.763  -1.293  17.228  1.00  0.00    -0.323 OA
HETATM   29  C1  UNL     1       5.790  -0.827  16.369  1.00  0.00     0.213 C 
ENDBRANCH  26  28
ENDBRANCH  25  26
ENDBRANCH  22  24
ENDBRANCH  20  21
ENDBRANCH   1  20
BRANCH   2  30
HETATM   30  C11 UNL     1       3.642  -3.025  23.848  1.00  0.00     0.270 C 
HETATM   31  O3  UNL     1       3.928  -3.874  24.675  1.00  0.00    -0.301 OA
ENDBRANCH   2  30
BRANCH  18  32
HETATM   32  O7  UNL     1      -1.896  -3.069  24.843  1.00  0.00    -0.388 OA
ATOM     33  H7  UNL     1      -2.332  -2.428  25.392  1.00  0.00     0.210 HD
ENDBRANCH  18  32
BRANCH  13  34
HETATM   34  O5  UNL     1      -1.423  -3.617  26.911  1.00  0.00    -0.387 OA
ATOM     35  H5  UNL     1      -1.675  -2.870  27.441  1.00  0.00     0.210 HD
ENDBRANCH  13  34
TORSDOF 8
ENDMDL
