MODEL 1
REMARK VINA RESULT: -6.915265509      0.000      0.000
REMARK  1 active torsions:
REMARK  status: ('A' for Active; 'I' for Inactive)
REMARK    1  A    between atoms: C5_6  and  N1_7 
REMARK       I    between atoms: N2_9  and  C6_11 
ROOT
HETATM    1  C1  UNL     1      24.909  36.628  41.971  1.00  0.00     0.068 C 
HETATM    2  C2  UNL     1      26.201  36.446  41.209  1.00  0.00     0.007 A 
HETATM    3  C3  UNL     1      27.216  35.594  41.538  1.00  0.00     0.045 A 
HETATM    4  C4  UNL     1      28.174  35.771  40.565  1.00  0.00     0.037 A 
HETATM    5  S1  UNL     1      29.730  35.297  39.980  1.00  0.00    -0.068 SA
HETATM    6  C5  UNL     1      29.822  36.294  38.604  1.00  0.00     0.109 A 
HETATM    7  C7  UNL     1      28.636  36.973  38.631  1.00  0.00     0.074 A 
HETATM    8 BR1  UNL     1      28.324  38.253  37.198  1.00  0.00    -0.046 Br
HETATM    9  C8  UNL     1      27.793  36.696  39.648  1.00  0.00     0.070 A 
HETATM   10  N5  UNL     1      26.558  37.095  40.082  1.00  0.00    -0.358 N 
ATOM     11  H5  UNL     1      25.982  37.794  39.613  1.00  0.00     0.166 HD
ENDROOT
BRANCH   6  12
HETATM   12  N1  UNL     1      30.921  36.331  37.703  1.00  0.00    -0.290 N 
HETATM   13  N2  UNL     1      32.126  36.220  38.087  1.00  0.00    -0.273 N 
HETATM   14  C6  UNL     1      33.235  36.251  37.233  1.00  0.00     0.200 C 
ATOM     15  H2  UNL     1      32.298  36.099  39.085  1.00  0.00     0.189 HD
HETATM   16  N3  UNL     1      33.226  36.686  36.017  1.00  0.00    -0.372 N 
HETATM   17  N4  UNL     1      34.496  35.766  37.729  1.00  0.00    -0.062 NA
ATOM     18  H32 UNL     1      32.332  37.030  35.665  1.00  0.00     0.158 HD
ATOM     19  H31 UNL     1      34.034  36.709  35.395  1.00  0.00     0.158 HD
ATOM     20  H1  UNL     1      30.735  36.453  36.708  1.00  0.00     0.187 HD
ENDBRANCH   6  12
TORSDOF 1
ENDMDL
MODEL 2
REMARK VINA RESULT: -6.765997570      1.697      6.287
REMARK  1 active torsions:
REMARK  status: ('A' for Active; 'I' for Inactive)
REMARK    1  A    between atoms: C5_6  and  N1_7 
REMARK       I    between atoms: N2_9  and  C6_11 
ROOT
HETATM    1  C1  UNL     1      35.137  35.543  38.395  1.00  0.00     0.068 C 
HETATM    2  C2  UNL     1      33.665  35.636  38.724  1.00  0.00     0.007 A 
HETATM    3  C3  UNL     1      32.914  34.671  39.333  1.00  0.00     0.045 A 
HETATM    4  C4  UNL     1      31.645  35.195  39.423  1.00  0.00     0.037 A 
HETATM    5  S1  UNL     1      30.018  34.934  39.946  1.00  0.00    -0.068 SA
HETATM    6  C5  UNL     1      29.335  36.419  39.470  1.00  0.00     0.109 A 
HETATM    7  C7  UNL     1      30.392  37.085  38.915  1.00  0.00     0.074 A 
HETATM    8 BR1  UNL     1      30.040  38.871  38.225  1.00  0.00    -0.046 Br
HETATM    9  C8  UNL     1      31.580  36.445  38.895  1.00  0.00     0.070 A 
HETATM   10  N5  UNL     1      32.857  36.685  38.470  1.00  0.00    -0.358 N 
ATOM     11  H5  UNL     1      33.160  37.548  38.018  1.00  0.00     0.166 HD
ENDROOT
BRANCH   6  12
HETATM   12  N1  UNL     1      27.972  36.780  39.655  1.00  0.00    -0.290 N 
HETATM   13  N2  UNL     1      27.332  36.516  40.719  1.00  0.00    -0.273 N 
HETATM   14  C6  UNL     1      25.992  36.853  40.941  1.00  0.00     0.200 C 
ATOM     15  H2  UNL     1      27.827  36.025  41.463  1.00  0.00     0.189 HD
HETATM   16  N3  UNL     1      25.149  37.196  40.023  1.00  0.00    -0.372 N 
HETATM   17  N4  UNL     1      25.492  36.823  42.290  1.00  0.00    -0.062 NA
ATOM     18  H32 UNL     1      25.504  37.217  39.067  1.00  0.00     0.158 HD
ATOM     19  H31 UNL     1      24.172  37.442  40.185  1.00  0.00     0.158 HD
ATOM     20  H1  UNL     1      27.489  37.270  38.903  1.00  0.00     0.187 HD
ENDBRANCH   6  12
TORSDOF 1
ENDMDL
MODEL 3
REMARK VINA RESULT: -6.349451958      1.481      6.317
REMARK  1 active torsions:
REMARK  status: ('A' for Active; 'I' for Inactive)
REMARK    1  A    between atoms: C5_6  and  N1_7 
REMARK       I    between atoms: N2_9  and  C6_11 
ROOT
HETATM    1  C1  UNL     1      33.569  36.702  36.579  1.00  0.00     0.068 C 
HETATM    2  C2  UNL     1      32.367  36.405  37.445  1.00  0.00     0.007 A 
HETATM    3  C3  UNL     1      32.298  35.461  38.429  1.00  0.00     0.045 A 
HETATM    4  C4  UNL     1      31.022  35.553  38.937  1.00  0.00     0.037 A 
HETATM    5  S1  UNL     1      29.889  34.940  40.090  1.00  0.00    -0.068 SA
HETATM    6  C5  UNL     1      28.556  35.931  39.718  1.00  0.00     0.109 A 
HETATM    7  C7  UNL     1      29.026  36.718  38.705  1.00  0.00     0.074 A 
HETATM    8 BR1  UNL     1      27.790  38.029  37.966  1.00  0.00    -0.046 Br
HETATM    9  C8  UNL     1      30.300  36.515  38.308  1.00  0.00     0.070 A 
HETATM   10  N5  UNL     1      31.171  37.024  37.385  1.00  0.00    -0.358 N 
ATOM     11  H5  UNL     1      30.944  37.776  36.734  1.00  0.00     0.166 HD
ENDROOT
BRANCH   6  12
HETATM   12  N1  UNL     1      27.295  35.872  40.373  1.00  0.00    -0.290 N 
HETATM   13  N2  UNL     1      26.952  36.698  41.274  1.00  0.00    -0.273 N 
HETATM   14  C6  UNL     1      25.721  36.674  41.942  1.00  0.00     0.200 C 
ATOM     15  H2  UNL     1      27.616  37.428  41.529  1.00  0.00     0.189 HD
HETATM   16  N3  UNL     1      24.906  35.672  41.964  1.00  0.00    -0.372 N 
HETATM   17  N4  UNL     1      25.313  37.847  42.668  1.00  0.00    -0.062 NA
ATOM     18  H32 UNL     1      25.195  34.841  41.448  1.00  0.00     0.158 HD
ATOM     19  H31 UNL     1      24.010  35.655  42.450  1.00  0.00     0.158 HD
ATOM     20  H1  UNL     1      26.640  35.136  40.109  1.00  0.00     0.187 HD
ENDBRANCH   6  12
TORSDOF 1
ENDMDL
MODEL 4
REMARK VINA RESULT: -6.302544337      1.951      2.118
REMARK  1 active torsions:
REMARK  status: ('A' for Active; 'I' for Inactive)
REMARK    1  A    between atoms: C5_6  and  N1_7 
REMARK       I    between atoms: N2_9  and  C6_11 
ROOT
HETATM    1  C1  UNL     1      25.010  36.260  42.190  1.00  0.00     0.068 C 
HETATM    2  C2  UNL     1      25.964  36.546  41.055  1.00  0.00     0.007 A 
HETATM    3  C3  UNL     1      25.731  37.378  39.998  1.00  0.00     0.045 A 
HETATM    4  C4  UNL     1      26.871  37.323  39.228  1.00  0.00     0.037 A 
HETATM    5  S1  UNL     1      27.667  37.887  37.801  1.00  0.00    -0.068 SA
HETATM    6  C5  UNL     1      29.137  37.041  37.955  1.00  0.00     0.109 A 
HETATM    7  C7  UNL     1      28.973  36.340  39.116  1.00  0.00     0.074 A 
HETATM    8 BR1  UNL     1      30.457  35.212  39.678  1.00  0.00    -0.046 Br
HETATM    9  C8  UNL     1      27.800  36.492  39.766  1.00  0.00     0.070 A 
HETATM   10  N5  UNL     1      27.199  36.026  40.903  1.00  0.00    -0.358 N 
ATOM     11  H5  UNL     1      27.631  35.369  41.553  1.00  0.00     0.166 HD
ENDROOT
BRANCH   6  12
HETATM   12  N1  UNL     1      30.217  37.120  37.033  1.00  0.00    -0.290 N 
HETATM   13  N2  UNL     1      31.392  37.450  37.382  1.00  0.00    -0.273 N 
HETATM   14  C6  UNL     1      32.481  37.539  36.507  1.00  0.00     0.200 C 
ATOM     15  H2  UNL     1      31.555  37.664  38.366  1.00  0.00     0.189 HD
HETATM   16  N3  UNL     1      32.399  37.597  35.219  1.00  0.00    -0.372 N 
HETATM   17  N4  UNL     1      33.807  37.571  37.065  1.00  0.00    -0.062 NA
ATOM     18  H32 UNL     1      31.458  37.574  34.824  1.00  0.00     0.158 HD
ATOM     19  H31 UNL     1      33.192  37.662  34.581  1.00  0.00     0.158 HD
ATOM     20  H1  UNL     1      30.040  36.903  36.053  1.00  0.00     0.187 HD
ENDBRANCH   6  12
TORSDOF 1
ENDMDL
MODEL 5
REMARK VINA RESULT: -6.092132935      0.854      1.344
REMARK  1 active torsions:
REMARK  status: ('A' for Active; 'I' for Inactive)
REMARK    1  A    between atoms: C5_6  and  N1_7 
REMARK       I    between atoms: N2_9  and  C6_11 
ROOT
HETATM    1  C1  UNL     1      24.762  36.437  42.031  1.00  0.00     0.068 C 
HETATM    2  C2  UNL     1      26.095  36.326  41.329  1.00  0.00     0.007 A 
HETATM    3  C3  UNL     1      27.137  35.526  41.703  1.00  0.00     0.045 A 
HETATM    4  C4  UNL     1      28.128  35.756  40.776  1.00  0.00     0.037 A 
HETATM    5  S1  UNL     1      29.732  35.366  40.263  1.00  0.00    -0.068 SA
HETATM    6  C5  UNL     1      29.835  36.372  38.894  1.00  0.00     0.109 A 
HETATM    7  C7  UNL     1      28.616  36.989  38.868  1.00  0.00     0.074 A 
HETATM    8 BR1  UNL     1      28.303  38.257  37.424  1.00  0.00    -0.046 Br
HETATM    9  C8  UNL     1      27.742  36.665  39.844  1.00  0.00     0.070 A 
HETATM   10  N5  UNL     1      26.470  36.997  40.221  1.00  0.00    -0.358 N 
ATOM     11  H5  UNL     1      25.880  37.667  39.728  1.00  0.00     0.166 HD
ENDROOT
BRANCH   6  12
HETATM   12  N1  UNL     1      30.971  36.470  38.044  1.00  0.00    -0.290 N 
HETATM   13  N2  UNL     1      30.972  37.160  36.978  1.00  0.00    -0.273 N 
HETATM   14  C6  UNL     1      32.068  37.283  36.116  1.00  0.00     0.200 C 
ATOM     15  H2  UNL     1      30.117  37.659  36.734  1.00  0.00     0.189 HD
HETATM   16  N3  UNL     1      33.099  36.505  36.108  1.00  0.00    -0.372 N 
HETATM   17  N4  UNL     1      32.066  38.353  35.154  1.00  0.00    -0.062 NA
ATOM     18  H32 UNL     1      33.100  35.746  36.790  1.00  0.00     0.158 HD
ATOM     19  H31 UNL     1      33.898  36.594  35.480  1.00  0.00     0.158 HD
ATOM     20  H1  UNL     1      31.819  35.966  38.301  1.00  0.00     0.187 HD
ENDBRANCH   6  12
TORSDOF 1
ENDMDL
