MODEL 1
REMARK VINA RESULT: -8.583017326      0.000      0.000
REMARK  1 active torsions:
REMARK  status: ('A' for Active; 'I' for Inactive)
REMARK    1  A    between atoms: C8_17  and  C9_18 
ROOT
HETATM    1  N1  UNL     1      32.474  32.962  39.964  1.00  0.00    -0.197 NA
HETATM    2  C1  UNL     1      32.118  33.946  39.450  1.00  0.00     0.070 C 
HETATM    3  C2  UNL     1      31.683  35.170  38.783  1.00  0.00     0.148 C 
HETATM    4  C3  UNL     1      32.602  36.303  39.009  1.00  0.00     0.023 C 
HETATM    5  N2  UNL     1      33.491  36.244  39.898  1.00  0.00    -0.403 N 
ATOM      6  H21 UNL     1      34.126  37.027  40.054  1.00  0.00     0.155 HD
ATOM      7  H22 UNL     1      33.591  35.412  40.479  1.00  0.00     0.155 HD
HETATM    8  C4  UNL     1      32.458  37.507  38.168  1.00  0.00     0.180 C 
HETATM    9 CL1  UNL     1      33.371  37.270  36.662  1.00  0.00    -0.112 Cl
HETATM   10  C5  UNL     1      30.994  37.665  37.865  1.00  0.00     0.058 A 
HETATM   11  N3  UNL     1      30.393  38.694  37.243  1.00  0.00    -0.303 N 
ATOM     12  H3  UNL     1      30.867  39.523  36.883  1.00  0.00     0.186 HD
HETATM   13  N4  UNL     1      29.079  38.463  37.167  1.00  0.00    -0.311 N 
ATOM     14  H4  UNL     1      28.393  39.086  36.742  1.00  0.00     0.186 HD
HETATM   15  C6  UNL     1      28.805  37.278  37.741  1.00  0.00     0.116 A 
HETATM   16  C7  UNL     1      30.026  36.781  38.182  1.00  0.00    -0.009 A 
HETATM   17  C8  UNL     1      30.250  35.470  38.897  1.00  0.00     0.049 C 
ENDROOT
BRANCH  17  18
HETATM   18  C9  UNL     1      29.571  35.574  40.189  1.00  0.00    -0.004 C 
HETATM   19  C10 UNL     1      29.546  36.920  40.854  1.00  0.00     0.005 C 
HETATM   20  C11 UNL     1      29.303  36.610  42.343  1.00  0.00     0.000 C 
HETATM   21  C12 UNL     1      27.865  36.252  42.471  1.00  0.00     0.000 C 
HETATM   22  C13 UNL     1      27.279  35.770  41.199  1.00  0.00     0.000 C 
HETATM   23  C14 UNL     1      28.208  34.968  40.319  1.00  0.00     0.005 C 
ENDBRANCH  17  18
TORSDOF 1
ENDMDL
MODEL 2
REMARK VINA RESULT: -8.389892509      0.877      1.431
REMARK  1 active torsions:
REMARK  status: ('A' for Active; 'I' for Inactive)
REMARK    1  A    between atoms: C8_17  and  C9_18 
ROOT
HETATM    1  N1  UNL     1      31.079  33.336  39.428  1.00  0.00    -0.197 NA
HETATM    2  C1  UNL     1      31.015  34.421  39.009  1.00  0.00     0.070 C 
HETATM    3  C2  UNL     1      30.945  35.773  38.460  1.00  0.00     0.148 C 
HETATM    4  C3  UNL     1      32.098  36.609  38.849  1.00  0.00     0.023 C 
HETATM    5  N2  UNL     1      32.879  36.244  39.765  1.00  0.00    -0.403 N 
ATOM      6  H21 UNL     1      33.676  36.821  40.033  1.00  0.00     0.155 HD
ATOM      7  H22 UNL     1      32.729  35.363  40.256  1.00  0.00     0.155 HD
HETATM    8  C4  UNL     1      32.317  37.884  38.137  1.00  0.00     0.180 C 
HETATM    9 CL1  UNL     1      33.247  37.565  36.658  1.00  0.00    -0.112 Cl
HETATM   10  C5  UNL     1      30.963  38.436  37.788  1.00  0.00     0.058 A 
HETATM   11  N3  UNL     1      30.681  39.637  37.255  1.00  0.00    -0.303 N 
ATOM     12  H3  UNL     1      31.370  40.348  37.009  1.00  0.00     0.186 HD
HETATM   13  N4  UNL     1      29.359  39.755  37.096  1.00  0.00    -0.311 N 
ATOM     14  H4  UNL     1      28.881  40.569  36.710  1.00  0.00     0.186 HD
HETATM   15  C6  UNL     1      28.761  38.630  37.525  1.00  0.00     0.116 A 
HETATM   16  C7  UNL     1      29.786  37.800  37.963  1.00  0.00    -0.009 A 
HETATM   17  C8  UNL     1      29.628  36.415  38.541  1.00  0.00     0.049 C 
ENDROOT
BRANCH  17  18
HETATM   18  C9  UNL     1      28.905  36.565  39.805  1.00  0.00    -0.004 C 
HETATM   19  C10 UNL     1      27.884  35.520  40.149  1.00  0.00     0.005 C 
HETATM   20  C11 UNL     1      26.950  36.211  41.161  1.00  0.00     0.000 C 
HETATM   21  C12 UNL     1      27.688  36.260  42.451  1.00  0.00     0.000 C 
HETATM   22  C13 UNL     1      29.156  36.182  42.275  1.00  0.00     0.000 C 
HETATM   23  C14 UNL     1      29.699  36.860  41.040  1.00  0.00     0.005 C 
ENDBRANCH  17  18
TORSDOF 1
ENDMDL
MODEL 3
REMARK VINA RESULT: -8.330385265      1.317      3.802
REMARK  1 active torsions:
REMARK  status: ('A' for Active; 'I' for Inactive)
REMARK    1  A    between atoms: C8_17  and  C9_18 
ROOT
HETATM    1  N1  UNL     1      29.688  40.206  38.189  1.00  0.00    -0.197 NA
HETATM    2  C1  UNL     1      30.208  39.166  38.252  1.00  0.00     0.070 C 
HETATM    3  C2  UNL     1      30.885  37.873  38.324  1.00  0.00     0.148 C 
HETATM    4  C3  UNL     1      30.718  37.070  37.097  1.00  0.00     0.023 C 
HETATM    5  N2  UNL     1      29.861  37.387  36.232  1.00  0.00    -0.403 N 
ATOM      6  H21 UNL     1      29.745  36.832  35.383  1.00  0.00     0.155 HD
ATOM      7  H22 UNL     1      29.265  38.204  36.364  1.00  0.00     0.155 HD
HETATM    8  C4  UNL     1      31.579  35.887  36.905  1.00  0.00     0.180 C 
HETATM    9 CL1  UNL     1      33.111  36.403  36.168  1.00  0.00    -0.112 Cl
HETATM   10  C5  UNL     1      31.831  35.296  38.264  1.00  0.00     0.058 A 
HETATM   11  N3  UNL     1      32.453  34.140  38.551  1.00  0.00    -0.303 N 
ATOM     12  H3  UNL     1      32.847  33.497  37.863  1.00  0.00     0.186 HD
HETATM   13  N4  UNL     1      32.476  33.962  39.875  1.00  0.00    -0.311 N 
ATOM     14  H4  UNL     1      32.890  33.165  40.358  1.00  0.00     0.186 HD
HETATM   15  C6  UNL     1      31.867  35.003  40.470  1.00  0.00     0.116 A 
HETATM   16  C7  UNL     1      31.461  35.843  39.440  1.00  0.00    -0.009 A 
HETATM   17  C8  UNL     1      30.727  37.152  39.592  1.00  0.00     0.049 C 
ENDROOT
BRANCH  17  18
HETATM   18  C9  UNL     1      29.413  36.836  40.155  1.00  0.00    -0.004 C 
HETATM   19  C10 UNL     1      28.684  35.651  39.591  1.00  0.00     0.005 C 
HETATM   20  C11 UNL     1      27.205  35.906  39.939  1.00  0.00     0.000 C 
HETATM   21  C12 UNL     1      27.056  35.612  41.390  1.00  0.00     0.000 C 
HETATM   22  C13 UNL     1      28.333  35.722  42.131  1.00  0.00     0.000 C 
HETATM   23  C14 UNL     1      29.275  36.798  41.646  1.00  0.00     0.005 C 
ENDBRANCH  17  18
TORSDOF 1
ENDMDL
MODEL 4
REMARK VINA RESULT: -8.042085551      1.366      3.737
REMARK  1 active torsions:
REMARK  status: ('A' for Active; 'I' for Inactive)
REMARK    1  A    between atoms: C8_17  and  C9_18 
ROOT
HETATM    1  N1  UNL     1      29.143  39.893  38.030  1.00  0.00    -0.197 NA
HETATM    2  C1  UNL     1      29.795  38.932  38.125  1.00  0.00     0.070 C 
HETATM    3  C2  UNL     1      30.635  37.743  38.240  1.00  0.00     0.148 C 
HETATM    4  C3  UNL     1      30.716  36.975  36.982  1.00  0.00     0.023 C 
HETATM    5  N2  UNL     1      29.921  37.205  36.035  1.00  0.00    -0.403 N 
ATOM      6  H21 UNL     1      29.977  36.675  35.165  1.00  0.00     0.155 HD
ATOM      7  H22 UNL     1      29.206  37.928  36.119  1.00  0.00     0.155 HD
HETATM    8  C4  UNL     1      31.751  35.930  36.859  1.00  0.00     0.180 C 
HETATM    9 CL1  UNL     1      33.265  36.681  36.313  1.00  0.00    -0.112 Cl
HETATM   10  C5  UNL     1      31.936  35.324  38.223  1.00  0.00     0.058 A 
HETATM   11  N3  UNL     1      32.680  34.254  38.549  1.00  0.00    -0.303 N 
ATOM     12  H3  UNL     1      33.233  33.699  37.894  1.00  0.00     0.186 HD
HETATM   13  N4  UNL     1      32.585  34.028  39.862  1.00  0.00    -0.311 N 
ATOM     14  H4  UNL     1      33.052  33.276  40.369  1.00  0.00     0.186 HD
HETATM   15  C6  UNL     1      31.774  34.951  40.411  1.00  0.00     0.116 A 
HETATM   16  C7  UNL     1      31.367  35.767  39.363  1.00  0.00    -0.009 A 
HETATM   17  C8  UNL     1      30.444  36.957  39.465  1.00  0.00     0.049 C 
ENDROOT
BRANCH  17  18
HETATM   18  C9  UNL     1      29.135  36.440  39.868  1.00  0.00    -0.004 C 
HETATM   19  C10 UNL     1      28.750  36.579  41.313  1.00  0.00     0.005 C 
HETATM   20  C11 UNL     1      27.669  35.504  41.529  1.00  0.00     0.000 C 
HETATM   21  C12 UNL     1      26.425  36.021  40.898  1.00  0.00     0.000 C 
HETATM   22  C13 UNL     1      26.693  37.031  39.848  1.00  0.00     0.000 C 
HETATM   23  C14 UNL     1      27.945  36.806  39.035  1.00  0.00     0.005 C 
ENDBRANCH  17  18
TORSDOF 1
ENDMDL
MODEL 5
REMARK VINA RESULT: -8.002598987      2.427      4.358
REMARK  1 active torsions:
REMARK  status: ('A' for Active; 'I' for Inactive)
REMARK    1  A    between atoms: C8_17  and  C9_18 
ROOT
HETATM    1  N1  UNL     1      33.659  37.849  36.628  1.00  0.00    -0.197 NA
HETATM    2  C1  UNL     1      33.022  37.314  37.443  1.00  0.00     0.070 C 
HETATM    3  C2  UNL     1      32.247  36.637  38.480  1.00  0.00     0.148 C 
HETATM    4  C3  UNL     1      31.905  35.246  38.122  1.00  0.00     0.023 C 
HETATM    5  N2  UNL     1      32.049  34.830  36.944  1.00  0.00    -0.403 N 
ATOM      6  H21 UNL     1      31.813  33.869  36.697  1.00  0.00     0.155 HD
ATOM      7  H22 UNL     1      32.404  35.447  36.214  1.00  0.00     0.155 HD
HETATM    8  C4  UNL     1      31.391  34.352  39.178  1.00  0.00     0.180 C 
HETATM    9 CL1  UNL     1      32.766  33.626  40.038  1.00  0.00    -0.112 Cl
HETATM   10  C5  UNL     1      30.580  35.197  40.120  1.00  0.00     0.058 A 
HETATM   11  N3  UNL     1      29.822  34.780  41.149  1.00  0.00    -0.303 N 
ATOM     12  H3  UNL     1      29.697  33.808  41.432  1.00  0.00     0.186 HD
HETATM   13  N4  UNL     1      29.257  35.835  41.743  1.00  0.00    -0.311 N 
ATOM     14  H4  UNL     1      28.634  35.796  42.550  1.00  0.00     0.186 HD
HETATM   15  C6  UNL     1      29.640  36.957  41.108  1.00  0.00     0.116 A 
HETATM   16  C7  UNL     1      30.478  36.542  40.080  1.00  0.00    -0.009 A 
HETATM   17  C8  UNL     1      31.168  37.433  39.076  1.00  0.00     0.049 C 
ENDROOT
BRANCH  17  18
HETATM   18  C9  UNL     1      30.115  38.055  38.271  1.00  0.00    -0.004 C 
HETATM   19  C10 UNL     1      30.460  39.316  37.534  1.00  0.00     0.005 C 
HETATM   20  C11 UNL     1      29.102  39.998  37.279  1.00  0.00     0.000 C 
HETATM   21  C12 UNL     1      28.452  39.244  36.174  1.00  0.00     0.000 C 
HETATM   22  C13 UNL     1      28.961  37.859  36.048  1.00  0.00     0.000 C 
HETATM   23  C14 UNL     1      29.325  37.180  37.347  1.00  0.00     0.005 C 
ENDBRANCH  17  18
TORSDOF 1
ENDMDL
