MODEL 1
REMARK VINA RESULT: -7.486675920      0.000      0.000
REMARK  3 active torsions:
REMARK  status: ('A' for Active; 'I' for Inactive)
REMARK       I    between atoms: C2_2  and  N1_4 
REMARK    1  A    between atoms: N1_4  and  C3_5 
REMARK    2  A    between atoms: C5_7  and  C6_8 
REMARK    3  A    between atoms: C10_12  and  O2_13 
ROOT
HETATM    1  C3  UNL     1      29.971  36.621  39.058  1.00  0.00     0.146 A 
HETATM    2  C4  UNL     1      29.367  36.333  40.242  1.00  0.00     0.060 A 
HETATM    3  C5  UNL     1      27.933  36.539  40.435  1.00  0.00     0.011 A 
HETATM    4  C10 UNL     1      27.190  37.012  39.458  1.00  0.00     0.191 A 
HETATM    5  O3  UNL     1      27.742  37.325  38.237  1.00  0.00    -0.283 OA
HETATM    6  C11 UNL     1      29.151  37.138  38.000  1.00  0.00     0.136 A 
HETATM    7  C12 UNL     1      29.585  37.466  36.816  1.00  0.00     0.045 C 
HETATM    8  C13 UNL     1      28.581  37.993  35.823  1.00  0.00     0.065 C 
HETATM    9 CL1  UNL     1      31.202  37.378  36.281  1.00  0.00    -0.086 Cl
ENDROOT
BRANCH   1  10
HETATM   10  N1  UNL     1      31.347  36.397  38.964  1.00  0.00    -0.368 NA
HETATM   11  C2  UNL     1      32.632  36.187  38.878  1.00  0.00     0.288 C 
HETATM   12  C1  UNL     1      33.161  34.823  39.388  1.00  0.00     0.135 C 
HETATM   13  O1  UNL     1      33.577  36.883  38.451  1.00  0.00    -0.258 OA
ENDBRANCH   1  10
BRANCH   3  14
HETATM   14  C6  UNL     1      27.393  36.193  41.730  1.00  0.00    -0.019 C 
HETATM   15  C7  UNL     1      26.185  36.855  42.237  1.00  0.00     0.019 C 
HETATM   16  C8  UNL     1      28.478  36.362  42.806  1.00  0.00     0.019 C 
HETATM   17  C9  UNL     1      27.087  34.682  41.712  1.00  0.00     0.019 C 
ENDBRANCH   3  14
BRANCH   4  18
HETATM   18  O2  UNL     1      25.839  37.180  39.709  1.00  0.00    -0.340 OA
ATOM     19  H2  UNL     1      25.229  36.714  39.150  1.00  0.00     0.220 HD
ENDBRANCH   4  18
TORSDOF 3
ENDMDL
MODEL 2
REMARK VINA RESULT: -7.251959271      1.988      5.267
REMARK  3 active torsions:
REMARK  status: ('A' for Active; 'I' for Inactive)
REMARK       I    between atoms: C2_2  and  N1_4 
REMARK    1  A    between atoms: N1_4  and  C3_5 
REMARK    2  A    between atoms: C5_7  and  C6_8 
REMARK    3  A    between atoms: C10_12  and  O2_13 
ROOT
HETATM    1  C3  UNL     1      29.712  36.561  39.360  1.00  0.00     0.146 A 
HETATM    2  C4  UNL     1      30.958  36.038  39.512  1.00  0.00     0.060 A 
HETATM    3  C5  UNL     1      32.024  36.320  38.551  1.00  0.00     0.011 A 
HETATM    4  C10 UNL     1      31.796  37.090  37.510  1.00  0.00     0.191 A 
HETATM    5  O3  UNL     1      30.555  37.646  37.300  1.00  0.00    -0.283 OA
HETATM    6  C11 UNL     1      29.475  37.398  38.220  1.00  0.00     0.136 A 
HETATM    7  C12 UNL     1      28.335  37.963  37.937  1.00  0.00     0.045 C 
HETATM    8  C13 UNL     1      28.264  38.814  36.696  1.00  0.00     0.065 C 
HETATM    9 CL1  UNL     1      26.891  37.811  38.832  1.00  0.00    -0.086 Cl
ENDROOT
BRANCH   1  10
HETATM   10  N1  UNL     1      28.755  36.236  40.325  1.00  0.00    -0.368 NA
HETATM   11  C2  UNL     1      27.862  35.931  41.227  1.00  0.00     0.288 C 
HETATM   12  C1  UNL     1      28.278  36.077  42.712  1.00  0.00     0.135 C 
HETATM   13  O1  UNL     1      26.682  35.528  41.148  1.00  0.00    -0.258 OA
ENDBRANCH   1  10
BRANCH   3  14
HETATM   14  C6  UNL     1      33.312  35.720  38.813  1.00  0.00    -0.019 C 
HETATM   15  C7  UNL     1      34.298  35.568  37.736  1.00  0.00     0.019 C 
HETATM   16  C8  UNL     1      33.120  34.329  39.439  1.00  0.00     0.019 C 
HETATM   17  C9  UNL     1      33.994  36.557  39.913  1.00  0.00     0.019 C 
ENDBRANCH   3  14
BRANCH   4  18
HETATM   18  O2  UNL     1      32.850  37.316  36.642  1.00  0.00    -0.340 OA
ATOM     19  H2  UNL     1      33.199  38.198  36.597  1.00  0.00     0.220 HD
ENDBRANCH   4  18
TORSDOF 3
ENDMDL
MODEL 3
REMARK VINA RESULT: -7.187772829      0.240      1.001
REMARK  3 active torsions:
REMARK  status: ('A' for Active; 'I' for Inactive)
REMARK       I    between atoms: C2_2  and  N1_4 
REMARK    1  A    between atoms: N1_4  and  C3_5 
REMARK    2  A    between atoms: C5_7  and  C6_8 
REMARK    3  A    between atoms: C10_12  and  O2_13 
ROOT
HETATM    1  C3  UNL     1      29.917  36.730  39.009  1.00  0.00     0.146 A 
HETATM    2  C4  UNL     1      29.355  36.386  40.199  1.00  0.00     0.060 A 
HETATM    3  C5  UNL     1      27.914  36.495  40.420  1.00  0.00     0.011 A 
HETATM    4  C10 UNL     1      27.124  36.932  39.465  1.00  0.00     0.191 A 
HETATM    5  O3  UNL     1      27.632  37.298  38.239  1.00  0.00    -0.283 OA
HETATM    6  C11 UNL     1      29.046  37.207  37.975  1.00  0.00     0.136 A 
HETATM    7  C12 UNL     1      29.436  37.580  36.788  1.00  0.00     0.045 C 
HETATM    8  C13 UNL     1      28.382  38.055  35.822  1.00  0.00     0.065 C 
HETATM    9 CL1  UNL     1      31.045  37.606  36.224  1.00  0.00    -0.086 Cl
ENDROOT
BRANCH   1  10
HETATM   10  N1  UNL     1      31.302  36.598  38.888  1.00  0.00    -0.368 NA
HETATM   11  C2  UNL     1      32.597  36.474  38.777  1.00  0.00     0.288 C 
HETATM   12  C1  UNL     1      33.273  35.347  39.598  1.00  0.00     0.135 C 
HETATM   13  O1  UNL     1      33.453  37.098  38.117  1.00  0.00    -0.258 OA
ENDBRANCH   1  10
BRANCH   3  14
HETATM   14  C6  UNL     1      27.422  36.095  41.719  1.00  0.00    -0.019 C 
HETATM   15  C7  UNL     1      26.980  34.716  41.959  1.00  0.00     0.019 C 
HETATM   16  C8  UNL     1      26.264  37.014  42.141  1.00  0.00     0.019 C 
HETATM   17  C9  UNL     1      28.542  36.378  42.740  1.00  0.00     0.019 C 
ENDBRANCH   3  14
BRANCH   4  18
HETATM   18  O2  UNL     1      25.770  37.008  39.741  1.00  0.00    -0.340 OA
ATOM     19  H2  UNL     1      25.407  37.868  39.916  1.00  0.00     0.220 HD
ENDBRANCH   4  18
TORSDOF 3
ENDMDL
MODEL 4
REMARK VINA RESULT: -6.948255818      1.454      1.706
REMARK  3 active torsions:
REMARK  status: ('A' for Active; 'I' for Inactive)
REMARK       I    between atoms: C2_2  and  N1_4 
REMARK    1  A    between atoms: N1_4  and  C3_5 
REMARK    2  A    between atoms: C5_7  and  C6_8 
REMARK    3  A    between atoms: C10_12  and  O2_13 
ROOT
HETATM    1  C3  UNL     1      30.376  36.577  38.962  1.00  0.00     0.146 A 
HETATM    2  C4  UNL     1      29.237  36.271  39.640  1.00  0.00     0.060 A 
HETATM    3  C5  UNL     1      27.969  36.933  39.337  1.00  0.00     0.011 A 
HETATM    4  C10 UNL     1      27.904  37.847  38.394  1.00  0.00     0.191 A 
HETATM    5  O3  UNL     1      29.021  38.202  37.674  1.00  0.00    -0.283 OA
HETATM    6  C11 UNL     1      30.292  37.577  37.937  1.00  0.00     0.136 A 
HETATM    7  C12 UNL     1      31.295  37.980  37.209  1.00  0.00     0.045 C 
HETATM    8  C13 UNL     1      31.027  39.041  36.173  1.00  0.00     0.065 C 
HETATM    9 CL1  UNL     1      32.907  37.435  37.332  1.00  0.00    -0.086 Cl
ENDROOT
BRANCH   1  10
HETATM   10  N1  UNL     1      31.542  35.898  39.322  1.00  0.00    -0.368 NA
HETATM   11  C2  UNL     1      32.632  35.262  39.658  1.00  0.00     0.288 C 
HETATM   12  C1  UNL     1      32.522  33.730  39.862  1.00  0.00     0.135 C 
HETATM   13  O1  UNL     1      33.804  35.641  39.861  1.00  0.00    -0.258 OA
ENDBRANCH   1  10
BRANCH   3  14
HETATM   14  C6  UNL     1      26.820  36.526  40.113  1.00  0.00    -0.019 C 
HETATM   15  C7  UNL     1      25.773  37.495  40.461  1.00  0.00     0.019 C 
HETATM   16  C8  UNL     1      27.285  35.881  41.429  1.00  0.00     0.019 C 
HETATM   17  C9  UNL     1      26.123  35.389  39.341  1.00  0.00     0.019 C 
ENDBRANCH   3  14
BRANCH   4  18
HETATM   18  O2  UNL     1      26.671  38.432  38.158  1.00  0.00    -0.340 OA
ATOM     19  H2  UNL     1      26.584  39.359  38.346  1.00  0.00     0.220 HD
ENDBRANCH   4  18
TORSDOF 3
ENDMDL
MODEL 5
REMARK VINA RESULT: -6.750291724      2.107      3.564
REMARK  3 active torsions:
REMARK  status: ('A' for Active; 'I' for Inactive)
REMARK       I    between atoms: C2_2  and  N1_4 
REMARK    1  A    between atoms: N1_4  and  C3_5 
REMARK    2  A    between atoms: C5_7  and  C6_8 
REMARK    3  A    between atoms: C10_12  and  O2_13 
ROOT
HETATM    1  C3  UNL     1      28.833  36.766  39.066  1.00  0.00     0.146 A 
HETATM    2  C4  UNL     1      27.648  36.984  39.696  1.00  0.00     0.060 A 
HETATM    3  C5  UNL     1      27.364  36.400  41.006  1.00  0.00     0.011 A 
HETATM    4  C10 UNL     1      28.257  35.644  41.606  1.00  0.00     0.191 A 
HETATM    5  O3  UNL     1      29.474  35.384  41.019  1.00  0.00    -0.283 OA
HETATM    6  C11 UNL     1      29.798  35.939  39.729  1.00  0.00     0.136 A 
HETATM    7  C12 UNL     1      30.972  35.635  39.250  1.00  0.00     0.045 C 
HETATM    8  C13 UNL     1      31.862  34.752  40.085  1.00  0.00     0.065 C 
HETATM    9 CL1  UNL     1      31.596  36.126  37.740  1.00  0.00    -0.086 Cl
ENDROOT
BRANCH   1  10
HETATM   10  N1  UNL     1      29.017  37.361  37.815  1.00  0.00    -0.368 NA
HETATM   11  C2  UNL     1      29.188  37.918  36.647  1.00  0.00     0.288 C 
HETATM   12  C1  UNL     1      30.101  39.169  36.587  1.00  0.00     0.135 C 
HETATM   13  O1  UNL     1      28.754  37.647  35.508  1.00  0.00    -0.258 OA
ENDBRANCH   1  10
BRANCH   3  14
HETATM   14  C6  UNL     1      26.076  36.702  41.589  1.00  0.00    -0.019 C 
HETATM   15  C7  UNL     1      25.980  37.516  42.807  1.00  0.00     0.019 C 
HETATM   16  C8  UNL     1      25.312  35.397  41.864  1.00  0.00     0.019 C 
HETATM   17  C9  UNL     1      25.245  37.428  40.513  1.00  0.00     0.019 C 
ENDBRANCH   3  14
BRANCH   4  18
HETATM   18  O2  UNL     1      27.923  35.125  42.845  1.00  0.00    -0.340 OA
ATOM     19  H2  UNL     1      28.636  34.881  43.424  1.00  0.00     0.220 HD
ENDBRANCH   4  18
TORSDOF 3
ENDMDL
