MODEL 1
REMARK VINA RESULT: -6.812197321      0.000      0.000
REMARK  2 active torsions:
REMARK  status: ('A' for Active; 'I' for Inactive)
REMARK    1  A    between atoms: C2_2  and  N1_3 
REMARK    2  A    between atoms: C6_10  and  O1_11 
ROOT
HETATM    1  N1  UNL     1      29.601  36.584  39.256  1.00  0.00    -0.366 N 
HETATM    2  C3  UNL     1      30.888  36.009  38.987  1.00  0.00     0.114 C 
HETATM    3  S1  UNL     1      31.323  34.701  39.890  1.00  0.00    -0.059 SA
HETATM    4  C4  UNL     1      31.875  36.416  38.028  1.00  0.00     0.061 A 
HETATM    5  C5  UNL     1      31.815  37.333  37.000  1.00  0.00     0.087 A 
HETATM    6  N2  UNL     1      33.003  37.329  36.397  1.00  0.00    -0.329 N 
ATOM      7  H2  UNL     1      33.247  37.913  35.597  1.00  0.00     0.168 HD
HETATM    8  C6  UNL     1      33.834  36.459  36.980  1.00  0.00     0.164 A 
HETATM    9  C7  UNL     1      33.163  35.861  38.014  1.00  0.00     0.101 A 
HETATM   10 CL1  UNL     1      33.763  34.641  39.126  1.00  0.00    -0.079 Cl
HETATM   11  S2  UNL     1      30.389  38.328  36.602  1.00  0.00    -0.109 SA
HETATM   12  C8  UNL     1      29.682  38.848  38.194  1.00  0.00     0.105 C 
HETATM   13  C9  UNL     1      28.923  37.739  38.858  1.00  0.00     0.091 C 
HETATM   14  C10 UNL     1      27.668  37.536  38.049  1.00  0.00     0.033 C 
ENDROOT
BRANCH   1  15
HETATM   15  C2  UNL     1      28.874  35.732  40.179  1.00  0.00     0.120 C 
HETATM   16  C1  UNL     1      28.582  36.328  41.517  1.00  0.00     0.026 C 
ENDBRANCH   1  15
BRANCH   8  17
HETATM   17  O1  UNL     1      35.134  36.189  36.630  1.00  0.00    -0.345 OA
ATOM     18  H1  UNL     1      35.605  36.512  35.871  1.00  0.00     0.219 HD
ENDBRANCH   8  17
TORSDOF 2
ENDMDL
MODEL 2
REMARK VINA RESULT: -6.798167575      3.509      5.569
REMARK  2 active torsions:
REMARK  status: ('A' for Active; 'I' for Inactive)
REMARK    1  A    between atoms: C2_2  and  N1_3 
REMARK    2  A    between atoms: C6_10  and  O1_11 
ROOT
HETATM    1  N1  UNL     1      30.522  37.087  37.530  1.00  0.00    -0.366 N 
HETATM    2  C3  UNL     1      29.294  36.990  38.266  1.00  0.00     0.114 C 
HETATM    3  S1  UNL     1      27.956  37.659  37.575  1.00  0.00    -0.059 SA
HETATM    4  C4  UNL     1      29.055  36.384  39.545  1.00  0.00     0.061 A 
HETATM    5  C5  UNL     1      29.859  35.592  40.337  1.00  0.00     0.087 A 
HETATM    6  N2  UNL     1      29.158  35.281  41.426  1.00  0.00    -0.329 N 
ATOM      7  H2  UNL     1      29.504  34.701  42.190  1.00  0.00     0.168 HD
HETATM    8  C6  UNL     1      27.938  35.829  41.384  1.00  0.00     0.164 A 
HETATM    9  C7  UNL     1      27.831  36.534  40.215  1.00  0.00     0.101 A 
HETATM   10 CL1  UNL     1      26.455  37.457  39.636  1.00  0.00    -0.079 Cl
HETATM   11  S2  UNL     1      31.531  35.116  39.940  1.00  0.00    -0.109 SA
HETATM   12  C8  UNL     1      32.310  36.587  39.208  1.00  0.00     0.105 C 
HETATM   13  C9  UNL     1      31.866  36.810  37.794  1.00  0.00     0.091 C 
HETATM   14  C10 UNL     1      32.501  35.720  36.970  1.00  0.00     0.033 C 
ENDROOT
BRANCH   1  15
HETATM   15  C2  UNL     1      30.252  37.618  36.207  1.00  0.00     0.120 C 
HETATM   16  C1  UNL     1      31.077  38.795  35.802  1.00  0.00     0.026 C 
ENDBRANCH   1  15
BRANCH   8  17
HETATM   17  O1  UNL     1      26.947  35.724  42.328  1.00  0.00    -0.345 OA
ATOM     18  H1  UNL     1      26.038  35.985  42.240  1.00  0.00     0.219 HD
ENDBRANCH   8  17
TORSDOF 2
ENDMDL
MODEL 3
REMARK VINA RESULT: -6.753431410      1.212      1.297
REMARK  2 active torsions:
REMARK  status: ('A' for Active; 'I' for Inactive)
REMARK    1  A    between atoms: C2_2  and  N1_3 
REMARK    2  A    between atoms: C6_10  and  O1_11 
ROOT
HETATM    1  N1  UNL     1      28.921  36.171  39.773  1.00  0.00    -0.366 N 
HETATM    2  C3  UNL     1      30.213  35.825  39.254  1.00  0.00     0.114 C 
HETATM    3  S1  UNL     1      31.131  34.802  40.163  1.00  0.00    -0.059 SA
HETATM    4  C4  UNL     1      30.838  36.250  38.034  1.00  0.00     0.061 A 
HETATM    5  C5  UNL     1      30.337  36.947  36.955  1.00  0.00     0.087 A 
HETATM    6  N2  UNL     1      31.328  37.076  36.074  1.00  0.00    -0.329 N 
ATOM      7  H2  UNL     1      31.244  37.551  35.175  1.00  0.00     0.168 HD
HETATM    8  C6  UNL     1      32.448  36.500  36.523  1.00  0.00     0.164 A 
HETATM    9  C7  UNL     1      32.183  35.966  37.757  1.00  0.00     0.101 A 
HETATM   10 CL1  UNL     1      33.284  35.098  38.814  1.00  0.00    -0.079 Cl
HETATM   11  S2  UNL     1      28.667  37.557  36.820  1.00  0.00    -0.109 SA
HETATM   12  C8  UNL     1      28.231  38.191  38.467  1.00  0.00     0.105 C 
HETATM   13  C9  UNL     1      27.920  37.084  39.428  1.00  0.00     0.091 C 
HETATM   14  C10 UNL     1      26.600  36.501  38.996  1.00  0.00     0.033 C 
ENDROOT
BRANCH   1  15
HETATM   15  C2  UNL     1      28.637  35.362  40.944  1.00  0.00     0.120 C 
HETATM   16  C1  UNL     1      28.386  36.118  42.208  1.00  0.00     0.026 C 
ENDBRANCH   1  15
BRANCH   8  17
HETATM   17  O1  UNL     1      33.663  36.436  35.888  1.00  0.00    -0.345 OA
ATOM     18  H1  UNL     1      34.450  35.999  36.192  1.00  0.00     0.219 HD
ENDBRANCH   8  17
TORSDOF 2
ENDMDL
MODEL 4
REMARK VINA RESULT: -6.748550876      3.659      5.312
REMARK  2 active torsions:
REMARK  status: ('A' for Active; 'I' for Inactive)
REMARK    1  A    between atoms: C2_2  and  N1_3 
REMARK    2  A    between atoms: C6_10  and  O1_11 
ROOT
HETATM    1  N1  UNL     1      30.412  36.620  38.162  1.00  0.00    -0.366 N 
HETATM    2  C3  UNL     1      29.494  36.392  39.241  1.00  0.00     0.114 C 
HETATM    3  S1  UNL     1      30.056  35.528  40.527  1.00  0.00    -0.059 SA
HETATM    4  C4  UNL     1      28.128  36.812  39.367  1.00  0.00     0.061 A 
HETATM    5  C5  UNL     1      27.371  37.676  38.603  1.00  0.00     0.087 A 
HETATM    6  N2  UNL     1      26.159  37.732  39.153  1.00  0.00    -0.329 N 
ATOM      7  H2  UNL     1      25.388  38.297  38.796  1.00  0.00     0.168 HD
HETATM    8  C6  UNL     1      26.086  36.949  40.235  1.00  0.00     0.164 A 
HETATM    9  C7  UNL     1      27.306  36.351  40.406  1.00  0.00     0.101 A 
HETATM   10 CL1  UNL     1      27.785  35.221  41.663  1.00  0.00    -0.079 Cl
HETATM   11  S2  UNL     1      27.951  38.522  37.144  1.00  0.00    -0.109 SA
HETATM   12  C8  UNL     1      28.971  37.320  36.240  1.00  0.00     0.105 C 
HETATM   13  C9  UNL     1      30.319  37.143  36.869  1.00  0.00     0.091 C 
HETATM   14  C10 UNL     1      31.085  38.414  36.603  1.00  0.00     0.033 C 
ENDROOT
BRANCH   1  15
HETATM   15  C2  UNL     1      31.736  36.171  38.550  1.00  0.00     0.120 C 
HETATM   16  C1  UNL     1      32.372  35.172  37.641  1.00  0.00     0.026 C 
ENDBRANCH   1  15
BRANCH   8  17
HETATM   17  O1  UNL     1      24.999  36.758  41.051  1.00  0.00    -0.345 OA
ATOM     18  H1  UNL     1      24.357  37.406  41.314  1.00  0.00     0.219 HD
ENDBRANCH   8  17
TORSDOF 2
ENDMDL
MODEL 5
REMARK VINA RESULT: -6.539393209      2.074      3.417
REMARK  2 active torsions:
REMARK  status: ('A' for Active; 'I' for Inactive)
REMARK    1  A    between atoms: C2_2  and  N1_3 
REMARK    2  A    between atoms: C6_10  and  O1_11 
ROOT
HETATM    1  N1  UNL     1      28.184  36.705  39.288  1.00  0.00    -0.366 N 
HETATM    2  C3  UNL     1      29.069  37.160  38.255  1.00  0.00     0.114 C 
HETATM    3  S1  UNL     1      28.526  38.383  37.293  1.00  0.00    -0.059 SA
HETATM    4  C4  UNL     1      30.386  36.695  37.927  1.00  0.00     0.061 A 
HETATM    5  C5  UNL     1      31.233  35.830  38.588  1.00  0.00     0.087 A 
HETATM    6  N2  UNL     1      32.349  35.739  37.865  1.00  0.00    -0.329 N 
ATOM      7  H2  UNL     1      33.154  35.166  38.116  1.00  0.00     0.168 HD
HETATM    8  C6  UNL     1      32.273  36.500  36.768  1.00  0.00     0.164 A 
HETATM    9  C7  UNL     1      31.052  37.120  36.767  1.00  0.00     0.101 A 
HETATM   10 CL1  UNL     1      30.408  38.231  35.568  1.00  0.00    -0.079 Cl
HETATM   11  S2  UNL     1      30.849  34.997  40.117  1.00  0.00    -0.109 SA
HETATM   12  C8  UNL     1      29.109  34.488  39.987  1.00  0.00     0.105 C 
HETATM   13  C9  UNL     1      28.172  35.639  40.192  1.00  0.00     0.091 C 
HETATM   14  C10 UNL     1      28.249  35.997  41.654  1.00  0.00     0.033 C 
ENDROOT
BRANCH   1  15
HETATM   15  C2  UNL     1      27.035  37.589  39.365  1.00  0.00     0.120 C 
HETATM   16  C1  UNL     1      25.754  36.948  39.787  1.00  0.00     0.026 C 
ENDBRANCH   1  15
BRANCH   8  17
HETATM   17  O1  UNL     1      33.230  36.654  35.796  1.00  0.00    -0.345 OA
ATOM     18  H1  UNL     1      33.118  36.555  34.857  1.00  0.00     0.219 HD
ENDBRANCH   8  17
TORSDOF 2
ENDMDL
