MODEL 1
REMARK VINA RESULT: -9.327417769      0.000      0.000
REMARK  10 active torsions:
REMARK  status: ('A' for Active; 'I' for Inactive)
REMARK    1  A    between atoms: C2_2  and  C3_3 
REMARK    2  A    between atoms: C5_5  and  N1_6 
REMARK    3  A    between atoms: C5_5  and  C31_41 
REMARK       I    between atoms: N1_6  and  C6_8 
REMARK    4  A    between atoms: C6_8  and  C7_10 
REMARK       I    between atoms: N3_21  and  C17_22 
REMARK    5  A    between atoms: C17_22  and  C18_24 
REMARK    6  A    between atoms: C18_24  and  C19_25 
REMARK    7  A    between atoms: C18_24  and  N4_28 
REMARK    8  A    between atoms: C19_25  and  C20_26 
REMARK       I    between atoms: N4_28  and  C22_30 
REMARK    9  A    between atoms: C22_30  and  O4_32 
REMARK   10  A    between atoms: O4_32  and  C23_33 
ROOT
HETATM    1  C7  UNL     1       4.721   0.387  11.661  1.00  0.00     0.183 C 
HETATM    2  C8  UNL     1       3.404   0.914  11.183  1.00  0.00     0.026 C 
HETATM    3  C9  UNL     1       3.232   2.398  11.300  1.00  0.00     0.038 C 
HETATM    4  C10 UNL     1       1.844   2.894  11.265  1.00  0.00     0.273 C 
HETATM    5  N2  UNL     1       0.803   1.949  11.090  1.00  0.00     0.089 N 
HETATM    6  C11 UNL     1      -0.456   2.594  11.391  1.00  0.00     0.310 C 
HETATM    7  C12 UNL     1       0.941   0.672  11.665  1.00  0.00     0.227 C 
HETATM    8  C13 UNL     1       0.187   0.454  12.948  1.00  0.00     0.036 C 
HETATM    9  C14 UNL     1       1.215   0.042  14.004  1.00  0.00     0.009 C 
HETATM   10  C15 UNL     1       2.460   0.662  13.418  1.00  0.00     0.010 C 
HETATM   11  C16 UNL     1       3.749   0.142  13.990  1.00  0.00     0.132 C 
HETATM   12  N3  UNL     1       4.630  -0.277  12.944  1.00  0.00    -0.336 N 
HETATM   13  C17 UNL     1       5.485  -1.387  13.169  1.00  0.00     0.243 C 
HETATM   14  O2  UNL     1       6.343  -1.721  12.268  1.00  0.00    -0.271 OA
HETATM   15  C30 UNL     1       2.341   0.241  11.987  1.00  0.00     0.031 C 
ENDROOT
BRANCH   1  16
HETATM   16  C6  UNL     1       5.842   1.347  11.587  1.00  0.00     0.242 C 
HETATM   17  N1  UNL     1       6.199   2.024  10.396  1.00  0.00    -0.340 N 
ATOM     18  H1  UNL     1       5.628   1.810   9.579  1.00  0.00     0.163 HD
HETATM   19  O1  UNL     1       6.520   1.583  12.615  1.00  0.00    -0.271 OA
BRANCH  17  20
HETATM   20  C5  UNL     1       7.246   2.962  10.187  1.00  0.00     0.129 A 
HETATM   21  C3  UNL     1       7.847   3.140   8.831  1.00  0.00     0.049 A 
HETATM   22  C4  UNL     1       8.688   2.589   9.965  1.00  0.00     0.054 A 
BRANCH  21  23
HETATM   23  C2  UNL     1       8.252   4.493   8.375  1.00  0.00    -0.029 C 
HETATM   24  C1  UNL     1       7.706   5.027   7.288  1.00  0.00     0.007 C 
ENDBRANCH  21  23
BRANCH  20  25
HETATM   25  C31 UNL     1       7.085   4.270  10.907  1.00  0.00     0.203 C 
HETATM   26  O5  UNL     1       8.048   4.821  11.470  1.00  0.00    -0.646 OA
HETATM   27  O6  UNL     1       5.846   4.871  10.946  1.00  0.00    -0.646 OA
ENDBRANCH  20  25
ENDBRANCH  17  20
ENDBRANCH   1  16
BRANCH  13  28
HETATM   28  C18 UNL     1       5.495  -2.240  14.384  1.00  0.00     0.179 C 
BRANCH  28  29
HETATM   29  C19 UNL     1       4.595  -3.422  14.101  1.00  0.00     0.034 C 
BRANCH  29  30
HETATM   30  C20 UNL     1       3.284  -3.331  14.824  1.00  0.00    -0.002 C 
HETATM   31  C21 UNL     1       3.446  -2.817  16.233  1.00  0.00     0.005 C 
ENDBRANCH  29  30
ENDBRANCH  28  29
BRANCH  28  32
HETATM   32  N4  UNL     1       6.867  -2.795  14.528  1.00  0.00    -0.324 N 
HETATM   33  C22 UNL     1       7.521  -2.875  15.763  1.00  0.00     0.361 C 
HETATM   34  O3  UNL     1       6.946  -2.464  16.818  1.00  0.00    -0.238 OA
ATOM     35  H4  UNL     1       7.349  -3.131  13.694  1.00  0.00     0.165 HD
BRANCH  33  36
HETATM   36  O4  UNL     1       8.793  -3.395  15.867  1.00  0.00    -0.298 OA
BRANCH  36  37
HETATM   37  C23 UNL     1       9.064  -4.747  15.624  1.00  0.00     0.138 C 
HETATM   38  C24 UNL     1       7.860  -5.621  16.023  1.00  0.00     0.037 C 
HETATM   39  C25 UNL     1       8.382  -6.584  17.067  1.00  0.00    -0.012 C 
HETATM   40  C26 UNL     1       8.675  -5.821  18.315  1.00  0.00     0.005 C 
HETATM   41  C29 UNL     1       9.800  -6.785  16.508  1.00  0.00     0.012 C 
HETATM   42  C27 UNL     1       9.865  -4.947  17.913  1.00  0.00     0.007 C 
HETATM   43  C28 UNL     1      10.157  -5.296  16.470  1.00  0.00     0.016 C 
ENDBRANCH  36  37
ENDBRANCH  33  36
ENDBRANCH  28  32
ENDBRANCH  13  28
TORSDOF 10
ENDMDL
MODEL 2
REMARK VINA RESULT: -9.218476779      1.451      1.982
REMARK  10 active torsions:
REMARK  status: ('A' for Active; 'I' for Inactive)
REMARK    1  A    between atoms: C2_2  and  C3_3 
REMARK    2  A    between atoms: C5_5  and  N1_6 
REMARK    3  A    between atoms: C5_5  and  C31_41 
REMARK       I    between atoms: N1_6  and  C6_8 
REMARK    4  A    between atoms: C6_8  and  C7_10 
REMARK       I    between atoms: N3_21  and  C17_22 
REMARK    5  A    between atoms: C17_22  and  C18_24 
REMARK    6  A    between atoms: C18_24  and  C19_25 
REMARK    7  A    between atoms: C18_24  and  N4_28 
REMARK    8  A    between atoms: C19_25  and  C20_26 
REMARK       I    between atoms: N4_28  and  C22_30 
REMARK    9  A    between atoms: C22_30  and  O4_32 
REMARK   10  A    between atoms: O4_32  and  C23_33 
ROOT
HETATM    1  C7  UNL     1       4.090  -0.679  12.071  1.00  0.00     0.183 C 
HETATM    2  C8  UNL     1       3.096   0.215  11.397  1.00  0.00     0.026 C 
HETATM    3  C9  UNL     1       3.388   1.682  11.498  1.00  0.00     0.038 C 
HETATM    4  C10 UNL     1       2.251   2.588  11.251  1.00  0.00     0.273 C 
HETATM    5  N2  UNL     1       1.003   2.012  10.909  1.00  0.00     0.089 N 
HETATM    6  C11 UNL     1      -0.016   3.032  11.015  1.00  0.00     0.310 C 
HETATM    7  C12 UNL     1       0.641   0.781  11.488  1.00  0.00     0.227 C 
HETATM    8  C13 UNL     1      -0.328   0.865  12.636  1.00  0.00     0.036 C 
HETATM    9  C14 UNL     1       0.345   0.195  13.836  1.00  0.00     0.009 C 
HETATM   10  C15 UNL     1       1.796   0.366  13.456  1.00  0.00     0.010 C 
HETATM   11  C16 UNL     1       2.751  -0.508  14.218  1.00  0.00     0.132 C 
HETATM   12  N3  UNL     1       3.601  -1.226  13.319  1.00  0.00    -0.336 N 
HETATM   13  C17 UNL     1       4.015  -2.538  13.665  1.00  0.00     0.243 C 
HETATM   14  O2  UNL     1       4.848  -3.163  12.906  1.00  0.00    -0.271 OA
HETATM   15  C30 UNL     1       1.766  -0.055  12.020  1.00  0.00     0.031 C 
ENDROOT
BRANCH   1  16
HETATM   16  C6  UNL     1       5.455  -0.125  12.180  1.00  0.00     0.242 C 
HETATM   17  N1  UNL     1       5.996   0.784  11.239  1.00  0.00    -0.340 N 
ATOM     18  H1  UNL     1       5.378   1.041  10.469  1.00  0.00     0.163 HD
HETATM   19  O1  UNL     1       6.183  -0.465  13.143  1.00  0.00    -0.271 OA
BRANCH  17  20
HETATM   20  C5  UNL     1       7.283   1.387  11.223  1.00  0.00     0.129 A 
HETATM   21  C3  UNL     1       7.931   1.761   9.931  1.00  0.00     0.049 A 
HETATM   22  C4  UNL     1       8.544   0.683  10.801  1.00  0.00     0.054 A 
BRANCH  21  23
HETATM   23  C2  UNL     1       8.737   3.004   9.841  1.00  0.00    -0.029 C 
HETATM   24  C1  UNL     1       8.433   3.939   8.949  1.00  0.00     0.007 C 
ENDBRANCH  21  23
BRANCH  20  25
HETATM   25  C31 UNL     1       7.518   2.418  12.289  1.00  0.00     0.203 C 
HETATM   26  O5  UNL     1       8.291   2.200  13.240  1.00  0.00    -0.646 OA
HETATM   27  O6  UNL     1       6.864   3.629  12.215  1.00  0.00    -0.646 OA
ENDBRANCH  20  25
ENDBRANCH  17  20
ENDBRANCH   1  16
BRANCH  13  28
HETATM   28  C18 UNL     1       3.570  -3.299  14.859  1.00  0.00     0.179 C 
BRANCH  28  29
HETATM   29  C19 UNL     1       2.810  -4.506  14.356  1.00  0.00     0.034 C 
BRANCH  29  30
HETATM   30  C20 UNL     1       2.363  -5.407  15.469  1.00  0.00    -0.002 C 
HETATM   31  C21 UNL     1       3.148  -6.695  15.509  1.00  0.00     0.005 C 
ENDBRANCH  29  30
ENDBRANCH  28  29
BRANCH  28  32
HETATM   32  N4  UNL     1       4.788  -3.832  15.527  1.00  0.00    -0.324 N 
HETATM   33  C22 UNL     1       5.613  -3.039  16.333  1.00  0.00     0.361 C 
HETATM   34  O3  UNL     1       5.337  -1.812  16.519  1.00  0.00    -0.238 OA
ATOM     35  H4  UNL     1       5.031  -4.813  15.392  1.00  0.00     0.165 HD
BRANCH  33  36
HETATM   36  O4  UNL     1       6.735  -3.559  16.941  1.00  0.00    -0.298 OA
BRANCH  36  37
HETATM   37  C23 UNL     1       7.429  -4.651  16.406  1.00  0.00     0.138 C 
HETATM   38  C24 UNL     1       8.570  -5.081  17.347  1.00  0.00     0.037 C 
HETATM   39  C25 UNL     1       9.839  -4.965  16.530  1.00  0.00    -0.012 C 
HETATM   40  C26 UNL     1      10.123  -3.521  16.294  1.00  0.00     0.005 C 
HETATM   41  C29 UNL     1       9.272  -5.380  15.163  1.00  0.00     0.012 C 
HETATM   42  C27 UNL     1       8.982  -3.093  15.366  1.00  0.00     0.007 C 
HETATM   43  C28 UNL     1       8.151  -4.337  15.145  1.00  0.00     0.016 C 
ENDBRANCH  36  37
ENDBRANCH  33  36
ENDBRANCH  28  32
ENDBRANCH  13  28
TORSDOF 10
ENDMDL
MODEL 3
REMARK VINA RESULT: -9.030491306      1.467      2.071
REMARK  10 active torsions:
REMARK  status: ('A' for Active; 'I' for Inactive)
REMARK    1  A    between atoms: C2_2  and  C3_3 
REMARK    2  A    between atoms: C5_5  and  N1_6 
REMARK    3  A    between atoms: C5_5  and  C31_41 
REMARK       I    between atoms: N1_6  and  C6_8 
REMARK    4  A    between atoms: C6_8  and  C7_10 
REMARK       I    between atoms: N3_21  and  C17_22 
REMARK    5  A    between atoms: C17_22  and  C18_24 
REMARK    6  A    between atoms: C18_24  and  C19_25 
REMARK    7  A    between atoms: C18_24  and  N4_28 
REMARK    8  A    between atoms: C19_25  and  C20_26 
REMARK       I    between atoms: N4_28  and  C22_30 
REMARK    9  A    between atoms: C22_30  and  O4_32 
REMARK   10  A    between atoms: O4_32  and  C23_33 
ROOT
HETATM    1  C7  UNL     1       4.075  -0.659  12.009  1.00  0.00     0.183 C 
HETATM    2  C8  UNL     1       3.088   0.266  11.367  1.00  0.00     0.026 C 
HETATM    3  C9  UNL     1       3.386   1.726  11.530  1.00  0.00     0.038 C 
HETATM    4  C10 UNL     1       2.254   2.646  11.313  1.00  0.00     0.273 C 
HETATM    5  N2  UNL     1       1.005   2.089  10.941  1.00  0.00     0.089 N 
HETATM    6  C11 UNL     1      -0.011   3.108  11.083  1.00  0.00     0.310 C 
HETATM    7  C12 UNL     1       0.635   0.838  11.467  1.00  0.00     0.227 C 
HETATM    8  C13 UNL     1      -0.341   0.879  12.611  1.00  0.00     0.036 C 
HETATM    9  C14 UNL     1       0.323   0.157  13.787  1.00  0.00     0.009 C 
HETATM   10  C15 UNL     1       1.777   0.338  13.423  1.00  0.00     0.010 C 
HETATM   11  C16 UNL     1       2.724  -0.570  14.154  1.00  0.00     0.132 C 
HETATM   12  N3  UNL     1       3.576  -1.255  13.231  1.00  0.00    -0.336 N 
HETATM   13  C17 UNL     1       3.983  -2.581  13.526  1.00  0.00     0.243 C 
HETATM   14  O2  UNL     1       4.818  -3.178  12.746  1.00  0.00    -0.271 OA
HETATM   15  C30 UNL     1       1.754  -0.024  11.971  1.00  0.00     0.031 C 
ENDROOT
BRANCH   1  16
HETATM   16  C6  UNL     1       5.441  -0.115  12.149  1.00  0.00     0.242 C 
HETATM   17  N1  UNL     1       6.001   0.807  11.232  1.00  0.00    -0.340 N 
ATOM     18  H1  UNL     1       5.397   1.082  10.458  1.00  0.00     0.163 HD
HETATM   19  O1  UNL     1       6.153  -0.478  13.116  1.00  0.00    -0.271 OA
BRANCH  17  20
HETATM   20  C5  UNL     1       7.292   1.402  11.246  1.00  0.00     0.129 A 
HETATM   21  C3  UNL     1       7.966   1.785   9.971  1.00  0.00     0.049 A 
HETATM   22  C4  UNL     1       8.557   0.695  10.840  1.00  0.00     0.054 A 
BRANCH  21  23
HETATM   23  C2  UNL     1       8.781   3.024   9.909  1.00  0.00    -0.029 C 
HETATM   24  C1  UNL     1       8.604   3.897   8.923  1.00  0.00     0.007 C 
ENDBRANCH  21  23
BRANCH  20  25
HETATM   25  C31 UNL     1       7.513   2.421  12.327  1.00  0.00     0.203 C 
HETATM   26  O5  UNL     1       6.951   3.532  12.293  1.00  0.00    -0.646 OA
HETATM   27  O6  UNL     1       8.353   2.122  13.377  1.00  0.00    -0.646 OA
ENDBRANCH  20  25
ENDBRANCH  17  20
ENDBRANCH   1  16
BRANCH  13  28
HETATM   28  C18 UNL     1       3.529  -3.389  14.685  1.00  0.00     0.179 C 
BRANCH  28  29
HETATM   29  C19 UNL     1       2.578  -4.436  14.149  1.00  0.00     0.034 C 
BRANCH  29  30
HETATM   30  C20 UNL     1       1.856  -5.168  15.241  1.00  0.00    -0.002 C 
HETATM   31  C21 UNL     1       2.620  -6.380  15.715  1.00  0.00     0.005 C 
ENDBRANCH  29  30
ENDBRANCH  28  29
BRANCH  28  32
HETATM   32  N4  UNL     1       4.709  -4.134  15.200  1.00  0.00    -0.324 N 
HETATM   33  C22 UNL     1       5.538  -3.628  16.209  1.00  0.00     0.361 C 
HETATM   34  O3  UNL     1       5.297  -2.492  16.723  1.00  0.00    -0.238 OA
ATOM     35  H4  UNL     1       4.923  -5.048  14.801  1.00  0.00     0.165 HD
BRANCH  33  36
HETATM   36  O4  UNL     1       6.625  -4.341  16.668  1.00  0.00    -0.298 OA
BRANCH  36  37
HETATM   37  C23 UNL     1       7.902  -3.773  16.750  1.00  0.00     0.138 C 
HETATM   38  C24 UNL     1       8.377  -3.304  15.362  1.00  0.00     0.037 C 
HETATM   39  C25 UNL     1       9.661  -4.059  15.093  1.00  0.00    -0.012 C 
HETATM   40  C26 UNL     1       9.331  -5.495  14.869  1.00  0.00     0.005 C 
HETATM   41  C29 UNL     1      10.208  -4.104  16.529  1.00  0.00     0.012 C 
HETATM   42  C27 UNL     1       8.850  -5.957  16.247  1.00  0.00     0.007 C 
HETATM   43  C28 UNL     1       8.959  -4.743  17.143  1.00  0.00     0.016 C 
ENDBRANCH  36  37
ENDBRANCH  33  36
ENDBRANCH  28  32
ENDBRANCH  13  28
TORSDOF 10
ENDMDL
MODEL 4
REMARK VINA RESULT: -8.765402757      3.475      9.367
REMARK  10 active torsions:
REMARK  status: ('A' for Active; 'I' for Inactive)
REMARK    1  A    between atoms: C2_2  and  C3_3 
REMARK    2  A    between atoms: C5_5  and  N1_6 
REMARK    3  A    between atoms: C5_5  and  C31_41 
REMARK       I    between atoms: N1_6  and  C6_8 
REMARK    4  A    between atoms: C6_8  and  C7_10 
REMARK       I    between atoms: N3_21  and  C17_22 
REMARK    5  A    between atoms: C17_22  and  C18_24 
REMARK    6  A    between atoms: C18_24  and  C19_25 
REMARK    7  A    between atoms: C18_24  and  N4_28 
REMARK    8  A    between atoms: C19_25  and  C20_26 
REMARK       I    between atoms: N4_28  and  C22_30 
REMARK    9  A    between atoms: C22_30  and  O4_32 
REMARK   10  A    between atoms: O4_32  and  C23_33 
ROOT
HETATM    1  C7  UNL     1       4.764   2.121  12.225  1.00  0.00     0.183 C 
HETATM    2  C8  UNL     1       5.279   1.097  13.188  1.00  0.00     0.026 C 
HETATM    3  C9  UNL     1       6.444   0.292  12.698  1.00  0.00     0.038 C 
HETATM    4  C10 UNL     1       6.692  -0.981  13.400  1.00  0.00     0.273 C 
HETATM    5  N2  UNL     1       5.846  -1.319  14.485  1.00  0.00     0.089 N 
HETATM    6  C11 UNL     1       6.062  -2.711  14.816  1.00  0.00     0.310 C 
HETATM    7  C12 UNL     1       4.489  -0.950  14.430  1.00  0.00     0.227 C 
HETATM    8  C13 UNL     1       3.533  -2.047  14.050  1.00  0.00     0.036 C 
HETATM    9  C14 UNL     1       2.774  -1.567  12.811  1.00  0.00     0.009 C 
HETATM   10  C15 UNL     1       3.771  -0.578  12.256  1.00  0.00     0.010 C 
HETATM   11  C16 UNL     1       3.209   0.376  11.240  1.00  0.00     0.132 C 
HETATM   12  N3  UNL     1       3.522   1.726  11.593  1.00  0.00    -0.336 N 
HETATM   13  C17 UNL     1       2.586   2.749  11.293  1.00  0.00     0.243 C 
HETATM   14  O2  UNL     1       2.892   3.979  11.528  1.00  0.00    -0.271 OA
HETATM   15  C30 UNL     1       4.148   0.172  13.495  1.00  0.00     0.031 C 
ENDROOT
BRANCH   1  16
HETATM   16  C6  UNL     1       5.762   2.632  11.263  1.00  0.00     0.242 C 
HETATM   17  N1  UNL     1       5.724   2.333   9.880  1.00  0.00    -0.340 N 
ATOM     18  H1  UNL     1       4.953   1.737   9.579  1.00  0.00     0.163 HD
HETATM   19  O1  UNL     1       6.695   3.363  11.673  1.00  0.00    -0.271 OA
BRANCH  17  20
HETATM   20  C5  UNL     1       6.615   2.753   8.854  1.00  0.00     0.129 A 
HETATM   21  C3  UNL     1       7.136   1.775   7.854  1.00  0.00     0.049 A 
HETATM   22  C4  UNL     1       8.087   2.439   8.828  1.00  0.00     0.054 A 
BRANCH  21  23
HETATM   23  C2  UNL     1       7.322   2.191   6.441  1.00  0.00    -0.029 C 
HETATM   24  C1  UNL     1       6.721   1.527   5.460  1.00  0.00     0.007 C 
ENDBRANCH  21  23
BRANCH  20  25
HETATM   25  C31 UNL     1       6.288   4.078   8.229  1.00  0.00     0.203 C 
HETATM   26  O5  UNL     1       5.175   4.292   7.713  1.00  0.00    -0.646 OA
HETATM   27  O6  UNL     1       7.237   5.076   8.225  1.00  0.00    -0.646 OA
ENDBRANCH  20  25
ENDBRANCH  17  20
ENDBRANCH   1  16
BRANCH  13  28
HETATM   28  C18 UNL     1       1.235   2.544  10.715  1.00  0.00     0.179 C 
BRANCH  28  29
HETATM   29  C19 UNL     1       0.258   2.523  11.869  1.00  0.00     0.034 C 
BRANCH  29  30
HETATM   30  C20 UNL     1      -0.253   1.145  12.164  1.00  0.00    -0.002 C 
HETATM   31  C21 UNL     1       0.213   0.640  13.508  1.00  0.00     0.005 C 
ENDBRANCH  29  30
ENDBRANCH  28  29
BRANCH  28  32
HETATM   32  N4  UNL     1       0.902   3.755   9.919  1.00  0.00    -0.324 N 
HETATM   33  C22 UNL     1       1.208   3.870   8.557  1.00  0.00     0.361 C 
HETATM   34  O3  UNL     1       1.795   2.919   7.952  1.00  0.00    -0.238 OA
ATOM     35  H4  UNL     1       0.432   4.532  10.383  1.00  0.00     0.165 HD
BRANCH  33  36
HETATM   36  O4  UNL     1       0.887   5.004   7.844  1.00  0.00    -0.298 OA
BRANCH  36  37
HETATM   37  C23 UNL     1       1.311   5.195   6.523  1.00  0.00     0.138 C 
HETATM   38  C24 UNL     1       1.654   6.675   6.272  1.00  0.00     0.037 C 
HETATM   39  C25 UNL     1       0.747   7.119   5.145  1.00  0.00    -0.012 C 
HETATM   40  C26 UNL     1      -0.653   7.178   5.654  1.00  0.00     0.005 C 
HETATM   41  C29 UNL     1       0.713   5.806   4.345  1.00  0.00     0.012 C 
HETATM   42  C27 UNL     1      -0.988   5.706   5.911  1.00  0.00     0.007 C 
HETATM   43  C28 UNL     1       0.250   4.933   5.514  1.00  0.00     0.016 C 
ENDBRANCH  36  37
ENDBRANCH  33  36
ENDBRANCH  28  32
ENDBRANCH  13  28
TORSDOF 10
ENDMDL
MODEL 5
REMARK VINA RESULT: -8.676164500      2.943     10.649
REMARK  10 active torsions:
REMARK  status: ('A' for Active; 'I' for Inactive)
REMARK    1  A    between atoms: C2_2  and  C3_3 
REMARK    2  A    between atoms: C5_5  and  N1_6 
REMARK    3  A    between atoms: C5_5  and  C31_41 
REMARK       I    between atoms: N1_6  and  C6_8 
REMARK    4  A    between atoms: C6_8  and  C7_10 
REMARK       I    between atoms: N3_21  and  C17_22 
REMARK    5  A    between atoms: C17_22  and  C18_24 
REMARK    6  A    between atoms: C18_24  and  C19_25 
REMARK    7  A    between atoms: C18_24  and  N4_28 
REMARK    8  A    between atoms: C19_25  and  C20_26 
REMARK       I    between atoms: N4_28  and  C22_30 
REMARK    9  A    between atoms: C22_30  and  O4_32 
REMARK   10  A    between atoms: O4_32  and  C23_33 
ROOT
HETATM    1  C7  UNL     1       6.269  -4.546  14.970  1.00  0.00     0.183 C 
HETATM    2  C8  UNL     1       7.515  -5.259  15.396  1.00  0.00     0.026 C 
HETATM    3  C9  UNL     1       7.536  -5.700  16.829  1.00  0.00     0.038 C 
HETATM    4  C10 UNL     1       8.865  -5.994  17.396  1.00  0.00     0.273 C 
HETATM    5  N2  UNL     1       9.993  -5.873  16.547  1.00  0.00     0.089 N 
HETATM    6  C11 UNL     1      11.186  -5.901  17.365  1.00  0.00     0.310 C 
HETATM    7  C12 UNL     1       9.999  -4.866  15.564  1.00  0.00     0.227 C 
HETATM    8  C13 UNL     1      10.800  -3.637  15.900  1.00  0.00     0.036 C 
HETATM    9  C14 UNL     1       9.843  -2.446  15.817  1.00  0.00     0.009 C 
HETATM   10  C15 UNL     1       8.528  -3.144  16.067  1.00  0.00     0.010 C 
HETATM   11  C16 UNL     1       7.313  -2.348  15.684  1.00  0.00     0.132 C 
HETATM   12  N3  UNL     1       6.456  -3.117  14.835  1.00  0.00    -0.336 N 
HETATM   13  C17 UNL     1       5.725  -2.455  13.816  1.00  0.00     0.243 C 
HETATM   14  O2  UNL     1       4.885  -3.121  13.100  1.00  0.00    -0.271 OA
HETATM   15  C30 UNL     1       8.658  -4.328  15.161  1.00  0.00     0.031 C 
ENDROOT
BRANCH   1  16
HETATM   16  C6  UNL     1       5.055  -4.899  15.734  1.00  0.00     0.242 C 
HETATM   17  N1  UNL     1       4.818  -6.197  16.249  1.00  0.00    -0.340 N 
ATOM     18  H1  UNL     1       5.547  -6.885  16.062  1.00  0.00     0.163 HD
HETATM   19  O1  UNL     1       4.182  -4.023  15.943  1.00  0.00    -0.271 OA
BRANCH  17  20
HETATM   20  C5  UNL     1       3.702  -6.668  16.992  1.00  0.00     0.129 A 
HETATM   21  C3  UNL     1       3.098  -8.001  16.693  1.00  0.00     0.049 A 
HETATM   22  C4  UNL     1       2.296  -6.738  16.459  1.00  0.00     0.054 A 
BRANCH  21  23
HETATM   23  C2  UNL     1       2.592  -8.848  17.802  1.00  0.00    -0.029 C 
HETATM   24  C1  UNL     1       3.065 -10.076  17.980  1.00  0.00     0.007 C 
ENDBRANCH  21  23
BRANCH  20  25
HETATM   25  C31 UNL     1       3.755  -6.392  18.467  1.00  0.00     0.203 C 
HETATM   26  O5  UNL     1       4.816  -6.510  19.109  1.00  0.00    -0.646 OA
HETATM   27  O6  UNL     1       2.609  -6.002  19.124  1.00  0.00    -0.646 OA
ENDBRANCH  20  25
ENDBRANCH  17  20
ENDBRANCH   1  16
BRANCH  13  28
HETATM   28  C18 UNL     1       5.829  -1.015  13.472  1.00  0.00     0.179 C 
BRANCH  28  29
HETATM   29  C19 UNL     1       6.888  -0.892  12.399  1.00  0.00     0.034 C 
BRANCH  29  30
HETATM   30  C20 UNL     1       7.574   0.441  12.420  1.00  0.00    -0.002 C 
HETATM   31  C21 UNL     1       7.564   1.065  13.794  1.00  0.00     0.005 C 
ENDBRANCH  29  30
ENDBRANCH  28  29
BRANCH  28  32
HETATM   32  N4  UNL     1       4.548  -0.616  12.830  1.00  0.00    -0.324 N 
HETATM   33  C22 UNL     1       3.648   0.272  13.431  1.00  0.00     0.361 C 
HETATM   34  O3  UNL     1       3.908   0.772  14.570  1.00  0.00    -0.238 OA
ATOM     35  H4  UNL     1       4.317  -1.004  11.915  1.00  0.00     0.165 HD
BRANCH  33  36
HETATM   36  O4  UNL     1       2.468   0.625  12.813  1.00  0.00    -0.298 OA
BRANCH  36  37
HETATM   37  C23 UNL     1       2.435   1.112  11.500  1.00  0.00     0.138 C 
HETATM   38  C24 UNL     1       2.542   2.648  11.489  1.00  0.00     0.037 C 
HETATM   39  C25 UNL     1       1.290   3.140  10.797  1.00  0.00    -0.012 C 
HETATM   40  C26 UNL     1       0.122   2.889  11.689  1.00  0.00     0.005 C 
HETATM   41  C29 UNL     1       1.128   2.002   9.776  1.00  0.00     0.012 C 
HETATM   42  C27 UNL     1       0.024   1.361  11.706  1.00  0.00     0.007 C 
HETATM   43  C28 UNL     1       1.140   0.873  10.810  1.00  0.00     0.016 C 
ENDBRANCH  36  37
ENDBRANCH  33  36
ENDBRANCH  28  32
ENDBRANCH  13  28
TORSDOF 10
ENDMDL
