MODEL 1
REMARK VINA RESULT: -8.835349246      0.000      0.000
REMARK  10 active torsions:
REMARK  status: ('A' for Active; 'I' for Inactive)
REMARK    1  A    between atoms: N1_5  and  C5_6 
REMARK    2  A    between atoms: C5_6  and  C6_7 
REMARK    3  A    between atoms: C6_7  and  N2_8 
REMARK    4  A    between atoms: C6_7  and  C16_22 
REMARK       I    between atoms: N2_8  and  C7_10 
REMARK    5  A    between atoms: C7_10  and  C8_12 
REMARK    6  A    between atoms: C8_12  and  C9_13 
REMARK    7  A    between atoms: C8_12  and  C10_16 
REMARK    8  A    between atoms: C9_13  and  O2_14 
REMARK       I    between atoms: C16_22  and  N3_24 
REMARK       I    between atoms: N4_27  and  C19_28 
REMARK    9  A    between atoms: C22_35  and  C23_36 
REMARK   10  A    between atoms: C23_36  and  C24_37 
ROOT
HETATM    1  C16 UNL     1       6.627  -1.624  14.049  1.00  0.00     0.248 C 
HETATM    2  O3  UNL     1       7.286  -2.507  13.382  1.00  0.00    -0.271 OA
HETATM    3  N3  UNL     1       6.405  -1.783  15.431  1.00  0.00    -0.342 N 
HETATM    4  C17 UNL     1       5.568  -0.755  16.093  1.00  0.00     0.146 C 
HETATM    5  C18 UNL     1       4.718  -1.459  17.165  1.00  0.00     0.145 C 
HETATM    6  N4  UNL     1       4.463  -2.836  16.796  1.00  0.00    -0.351 N 
HETATM    7  C19 UNL     1       3.165  -3.354  16.664  1.00  0.00     0.199 C 
HETATM    8  N5  UNL     1       2.344  -3.449  17.848  1.00  0.00    -0.063 NA
HETATM    9  N6  UNL     1       2.642  -3.749  15.579  1.00  0.00    -0.267 N 
ATOM     10  H6  UNL     1       1.687  -4.099  15.649  1.00  0.00     0.180 HD
HETATM   11  C20 UNL     1       3.193  -3.765  14.323  1.00  0.00     0.184 C 
HETATM   12  N7  UNL     1       3.639  -3.791  13.260  1.00  0.00    -0.172 NA
HETATM   13  C21 UNL     1       5.620  -3.696  16.580  1.00  0.00     0.150 C 
HETATM   14  C22 UNL     1       6.839  -2.810  16.302  1.00  0.00     0.105 C 
ENDROOT
BRANCH  14  15
HETATM   15  C23 UNL     1       8.009  -3.629  15.992  1.00  0.00     0.031 C 
BRANCH  15  16
HETATM   16  C24 UNL     1       7.802  -5.079  16.367  1.00  0.00    -0.013 C 
HETATM   17  C25 UNL     1       8.317  -5.374  17.762  1.00  0.00     0.005 C 
HETATM   18  C26 UNL     1       9.748  -5.035  17.982  1.00  0.00     0.000 C 
HETATM   19  C27 UNL     1      10.599  -5.844  17.036  1.00  0.00     0.000 C 
HETATM   20  C28 UNL     1      10.113  -5.713  15.628  1.00  0.00     0.000 C 
HETATM   21  C29 UNL     1       8.660  -5.975  15.456  1.00  0.00     0.005 C 
ENDBRANCH  15  16
ENDBRANCH  14  15
BRANCH   1  22
HETATM   22  C6  UNL     1       6.167  -0.496  13.212  1.00  0.00     0.215 C 
BRANCH  22  23
HETATM   23  C5  UNL     1       6.950  -0.352  11.919  1.00  0.00     0.092 C 
BRANCH  23  24
HETATM   24  N1  UNL     1       7.951   0.628  11.925  1.00  0.00    -0.391 N 
HETATM   25  C4  UNL     1       8.677   0.880  10.738  1.00  0.00     0.122 C 
HETATM   26  C3  UNL     1       7.944   1.934   9.933  1.00  0.00     0.024 C 
HETATM   27  C2  UNL     1       7.580   3.134  10.770  1.00  0.00    -0.015 C 
HETATM   28  C1  UNL     1       6.615   3.980   9.966  1.00  0.00     0.010 C 
HETATM   29  C31 UNL     1       6.867   2.738  12.047  1.00  0.00     0.024 C 
HETATM   30  C30 UNL     1       7.783   1.765  12.764  1.00  0.00     0.122 C 
ENDBRANCH  23  24
ENDBRANCH  22  23
BRANCH  22  31
HETATM   31  N2  UNL     1       4.788  -0.663  12.772  1.00  0.00    -0.343 N 
HETATM   32  C7  UNL     1       3.779   0.274  12.910  1.00  0.00     0.225 C 
HETATM   33  O1  UNL     1       4.032   1.376  13.463  1.00  0.00    -0.273 OA
ATOM     34  H2  UNL     1       4.545  -1.547  12.324  1.00  0.00     0.163 HD
BRANCH  32  35
HETATM   35  C8  UNL     1       2.405  -0.016  12.406  1.00  0.00     0.105 C 
BRANCH  35  36
HETATM   36  C9  UNL     1       1.553  -0.300  13.623  1.00  0.00     0.178 C 
BRANCH  36  37
HETATM   37  O2  UNL     1       2.319  -0.481  14.746  1.00  0.00    -0.400 OA
ATOM     38  H2  UNL     1       2.054   0.102  15.448  1.00  0.00     0.209 HD
ENDBRANCH  36  37
ENDBRANCH  35  36
BRANCH  35  39
HETATM   39  C10 UNL     1       1.816   1.174  11.704  1.00  0.00     0.001 C 
HETATM   40  C11 UNL     1       1.519   0.883  10.239  1.00  0.00     0.005 C 
HETATM   41  C12 UNL     1       0.743   2.058   9.685  1.00  0.00     0.000 C 
HETATM   42  C13 UNL     1       0.768   3.243  10.631  1.00  0.00     0.000 C 
HETATM   43  C14 UNL     1       0.145   2.934  11.952  1.00  0.00     0.000 C 
HETATM   44  C15 UNL     1       0.479   1.496  12.317  1.00  0.00     0.005 C 
ENDBRANCH  35  39
ENDBRANCH  32  35
ENDBRANCH  22  31
ENDBRANCH   1  22
TORSDOF 10
ENDMDL
MODEL 2
REMARK VINA RESULT: -8.682458780      1.281      1.911
REMARK  10 active torsions:
REMARK  status: ('A' for Active; 'I' for Inactive)
REMARK    1  A    between atoms: N1_5  and  C5_6 
REMARK    2  A    between atoms: C5_6  and  C6_7 
REMARK    3  A    between atoms: C6_7  and  N2_8 
REMARK    4  A    between atoms: C6_7  and  C16_22 
REMARK       I    between atoms: N2_8  and  C7_10 
REMARK    5  A    between atoms: C7_10  and  C8_12 
REMARK    6  A    between atoms: C8_12  and  C9_13 
REMARK    7  A    between atoms: C8_12  and  C10_16 
REMARK    8  A    between atoms: C9_13  and  O2_14 
REMARK       I    between atoms: C16_22  and  N3_24 
REMARK       I    between atoms: N4_27  and  C19_28 
REMARK    9  A    between atoms: C22_35  and  C23_36 
REMARK   10  A    between atoms: C23_36  and  C24_37 
ROOT
HETATM    1  C16 UNL     1       6.562  -0.661  13.415  1.00  0.00     0.248 C 
HETATM    2  O3  UNL     1       7.127  -1.376  12.504  1.00  0.00    -0.271 OA
HETATM    3  N3  UNL     1       6.503  -1.110  14.749  1.00  0.00    -0.342 N 
HETATM    4  C17 UNL     1       5.763  -0.255  15.707  1.00  0.00     0.146 C 
HETATM    5  C18 UNL     1       5.038  -1.180  16.700  1.00  0.00     0.145 C 
HETATM    6  N4  UNL     1       4.725  -2.452  16.082  1.00  0.00    -0.351 N 
HETATM    7  C19 UNL     1       3.414  -2.948  15.999  1.00  0.00     0.199 C 
HETATM    8  N5  UNL     1       2.738  -3.301  17.227  1.00  0.00    -0.063 NA
HETATM    9  N6  UNL     1       2.761  -3.113  14.926  1.00  0.00    -0.267 N 
ATOM     10  H6  UNL     1       1.818  -3.484  15.034  1.00  0.00     0.180 HD
HETATM   11  C20 UNL     1       3.159  -2.859  13.639  1.00  0.00     0.184 C 
HETATM   12  N7  UNL     1       3.475  -2.654  12.549  1.00  0.00    -0.172 NA
HETATM   13  C21 UNL     1       5.838  -3.232  15.555  1.00  0.00     0.150 C 
HETATM   14  C22 UNL     1       7.025  -2.291  15.327  1.00  0.00     0.105 C 
ENDROOT
BRANCH  14  15
HETATM   15  C23 UNL     1       8.140  -3.011  14.715  1.00  0.00     0.031 C 
BRANCH  15  16
HETATM   16  C24 UNL     1       9.256  -3.275  15.701  1.00  0.00    -0.013 C 
HETATM   17  C25 UNL     1      10.339  -4.149  15.099  1.00  0.00     0.005 C 
HETATM   18  C26 UNL     1       9.863  -5.456  14.574  1.00  0.00     0.000 C 
HETATM   19  C27 UNL     1       9.254  -6.250  15.701  1.00  0.00     0.000 C 
HETATM   20  C28 UNL     1       8.236  -5.443  16.441  1.00  0.00     0.000 C 
HETATM   21  C29 UNL     1       8.718  -4.107  16.879  1.00  0.00     0.005 C 
ENDBRANCH  15  16
ENDBRANCH  14  15
BRANCH   1  22
HETATM   22  C6  UNL     1       6.019   0.611  12.894  1.00  0.00     0.215 C 
BRANCH  22  23
HETATM   23  C5  UNL     1       6.885   1.233  11.813  1.00  0.00     0.092 C 
BRANCH  23  24
HETATM   24  N1  UNL     1       6.293   2.277  11.091  1.00  0.00    -0.391 N 
HETATM   25  C4  UNL     1       6.452   3.606  11.546  1.00  0.00     0.122 C 
HETATM   26  C3  UNL     1       7.713   4.183  10.936  1.00  0.00     0.024 C 
HETATM   27  C2  UNL     1       7.771   3.967   9.444  1.00  0.00    -0.015 C 
HETATM   28  C1  UNL     1       9.173   4.309   8.984  1.00  0.00     0.010 C 
HETATM   29  C31 UNL     1       7.520   2.520   9.072  1.00  0.00     0.024 C 
HETATM   30  C30 UNL     1       6.181   2.148   9.678  1.00  0.00     0.122 C 
ENDBRANCH  23  24
ENDBRANCH  22  23
BRANCH  22  31
HETATM   31  N2  UNL     1       4.724   0.435  12.250  1.00  0.00    -0.343 N 
HETATM   32  C7  UNL     1       3.496   0.734  12.816  1.00  0.00     0.225 C 
HETATM   33  O1  UNL     1       3.451   1.193  13.986  1.00  0.00    -0.273 OA
ATOM     34  H2  UNL     1       4.721   0.059  11.302  1.00  0.00     0.163 HD
BRANCH  32  35
HETATM   35  C8  UNL     1       2.237   0.516  12.045  1.00  0.00     0.105 C 
BRANCH  35  36
HETATM   36  C9  UNL     1       1.101   0.630  13.037  1.00  0.00     0.178 C 
BRANCH  36  37
HETATM   37  O2  UNL     1       1.203  -0.309  14.033  1.00  0.00    -0.400 OA
ATOM     38  H2  UNL     1       2.046  -0.265  14.470  1.00  0.00     0.209 HD
ENDBRANCH  36  37
ENDBRANCH  35  36
BRANCH  35  39
HETATM   39  C10 UNL     1       2.041   1.581  11.004  1.00  0.00     0.001 C 
HETATM   40  C11 UNL     1       0.571   1.781  10.662  1.00  0.00     0.005 C 
HETATM   41  C12 UNL     1       0.467   3.003   9.775  1.00  0.00     0.000 C 
HETATM   42  C13 UNL     1       1.827   3.449   9.273  1.00  0.00     0.000 C 
HETATM   43  C14 UNL     1       2.750   3.831  10.383  1.00  0.00     0.000 C 
HETATM   44  C15 UNL     1       2.496   2.905  11.561  1.00  0.00     0.005 C 
ENDBRANCH  35  39
ENDBRANCH  32  35
ENDBRANCH  22  31
ENDBRANCH   1  22
TORSDOF 10
ENDMDL
MODEL 3
REMARK VINA RESULT: -8.223477959      1.956      9.216
REMARK  10 active torsions:
REMARK  status: ('A' for Active; 'I' for Inactive)
REMARK    1  A    between atoms: N1_5  and  C5_6 
REMARK    2  A    between atoms: C5_6  and  C6_7 
REMARK    3  A    between atoms: C6_7  and  N2_8 
REMARK    4  A    between atoms: C6_7  and  C16_22 
REMARK       I    between atoms: N2_8  and  C7_10 
REMARK    5  A    between atoms: C7_10  and  C8_12 
REMARK    6  A    between atoms: C8_12  and  C9_13 
REMARK    7  A    between atoms: C8_12  and  C10_16 
REMARK    8  A    between atoms: C9_13  and  O2_14 
REMARK       I    between atoms: C16_22  and  N3_24 
REMARK       I    between atoms: N4_27  and  C19_28 
REMARK    9  A    between atoms: C22_35  and  C23_36 
REMARK   10  A    between atoms: C23_36  and  C24_37 
ROOT
HETATM    1  C16 UNL     1       3.678  -2.029  14.364  1.00  0.00     0.248 C 
HETATM    2  O3  UNL     1       3.029  -2.389  13.311  1.00  0.00    -0.271 OA
HETATM    3  N3  UNL     1       3.874  -0.666  14.658  1.00  0.00    -0.342 N 
HETATM    4  C17 UNL     1       4.702  -0.353  15.847  1.00  0.00     0.146 C 
HETATM    5  C18 UNL     1       5.530   0.903  15.528  1.00  0.00     0.145 C 
HETATM    6  N4  UNL     1       5.789   0.999  14.106  1.00  0.00    -0.351 N 
HETATM    7  C19 UNL     1       7.088   1.064  13.578  1.00  0.00     0.199 C 
HETATM    8  N5  UNL     1       7.887   2.232  13.871  1.00  0.00    -0.063 NA
HETATM    9  N6  UNL     1       7.630   0.174  12.857  1.00  0.00    -0.267 N 
ATOM     10  H6  UNL     1       8.582   0.370  12.551  1.00  0.00     0.180 HD
HETATM   11  C20 UNL     1       7.101  -1.020  12.437  1.00  0.00     0.184 C 
HETATM   12  N7  UNL     1       6.675  -2.027  12.070  1.00  0.00    -0.172 NA
HETATM   13  C21 UNL     1       4.633   1.051  13.218  1.00  0.00     0.150 C 
HETATM   14  C22 UNL     1       3.423   0.481  13.964  1.00  0.00     0.105 C 
ENDROOT
BRANCH  14  15
HETATM   15  C23 UNL     1       2.256   0.429  13.084  1.00  0.00     0.031 C 
BRANCH  15  16
HETATM   16  C24 UNL     1       2.530   1.065  11.740  1.00  0.00    -0.013 C 
HETATM   17  C25 UNL     1       2.184   2.541  11.739  1.00  0.00     0.005 C 
HETATM   18  C26 UNL     1       0.781   2.852  12.123  1.00  0.00     0.000 C 
HETATM   19  C27 UNL     1      -0.157   2.194  11.143  1.00  0.00     0.000 C 
HETATM   20  C28 UNL     1       0.161   0.743  10.982  1.00  0.00     0.000 C 
HETATM   21  C29 UNL     1       1.590   0.461  10.682  1.00  0.00     0.005 C 
ENDBRANCH  15  16
ENDBRANCH  14  15
BRANCH   1  22
HETATM   22  C6  UNL     1       4.156  -3.175  15.165  1.00  0.00     0.215 C 
BRANCH  22  23
HETATM   23  C5  UNL     1       3.420  -4.469  14.858  1.00  0.00     0.092 C 
BRANCH  23  24
HETATM   24  N1  UNL     1       2.786  -5.077  15.949  1.00  0.00    -0.391 N 
HETATM   25  C4  UNL     1       2.287  -6.391  15.811  1.00  0.00     0.122 C 
HETATM   26  C3  UNL     1       3.384  -7.370  16.175  1.00  0.00     0.024 C 
HETATM   27  C2  UNL     1       4.035  -7.029  17.492  1.00  0.00    -0.015 C 
HETATM   28  C1  UNL     1       5.285  -7.873  17.620  1.00  0.00     0.010 C 
HETATM   29  C31 UNL     1       4.468  -5.578  17.549  1.00  0.00     0.024 C 
HETATM   30  C30 UNL     1       3.231  -4.750  17.261  1.00  0.00     0.122 C 
ENDBRANCH  23  24
ENDBRANCH  22  23
BRANCH  22  31
HETATM   31  N2  UNL     1       5.552  -3.492  14.896  1.00  0.00    -0.343 N 
HETATM   32  C7  UNL     1       6.590  -3.401  15.808  1.00  0.00     0.225 C 
HETATM   33  O1  UNL     1       6.348  -3.010  16.979  1.00  0.00    -0.273 OA
ATOM     34  H2  UNL     1       5.786  -3.808  13.954  1.00  0.00     0.163 HD
BRANCH  32  35
HETATM   35  C8  UNL     1       7.980  -3.766  15.408  1.00  0.00     0.105 C 
BRANCH  35  36
HETATM   36  C9  UNL     1       8.820  -2.522  15.594  1.00  0.00     0.178 C 
BRANCH  36  37
HETATM   37  O2  UNL     1       8.045  -1.392  15.655  1.00  0.00    -0.400 OA
ATOM     38  H2  UNL     1       7.892  -1.120  16.553  1.00  0.00     0.209 HD
ENDBRANCH  36  37
ENDBRANCH  35  36
BRANCH  35  39
HETATM   39  C10 UNL     1       8.544  -4.834  16.300  1.00  0.00     0.001 C 
HETATM   40  C11 UNL     1       8.706  -6.160  15.569  1.00  0.00     0.005 C 
HETATM   41  C12 UNL     1       9.468  -7.098  16.480  1.00  0.00     0.000 C 
HETATM   42  C13 UNL     1       9.562  -6.554  17.893  1.00  0.00     0.000 C 
HETATM   43  C14 UNL     1      10.285  -5.250  17.958  1.00  0.00     0.000 C 
HETATM   44  C15 UNL     1       9.939  -4.445  16.715  1.00  0.00     0.005 C 
ENDBRANCH  35  39
ENDBRANCH  32  35
ENDBRANCH  22  31
ENDBRANCH   1  22
TORSDOF 10
ENDMDL
MODEL 4
REMARK VINA RESULT: -7.463759759      1.533      4.705
REMARK  10 active torsions:
REMARK  status: ('A' for Active; 'I' for Inactive)
REMARK    1  A    between atoms: N1_5  and  C5_6 
REMARK    2  A    between atoms: C5_6  and  C6_7 
REMARK    3  A    between atoms: C6_7  and  N2_8 
REMARK    4  A    between atoms: C6_7  and  C16_22 
REMARK       I    between atoms: N2_8  and  C7_10 
REMARK    5  A    between atoms: C7_10  and  C8_12 
REMARK    6  A    between atoms: C8_12  and  C9_13 
REMARK    7  A    between atoms: C8_12  and  C10_16 
REMARK    8  A    between atoms: C9_13  and  O2_14 
REMARK       I    between atoms: C16_22  and  N3_24 
REMARK       I    between atoms: N4_27  and  C19_28 
REMARK    9  A    between atoms: C22_35  and  C23_36 
REMARK   10  A    between atoms: C23_36  and  C24_37 
ROOT
HETATM    1  C16 UNL     1       5.693  -1.284  13.246  1.00  0.00     0.248 C 
HETATM    2  O3  UNL     1       6.254  -2.119  12.442  1.00  0.00    -0.271 OA
HETATM    3  N3  UNL     1       5.903  -1.371  14.637  1.00  0.00    -0.342 N 
HETATM    4  C17 UNL     1       5.150  -0.415  15.485  1.00  0.00     0.146 C 
HETATM    5  C18 UNL     1       4.757  -1.145  16.781  1.00  0.00     0.145 C 
HETATM    6  N4  UNL     1       4.609  -2.566  16.545  1.00  0.00    -0.351 N 
HETATM    7  C19 UNL     1       3.418  -3.257  16.817  1.00  0.00     0.199 C 
HETATM    8  N5  UNL     1       2.994  -3.373  18.193  1.00  0.00    -0.063 NA
HETATM    9  N6  UNL     1       2.668  -3.793  15.947  1.00  0.00    -0.267 N 
ATOM     10  H6  UNL     1       1.835  -4.259  16.306  1.00  0.00     0.180 HD
HETATM   11  C20 UNL     1       2.832  -3.828  14.586  1.00  0.00     0.184 C 
HETATM   12  N7  UNL     1       2.952  -3.872  13.440  1.00  0.00    -0.172 NA
HETATM   13  C21 UNL     1       5.768  -3.282  16.024  1.00  0.00     0.150 C 
HETATM   14  C22 UNL     1       6.713  -2.267  15.373  1.00  0.00     0.105 C 
ENDROOT
BRANCH  14  15
HETATM   15  C23 UNL     1       7.851  -2.947  14.757  1.00  0.00     0.031 C 
BRANCH  15  16
HETATM   16  C24 UNL     1       8.999  -3.122  15.725  1.00  0.00    -0.013 C 
HETATM   17  C25 UNL     1      10.184  -3.804  15.068  1.00  0.00     0.005 C 
HETATM   18  C26 UNL     1       9.882  -5.127  14.460  1.00  0.00     0.000 C 
HETATM   19  C27 UNL     1       9.394  -6.065  15.533  1.00  0.00     0.000 C 
HETATM   20  C28 UNL     1       8.284  -5.450  16.324  1.00  0.00     0.000 C 
HETATM   21  C29 UNL     1       8.586  -4.092  16.846  1.00  0.00     0.005 C 
ENDBRANCH  15  16
ENDBRANCH  14  15
BRANCH   1  22
HETATM   22  C6  UNL     1       4.853  -0.289  12.548  1.00  0.00     0.215 C 
BRANCH  22  23
HETATM   23  C5  UNL     1       3.542  -0.006  13.261  1.00  0.00     0.092 C 
BRANCH  23  24
HETATM   24  N1  UNL     1       2.392  -0.494  12.627  1.00  0.00    -0.391 N 
HETATM   25  C4  UNL     1       1.156  -0.449  13.310  1.00  0.00     0.122 C 
HETATM   26  C3  UNL     1       0.491   0.882  13.027  1.00  0.00     0.024 C 
HETATM   27  C2  UNL     1       0.460   1.199  11.553  1.00  0.00    -0.015 C 
HETATM   28  C1  UNL     1       0.051   2.648  11.402  1.00  0.00     0.010 C 
HETATM   29  C31 UNL     1       1.826   1.052  10.914  1.00  0.00     0.024 C 
HETATM   30  C30 UNL     1       2.289  -0.361  11.214  1.00  0.00     0.122 C 
ENDBRANCH  23  24
ENDBRANCH  22  23
BRANCH  22  31
HETATM   31  N2  UNL     1       5.497   1.016  12.466  1.00  0.00    -0.343 N 
HETATM   32  C7  UNL     1       6.216   1.493  11.383  1.00  0.00     0.225 C 
HETATM   33  O1  UNL     1       6.352   0.766  10.365  1.00  0.00    -0.273 OA
ATOM     34  H2  UNL     1       5.412   1.630  13.276  1.00  0.00     0.163 HD
BRANCH  32  35
HETATM   35  C8  UNL     1       6.821   2.857  11.420  1.00  0.00     0.105 C 
BRANCH  35  36
HETATM   36  C9  UNL     1       7.988   2.782  12.379  1.00  0.00     0.178 C 
BRANCH  36  37
HETATM   37  O2  UNL     1       8.246   1.491  12.762  1.00  0.00    -0.400 OA
ATOM     38  H2  UNL     1       9.132   1.229  12.539  1.00  0.00     0.209 HD
ENDBRANCH  36  37
ENDBRANCH  35  36
BRANCH  35  39
HETATM   39  C10 UNL     1       7.358   3.254  10.075  1.00  0.00     0.001 C 
HETATM   40  C11 UNL     1       6.275   3.834   9.176  1.00  0.00     0.005 C 
HETATM   41  C12 UNL     1       6.950   4.392   7.943  1.00  0.00     0.000 C 
HETATM   42  C13 UNL     1       8.397   3.946   7.845  1.00  0.00     0.000 C 
HETATM   43  C14 UNL     1       9.218   4.412   9.002  1.00  0.00     0.000 C 
HETATM   44  C15 UNL     1       8.355   4.369  10.253  1.00  0.00     0.005 C 
ENDBRANCH  35  39
ENDBRANCH  32  35
ENDBRANCH  22  31
ENDBRANCH   1  22
TORSDOF 10
ENDMDL
MODEL 5
REMARK VINA RESULT: -7.330806833      1.624      4.393
REMARK  10 active torsions:
REMARK  status: ('A' for Active; 'I' for Inactive)
REMARK    1  A    between atoms: N1_5  and  C5_6 
REMARK    2  A    between atoms: C5_6  and  C6_7 
REMARK    3  A    between atoms: C6_7  and  N2_8 
REMARK    4  A    between atoms: C6_7  and  C16_22 
REMARK       I    between atoms: N2_8  and  C7_10 
REMARK    5  A    between atoms: C7_10  and  C8_12 
REMARK    6  A    between atoms: C8_12  and  C9_13 
REMARK    7  A    between atoms: C8_12  and  C10_16 
REMARK    8  A    between atoms: C9_13  and  O2_14 
REMARK       I    between atoms: C16_22  and  N3_24 
REMARK       I    between atoms: N4_27  and  C19_28 
REMARK    9  A    between atoms: C22_35  and  C23_36 
REMARK   10  A    between atoms: C23_36  and  C24_37 
ROOT
HETATM    1  C16 UNL     1       5.320  -2.452  13.072  1.00  0.00     0.248 C 
HETATM    2  O3  UNL     1       5.728  -3.420  12.326  1.00  0.00    -0.271 OA
HETATM    3  N3  UNL     1       5.587  -2.447  14.455  1.00  0.00    -0.342 N 
HETATM    4  C17 UNL     1       5.007  -1.331  15.240  1.00  0.00     0.146 C 
HETATM    5  C18 UNL     1       4.588  -1.888  16.612  1.00  0.00     0.145 C 
HETATM    6  N4  UNL     1       4.247  -3.292  16.512  1.00  0.00    -0.351 N 
HETATM    7  C19 UNL     1       2.992  -3.793  16.892  1.00  0.00     0.199 C 
HETATM    8  N5  UNL     1       2.627  -3.733  18.289  1.00  0.00    -0.063 NA
HETATM    9  N6  UNL     1       2.137  -4.298  16.105  1.00  0.00    -0.267 N 
ATOM     10  H6  UNL     1       1.270  -4.617  16.537  1.00  0.00     0.180 HD
HETATM   11  C20 UNL     1       2.226  -4.471  14.747  1.00  0.00     0.184 C 
HETATM   12  N7  UNL     1       2.282  -4.627  13.606  1.00  0.00    -0.172 NA
HETATM   13  C21 UNL     1       5.277  -4.198  16.016  1.00  0.00     0.150 C 
HETATM   14  C22 UNL     1       6.310  -3.376  15.238  1.00  0.00     0.105 C 
ENDROOT
BRANCH  14  15
HETATM   15  C23 UNL     1       7.319  -4.252  14.644  1.00  0.00     0.031 C 
BRANCH  15  16
HETATM   16  C24 UNL     1       8.720  -3.871  15.063  1.00  0.00    -0.013 C 
HETATM   17  C25 UNL     1       9.709  -4.987  14.788  1.00  0.00     0.005 C 
HETATM   18  C26 UNL     1       9.371  -6.288  15.424  1.00  0.00     0.000 C 
HETATM   19  C27 UNL     1       9.333  -6.113  16.921  1.00  0.00     0.000 C 
HETATM   20  C28 UNL     1       8.464  -4.960  17.307  1.00  0.00     0.000 C 
HETATM   21  C29 UNL     1       8.773  -3.694  16.591  1.00  0.00     0.005 C 
ENDBRANCH  15  16
ENDBRANCH  14  15
BRANCH   1  22
HETATM   22  C6  UNL     1       4.582  -1.418  12.318  1.00  0.00     0.215 C 
BRANCH  22  23
HETATM   23  C5  UNL     1       3.141  -1.259  12.774  1.00  0.00     0.092 C 
BRANCH  23  24
HETATM   24  N1  UNL     1       2.832  -0.038  13.387  1.00  0.00    -0.391 N 
HETATM   25  C4  UNL     1       3.240   1.166  12.769  1.00  0.00     0.122 C 
HETATM   26  C3  UNL     1       2.154   1.614  11.811  1.00  0.00     0.024 C 
HETATM   27  C2  UNL     1       0.792   1.613  12.458  1.00  0.00    -0.015 C 
HETATM   28  C1  UNL     1      -0.238   1.787  11.362  1.00  0.00     0.010 C 
HETATM   29  C31 UNL     1       0.493   0.296  13.146  1.00  0.00     0.024 C 
HETATM   30  C30 UNL     1       1.623   0.061  14.130  1.00  0.00     0.122 C 
ENDBRANCH  23  24
ENDBRANCH  22  23
BRANCH  22  31
HETATM   31  N2  UNL     1       5.156  -0.090  12.497  1.00  0.00    -0.343 N 
HETATM   32  C7  UNL     1       6.426   0.297  12.105  1.00  0.00     0.225 C 
HETATM   33  O1  UNL     1       7.182  -0.539  11.548  1.00  0.00    -0.273 OA
ATOM     34  H2  UNL     1       4.572   0.614  12.950  1.00  0.00     0.163 HD
BRANCH  32  35
HETATM   35  C8  UNL     1       6.893   1.696  12.336  1.00  0.00     0.105 C 
BRANCH  35  36
HETATM   36  C9  UNL     1       8.038   1.608  13.320  1.00  0.00     0.178 C 
BRANCH  36  37
HETATM   37  O2  UNL     1       7.752   0.755  14.356  1.00  0.00    -0.400 OA
ATOM     38  H2  UNL     1       8.542   0.444  14.782  1.00  0.00     0.209 HD
ENDBRANCH  36  37
ENDBRANCH  35  36
BRANCH  35  39
HETATM   39  C10 UNL     1       7.421   2.313  11.074  1.00  0.00     0.001 C 
HETATM   40  C11 UNL     1       6.495   2.071   9.890  1.00  0.00     0.005 C 
HETATM   41  C12 UNL     1       7.002   2.902   8.731  1.00  0.00     0.000 C 
HETATM   42  C13 UNL     1       8.389   3.455   9.002  1.00  0.00     0.000 C 
HETATM   43  C14 UNL     1       8.424   4.355  10.192  1.00  0.00     0.000 C 
HETATM   44  C15 UNL     1       7.463   3.810  11.237  1.00  0.00     0.005 C 
ENDBRANCH  35  39
ENDBRANCH  32  35
ENDBRANCH  22  31
ENDBRANCH   1  22
TORSDOF 10
ENDMDL
