MODEL 1
REMARK VINA RESULT: -8.042418754      0.000      0.000
REMARK  12 active torsions:
REMARK  status: ('A' for Active; 'I' for Inactive)
REMARK    1  A    between atoms: C15_15  and  C16_16 
REMARK       I    between atoms: C16_16  and  N1_18 
REMARK    2  A    between atoms: N1_18  and  C17_20 
REMARK    3  A    between atoms: C17_20  and  C19_22 
REMARK       I    between atoms: C19_22  and  N2_24 
REMARK    4  A    between atoms: N2_24  and  C20_26 
REMARK    5  A    between atoms: C20_26  and  C21_27 
REMARK    6  A    between atoms: C20_26  and  C29_42 
REMARK       I    between atoms: C21_27  and  N3_29 
REMARK    7  A    between atoms: N3_29  and  C22_31 
REMARK    8  A    between atoms: C22_31  and  C23_32 
REMARK    9  A    between atoms: C22_31  and  C26_39 
REMARK   10  A    between atoms: C23_32  and  O4_33 
REMARK   11  A    between atoms: C23_32  and  C24_35 
REMARK   12  A    between atoms: C24_35  and  O6_37 
ROOT
HETATM    1  C1  UNL     1       5.335  10.174   6.254  1.00  0.00     0.102 C 
HETATM    2  C2  UNL     1       4.341   9.709   6.800  1.00  0.00    -0.160 C 
HETATM    3  C3  UNL     1       3.196   9.164   7.462  1.00  0.00     0.054 C 
HETATM    4  C4  UNL     1       2.336   8.359   6.909  1.00  0.00    -0.055 C 
HETATM    5  C5  UNL     1       1.093   7.677   7.390  1.00  0.00    -0.017 C 
HETATM    6  C6  UNL     1       0.327   8.430   8.432  1.00  0.00     0.020 C 
HETATM    7  C7  UNL     1       0.599   7.787   5.986  1.00  0.00     0.028 C 
HETATM    8  C8  UNL     1       2.089   7.702   5.619  1.00  0.00    -0.010 C 
HETATM    9  C9  UNL     1       2.324   8.466   4.367  1.00  0.00     0.021 C 
HETATM   10  C10 UNL     1       2.584   6.260   5.613  1.00  0.00    -0.016 C 
HETATM   11  C11 UNL     1       4.091   6.332   5.560  1.00  0.00     0.018 C 
HETATM   12  C12 UNL     1       2.077   5.657   4.316  1.00  0.00     0.011 C 
HETATM   13  C13 UNL     1       0.960   4.724   4.663  1.00  0.00     0.002 C 
HETATM   14  C14 UNL     1       0.887   4.629   6.149  1.00  0.00     0.020 C 
HETATM   15  C15 UNL     1       2.051   5.448   6.715  1.00  0.00     0.050 C 
HETATM   16  C33 UNL     1       1.422   6.288   7.824  1.00  0.00     0.033 C 
ENDROOT
BRANCH  15  17
HETATM   17  C16 UNL     1       2.941   4.486   7.378  1.00  0.00     0.228 C 
HETATM   18  O1  UNL     1       3.297   3.435   6.846  1.00  0.00    -0.273 OA
HETATM   19  N1  UNL     1       3.446   4.728   8.698  1.00  0.00    -0.347 N 
ATOM     20  H1  UNL     1       3.173   5.589   9.171  1.00  0.00     0.163 HD
BRANCH  19  21
HETATM   21  C17 UNL     1       4.313   3.823   9.386  1.00  0.00     0.172 C 
HETATM   22  C18 UNL     1       5.731   4.283   9.519  1.00  0.00     0.042 C 
BRANCH  21  23
HETATM   23  C19 UNL     1       3.722   3.492  10.725  1.00  0.00     0.240 C 
HETATM   24  O2  UNL     1       3.664   4.385  11.622  1.00  0.00    -0.271 OA
HETATM   25  N2  UNL     1       3.221   2.225  11.039  1.00  0.00    -0.345 N 
ATOM     26  H2  UNL     1       3.264   1.501  10.322  1.00  0.00     0.163 HD
BRANCH  25  27
HETATM   27  C20 UNL     1       2.638   1.876  12.339  1.00  0.00     0.184 C 
BRANCH  27  28
HETATM   28  C21 UNL     1       3.517   0.926  13.051  1.00  0.00     0.241 C 
HETATM   29  O3  UNL     1       3.512   0.963  14.321  1.00  0.00    -0.271 OA
HETATM   30  N3  UNL     1       4.337   0.006  12.429  1.00  0.00    -0.348 N 
ATOM     31  H3  UNL     1       4.354  -0.040  11.410  1.00  0.00     0.163 HD
BRANCH  30  32
HETATM   32  C22 UNL     1       5.208  -0.931  13.223  1.00  0.00     0.151 C 
BRANCH  32  33
HETATM   33  C23 UNL     1       6.537  -0.359  13.253  1.00  0.00     0.142 C 
BRANCH  33  34
HETATM   34  O4  UNL     1       6.987  -0.248  14.509  1.00  0.00    -0.357 OA
ATOM     35  H4  UNL     1       7.571  -0.963  14.728  1.00  0.00     0.217 HD
ENDBRANCH  33  34
BRANCH  33  36
HETATM   36  C24 UNL     1       7.473   0.112  12.309  1.00  0.00     0.314 C 
HETATM   37  O5  UNL     1       7.882  -0.521  11.316  1.00  0.00    -0.257 OA
BRANCH  36  38
HETATM   38  O6  UNL     1       8.062   1.404  12.404  1.00  0.00    -0.321 OA
HETATM   39  C25 UNL     1       7.264   2.561  12.486  1.00  0.00     0.213 C 
ENDBRANCH  36  38
ENDBRANCH  33  36
ENDBRANCH  32  33
BRANCH  32  40
HETATM   40  C26 UNL     1       4.932  -2.301  12.812  1.00  0.00     0.007 C 
HETATM   41  C27 UNL     1       3.645  -2.843  13.357  1.00  0.00     0.012 C 
HETATM   42  C28 UNL     1       6.034  -3.287  13.201  1.00  0.00     0.012 C 
ENDBRANCH  32  40
ENDBRANCH  30  32
ENDBRANCH  27  28
BRANCH  27  43
HETATM   43  C29 UNL     1       1.271   1.347  12.029  1.00  0.00    -0.022 C 
HETATM   44  C30 UNL     1       0.688   0.415  13.026  1.00  0.00     0.017 C 
HETATM   45  C31 UNL     1       0.339   2.540  11.898  1.00  0.00     0.017 C 
HETATM   46  C32 UNL     1       1.299   0.652  10.680  1.00  0.00     0.017 C 
ENDBRANCH  27  43
ENDBRANCH  25  27
ENDBRANCH  21  23
ENDBRANCH  19  21
ENDBRANCH  15  17
TORSDOF 12
ENDMDL
MODEL 2
REMARK VINA RESULT: -7.990714730      2.977      5.160
REMARK  12 active torsions:
REMARK  status: ('A' for Active; 'I' for Inactive)
REMARK    1  A    between atoms: C15_15  and  C16_16 
REMARK       I    between atoms: C16_16  and  N1_18 
REMARK    2  A    between atoms: N1_18  and  C17_20 
REMARK    3  A    between atoms: C17_20  and  C19_22 
REMARK       I    between atoms: C19_22  and  N2_24 
REMARK    4  A    between atoms: N2_24  and  C20_26 
REMARK    5  A    between atoms: C20_26  and  C21_27 
REMARK    6  A    between atoms: C20_26  and  C29_42 
REMARK       I    between atoms: C21_27  and  N3_29 
REMARK    7  A    between atoms: N3_29  and  C22_31 
REMARK    8  A    between atoms: C22_31  and  C23_32 
REMARK    9  A    between atoms: C22_31  and  C26_39 
REMARK   10  A    between atoms: C23_32  and  O4_33 
REMARK   11  A    between atoms: C23_32  and  C24_35 
REMARK   12  A    between atoms: C24_35  and  O6_37 
ROOT
HETATM    1  C1  UNL     1       6.198   5.913   2.679  1.00  0.00     0.102 C 
HETATM    2  C2  UNL     1       6.190   4.850   3.291  1.00  0.00    -0.160 C 
HETATM    3  C3  UNL     1       6.153   3.610   4.002  1.00  0.00     0.054 C 
HETATM    4  C4  UNL     1       6.932   3.307   5.000  1.00  0.00    -0.055 C 
HETATM    5  C5  UNL     1       7.074   2.102   5.879  1.00  0.00    -0.017 C 
HETATM    6  C6  UNL     1       6.742   0.802   5.218  1.00  0.00     0.020 C 
HETATM    7  C7  UNL     1       8.521   2.455   5.973  1.00  0.00     0.028 C 
HETATM    8  C8  UNL     1       8.023   3.897   5.786  1.00  0.00    -0.010 C 
HETATM    9  C9  UNL     1       9.069   4.685   5.085  1.00  0.00     0.021 C 
HETATM   10  C10 UNL     1       7.521   4.491   7.098  1.00  0.00    -0.016 C 
HETATM   11  C11 UNL     1       6.779   5.754   6.732  1.00  0.00     0.018 C 
HETATM   12  C12 UNL     1       8.764   4.864   7.883  1.00  0.00     0.011 C 
HETATM   13  C13 UNL     1       8.908   3.869   8.991  1.00  0.00     0.002 C 
HETATM   14  C14 UNL     1       7.696   3.001   8.990  1.00  0.00     0.020 C 
HETATM   15  C15 UNL     1       6.749   3.546   7.916  1.00  0.00     0.050 C 
HETATM   16  C33 UNL     1       6.303   2.310   7.138  1.00  0.00     0.033 C 
ENDROOT
BRANCH  15  17
HETATM   17  C16 UNL     1       5.563   4.037   8.631  1.00  0.00     0.228 C 
HETATM   18  O1  UNL     1       5.638   4.776   9.612  1.00  0.00    -0.273 OA
HETATM   19  N1  UNL     1       4.240   3.670   8.215  1.00  0.00    -0.347 N 
ATOM     20  H1  UNL     1       4.139   3.058   7.406  1.00  0.00     0.163 HD
BRANCH  19  21
HETATM   21  C17 UNL     1       3.056   4.119   8.877  1.00  0.00     0.172 C 
HETATM   22  C18 UNL     1       1.775   3.784   8.180  1.00  0.00     0.042 C 
BRANCH  21  23
HETATM   23  C19 UNL     1       3.054   3.608  10.289  1.00  0.00     0.240 C 
HETATM   24  O2  UNL     1       3.144   4.427  11.251  1.00  0.00    -0.271 OA
HETATM   25  N2  UNL     1       2.955   2.249  10.601  1.00  0.00    -0.345 N 
ATOM     26  H2  UNL     1       2.882   1.584   9.832  1.00  0.00     0.163 HD
BRANCH  25  27
HETATM   27  C20 UNL     1       2.950   1.724  11.972  1.00  0.00     0.184 C 
BRANCH  27  28
HETATM   28  C21 UNL     1       4.176   0.937  12.218  1.00  0.00     0.241 C 
HETATM   29  O3  UNL     1       4.319  -0.143  11.566  1.00  0.00    -0.271 OA
HETATM   30  N3  UNL     1       5.170   1.300  13.105  1.00  0.00    -0.348 N 
ATOM     31  H3  UNL     1       5.073   2.165  13.636  1.00  0.00     0.163 HD
BRANCH  30  32
HETATM   32  C22 UNL     1       6.394   0.445  13.303  1.00  0.00     0.151 C 
BRANCH  32  33
HETATM   33  C23 UNL     1       6.277  -0.174  14.606  1.00  0.00     0.142 C 
BRANCH  33  34
HETATM   34  O4  UNL     1       5.671   0.643  15.476  1.00  0.00    -0.357 OA
ATOM     35  H4  UNL     1       4.730   0.648  15.343  1.00  0.00     0.217 HD
ENDBRANCH  33  34
BRANCH  33  36
HETATM   36  C24 UNL     1       6.638  -1.404  15.194  1.00  0.00     0.314 C 
HETATM   37  O5  UNL     1       7.501  -2.190  14.759  1.00  0.00    -0.257 OA
BRANCH  36  38
HETATM   38  O6  UNL     1       6.025  -1.883  16.386  1.00  0.00    -0.321 OA
HETATM   39  C25 UNL     1       4.888  -2.711  16.335  1.00  0.00     0.213 C 
ENDBRANCH  36  38
ENDBRANCH  33  36
ENDBRANCH  32  33
BRANCH  32  40
HETATM   40  C26 UNL     1       7.569   1.187  12.869  1.00  0.00     0.007 C 
HETATM   41  C27 UNL     1       7.290   2.629  12.566  1.00  0.00     0.012 C 
HETATM   42  C28 UNL     1       8.243   0.593  11.632  1.00  0.00     0.012 C 
ENDBRANCH  32  40
ENDBRANCH  30  32
ENDBRANCH  27  28
BRANCH  27  43
HETATM   43  C29 UNL     1       1.676   0.945  12.090  1.00  0.00    -0.022 C 
HETATM   44  C30 UNL     1       1.640  -0.095  13.148  1.00  0.00     0.017 C 
HETATM   45  C31 UNL     1       0.558   1.937  12.367  1.00  0.00     0.017 C 
HETATM   46  C32 UNL     1       1.368   0.286  10.759  1.00  0.00     0.017 C 
ENDBRANCH  27  43
ENDBRANCH  25  27
ENDBRANCH  21  23
ENDBRANCH  19  21
ENDBRANCH  15  17
TORSDOF 12
ENDMDL
MODEL 3
REMARK VINA RESULT: -7.865555212      2.668      4.975
REMARK  12 active torsions:
REMARK  status: ('A' for Active; 'I' for Inactive)
REMARK    1  A    between atoms: C15_15  and  C16_16 
REMARK       I    between atoms: C16_16  and  N1_18 
REMARK    2  A    between atoms: N1_18  and  C17_20 
REMARK    3  A    between atoms: C17_20  and  C19_22 
REMARK       I    between atoms: C19_22  and  N2_24 
REMARK    4  A    between atoms: N2_24  and  C20_26 
REMARK    5  A    between atoms: C20_26  and  C21_27 
REMARK    6  A    between atoms: C20_26  and  C29_42 
REMARK       I    between atoms: C21_27  and  N3_29 
REMARK    7  A    between atoms: N3_29  and  C22_31 
REMARK    8  A    between atoms: C22_31  and  C23_32 
REMARK    9  A    between atoms: C22_31  and  C26_39 
REMARK   10  A    between atoms: C23_32  and  O4_33 
REMARK   11  A    between atoms: C23_32  and  C24_35 
REMARK   12  A    between atoms: C24_35  and  O6_37 
ROOT
HETATM    1  C1  UNL     1       6.842  -0.042   5.063  1.00  0.00     0.102 C 
HETATM    2  C2  UNL     1       7.204   0.896   5.765  1.00  0.00    -0.160 C 
HETATM    3  C3  UNL     1       7.615   1.977   6.607  1.00  0.00     0.054 C 
HETATM    4  C4  UNL     1       7.653   3.226   6.240  1.00  0.00    -0.055 C 
HETATM    5  C5  UNL     1       8.036   4.499   6.929  1.00  0.00    -0.017 C 
HETATM    6  C6  UNL     1       9.099   4.353   7.971  1.00  0.00     0.020 C 
HETATM    7  C7  UNL     1       8.476   4.984   5.587  1.00  0.00     0.028 C 
HETATM    8  C8  UNL     1       7.372   4.053   5.060  1.00  0.00    -0.010 C 
HETATM    9  C9  UNL     1       7.763   3.548   3.719  1.00  0.00     0.021 C 
HETATM   10  C10 UNL     1       5.998   4.710   5.141  1.00  0.00    -0.016 C 
HETATM   11  C11 UNL     1       4.991   3.610   4.907  1.00  0.00     0.018 C 
HETATM   12  C12 UNL     1       5.940   5.684   3.979  1.00  0.00     0.011 C 
HETATM   13  C13 UNL     1       6.058   7.064   4.546  1.00  0.00     0.002 C 
HETATM   14  C14 UNL     1       6.026   6.954   6.032  1.00  0.00     0.020 C 
HETATM   15  C15 UNL     1       5.784   5.481   6.374  1.00  0.00     0.050 C 
HETATM   16  C33 UNL     1       6.813   5.168   7.459  1.00  0.00     0.033 C 
ENDROOT
BRANCH  15  17
HETATM   17  C16 UNL     1       4.468   5.424   7.022  1.00  0.00     0.228 C 
HETATM   18  O1  UNL     1       3.532   6.151   6.689  1.00  0.00    -0.273 OA
HETATM   19  N1  UNL     1       4.204   4.506   8.092  1.00  0.00    -0.347 N 
ATOM     20  H1  UNL     1       4.957   3.888   8.395  1.00  0.00     0.163 HD
BRANCH  19  21
HETATM   21  C17 UNL     1       2.942   4.414   8.755  1.00  0.00     0.172 C 
HETATM   22  C18 UNL     1       1.885   3.667   8.003  1.00  0.00     0.042 C 
BRANCH  21  23
HETATM   23  C19 UNL     1       3.144   3.835  10.125  1.00  0.00     0.240 C 
HETATM   24  O2  UNL     1       3.865   4.450  10.965  1.00  0.00    -0.271 OA
HETATM   25  N2  UNL     1       2.564   2.629  10.530  1.00  0.00    -0.345 N 
ATOM     26  H2  UNL     1       1.982   2.128   9.859  1.00  0.00     0.163 HD
BRANCH  25  27
HETATM   27  C20 UNL     1       2.743   2.042  11.863  1.00  0.00     0.184 C 
BRANCH  27  28
HETATM   28  C21 UNL     1       4.062   1.381  11.952  1.00  0.00     0.241 C 
HETATM   29  O3  UNL     1       4.142   0.179  11.550  1.00  0.00    -0.271 OA
HETATM   30  N3  UNL     1       5.204   1.983  12.441  1.00  0.00    -0.348 N 
ATOM     31  H3  UNL     1       5.159   2.948  12.767  1.00  0.00     0.163 HD
BRANCH  30  32
HETATM   32  C22 UNL     1       6.515   1.244  12.501  1.00  0.00     0.151 C 
BRANCH  32  33
HETATM   33  C23 UNL     1       6.699   0.812  13.871  1.00  0.00     0.142 C 
BRANCH  33  34
HETATM   34  O4  UNL     1       7.217   1.792  14.620  1.00  0.00    -0.357 OA
ATOM     35  H4  UNL     1       8.111   1.595  14.874  1.00  0.00     0.217 HD
ENDBRANCH  33  34
BRANCH  33  36
HETATM   36  C24 UNL     1       6.480  -0.367  14.613  1.00  0.00     0.314 C 
HETATM   37  O5  UNL     1       7.228  -1.365  14.627  1.00  0.00    -0.257 OA
BRANCH  36  38
HETATM   38  O6  UNL     1       5.341  -0.536  15.449  1.00  0.00    -0.321 OA
HETATM   39  C25 UNL     1       5.342  -1.477  16.495  1.00  0.00     0.213 C 
ENDBRANCH  36  38
ENDBRANCH  33  36
ENDBRANCH  32  33
BRANCH  32  40
HETATM   40  C26 UNL     1       7.517   1.989  11.752  1.00  0.00     0.007 C 
HETATM   41  C27 UNL     1       7.168   3.434  11.556  1.00  0.00     0.012 C 
HETATM   42  C28 UNL     1       7.803   1.405  10.368  1.00  0.00     0.012 C 
ENDBRANCH  32  40
ENDBRANCH  30  32
ENDBRANCH  27  28
BRANCH  27  43
HETATM   43  C29 UNL     1       1.573   1.126  12.051  1.00  0.00    -0.022 C 
HETATM   44  C30 UNL     1       1.706   0.106  13.121  1.00  0.00     0.017 C 
HETATM   45  C31 UNL     1       0.364   1.990  12.371  1.00  0.00     0.017 C 
HETATM   46  C32 UNL     1       1.280   0.414  10.743  1.00  0.00     0.017 C 
ENDBRANCH  27  43
ENDBRANCH  25  27
ENDBRANCH  21  23
ENDBRANCH  19  21
ENDBRANCH  15  17
TORSDOF 12
ENDMDL
MODEL 4
REMARK VINA RESULT: -7.797918138      2.892      5.239
REMARK  12 active torsions:
REMARK  status: ('A' for Active; 'I' for Inactive)
REMARK    1  A    between atoms: C15_15  and  C16_16 
REMARK       I    between atoms: C16_16  and  N1_18 
REMARK    2  A    between atoms: N1_18  and  C17_20 
REMARK    3  A    between atoms: C17_20  and  C19_22 
REMARK       I    between atoms: C19_22  and  N2_24 
REMARK    4  A    between atoms: N2_24  and  C20_26 
REMARK    5  A    between atoms: C20_26  and  C21_27 
REMARK    6  A    between atoms: C20_26  and  C29_42 
REMARK       I    between atoms: C21_27  and  N3_29 
REMARK    7  A    between atoms: N3_29  and  C22_31 
REMARK    8  A    between atoms: C22_31  and  C23_32 
REMARK    9  A    between atoms: C22_31  and  C26_39 
REMARK   10  A    between atoms: C23_32  and  O4_33 
REMARK   11  A    between atoms: C23_32  and  C24_35 
REMARK   12  A    between atoms: C24_35  and  O6_37 
ROOT
HETATM    1  C1  UNL     1       5.871   6.026   2.912  1.00  0.00     0.102 C 
HETATM    2  C2  UNL     1       5.920   4.957   3.511  1.00  0.00    -0.160 C 
HETATM    3  C3  UNL     1       5.948   3.710   4.209  1.00  0.00     0.054 C 
HETATM    4  C4  UNL     1       6.813   3.398   5.130  1.00  0.00    -0.055 C 
HETATM    5  C5  UNL     1       7.035   2.184   5.979  1.00  0.00    -0.017 C 
HETATM    6  C6  UNL     1       6.646   0.890   5.337  1.00  0.00     0.020 C 
HETATM    7  C7  UNL     1       8.484   2.539   5.947  1.00  0.00     0.028 C 
HETATM    8  C8  UNL     1       7.970   3.982   5.821  1.00  0.00    -0.010 C 
HETATM    9  C9  UNL     1       8.948   4.779   5.038  1.00  0.00     0.021 C 
HETATM   10  C10 UNL     1       7.586   4.561   7.179  1.00  0.00    -0.016 C 
HETATM   11  C11 UNL     1       6.814   5.826   6.894  1.00  0.00     0.018 C 
HETATM   12  C12 UNL     1       8.895   4.927   7.854  1.00  0.00     0.011 C 
HETATM   13  C13 UNL     1       9.139   3.921   8.934  1.00  0.00     0.002 C 
HETATM   14  C14 UNL     1       7.932   3.051   9.031  1.00  0.00     0.020 C 
HETATM   15  C15 UNL     1       6.892   3.606   8.053  1.00  0.00     0.050 C 
HETATM   16  C33 UNL     1       6.379   2.377   7.305  1.00  0.00     0.033 C 
ENDROOT
BRANCH  15  17
HETATM   17  C16 UNL     1       5.774   4.086   8.876  1.00  0.00     0.228 C 
HETATM   18  O1  UNL     1       5.941   4.701   9.929  1.00  0.00    -0.273 OA
HETATM   19  N1  UNL     1       4.412   3.857   8.488  1.00  0.00    -0.347 N 
ATOM     20  H1  UNL     1       4.235   3.350   7.621  1.00  0.00     0.163 HD
BRANCH  19  21
HETATM   21  C17 UNL     1       3.292   4.302   9.254  1.00  0.00     0.172 C 
HETATM   22  C18 UNL     1       1.966   4.169   8.573  1.00  0.00     0.042 C 
BRANCH  21  23
HETATM   23  C19 UNL     1       3.292   3.603  10.583  1.00  0.00     0.240 C 
HETATM   24  O2  UNL     1       3.542   4.261  11.636  1.00  0.00    -0.271 OA
HETATM   25  N2  UNL     1       3.022   2.238  10.720  1.00  0.00    -0.345 N 
ATOM     26  H2  UNL     1       2.820   1.702   9.876  1.00  0.00     0.163 HD
BRANCH  25  27
HETATM   27  C20 UNL     1       3.014   1.531  12.006  1.00  0.00     0.184 C 
BRANCH  27  28
HETATM   28  C21 UNL     1       4.162   0.605  12.082  1.00  0.00     0.241 C 
HETATM   29  O3  UNL     1       4.966   0.587  11.099  1.00  0.00    -0.271 OA
HETATM   30  N3  UNL     1       4.416  -0.237  13.147  1.00  0.00    -0.348 N 
ATOM     31  H3  UNL     1       3.782  -0.235  13.946  1.00  0.00     0.163 HD
BRANCH  30  32
HETATM   32  C22 UNL     1       5.609  -1.156  13.153  1.00  0.00     0.151 C 
BRANCH  32  33
HETATM   33  C23 UNL     1       5.104  -2.512  13.103  1.00  0.00     0.142 C 
BRANCH  33  34
HETATM   34  O4  UNL     1       5.478  -3.125  11.974  1.00  0.00    -0.357 OA
ATOM     35  H4  UNL     1       5.838  -2.506  11.350  1.00  0.00     0.217 HD
ENDBRANCH  33  34
BRANCH  33  36
HETATM   36  C24 UNL     1       4.323  -3.347  13.929  1.00  0.00     0.314 C 
HETATM   37  O5  UNL     1       3.242  -3.878  13.608  1.00  0.00    -0.257 OA
BRANCH  36  38
HETATM   38  O6  UNL     1       4.710  -3.675  15.259  1.00  0.00    -0.321 OA
HETATM   39  C25 UNL     1       4.784  -5.015  15.683  1.00  0.00     0.213 C 
ENDBRANCH  36  38
ENDBRANCH  33  36
ENDBRANCH  32  33
BRANCH  32  40
HETATM   40  C26 UNL     1       6.564  -0.690  14.149  1.00  0.00     0.007 C 
HETATM   41  C27 UNL     1       7.303   0.548  13.738  1.00  0.00     0.012 C 
HETATM   42  C28 UNL     1       7.615  -1.737  14.520  1.00  0.00     0.012 C 
ENDBRANCH  32  40
ENDBRANCH  30  32
ENDBRANCH  27  28
BRANCH  27  43
HETATM   43  C29 UNL     1       1.673   0.870  12.084  1.00  0.00    -0.022 C 
HETATM   44  C30 UNL     1       1.504  -0.143  13.155  1.00  0.00     0.017 C 
HETATM   45  C31 UNL     1       0.637   1.962  12.300  1.00  0.00     0.017 C 
HETATM   46  C32 UNL     1       1.360   0.216  10.751  1.00  0.00     0.017 C 
ENDBRANCH  27  43
ENDBRANCH  25  27
ENDBRANCH  21  23
ENDBRANCH  19  21
ENDBRANCH  15  17
TORSDOF 12
ENDMDL
MODEL 5
REMARK VINA RESULT: -7.760460874      3.124      6.057
REMARK  12 active torsions:
REMARK  status: ('A' for Active; 'I' for Inactive)
REMARK    1  A    between atoms: C15_15  and  C16_16 
REMARK       I    between atoms: C16_16  and  N1_18 
REMARK    2  A    between atoms: N1_18  and  C17_20 
REMARK    3  A    between atoms: C17_20  and  C19_22 
REMARK       I    between atoms: C19_22  and  N2_24 
REMARK    4  A    between atoms: N2_24  and  C20_26 
REMARK    5  A    between atoms: C20_26  and  C21_27 
REMARK    6  A    between atoms: C20_26  and  C29_42 
REMARK       I    between atoms: C21_27  and  N3_29 
REMARK    7  A    between atoms: N3_29  and  C22_31 
REMARK    8  A    between atoms: C22_31  and  C23_32 
REMARK    9  A    between atoms: C22_31  and  C26_39 
REMARK   10  A    between atoms: C23_32  and  O4_33 
REMARK   11  A    between atoms: C23_32  and  C24_35 
REMARK   12  A    between atoms: C24_35  and  O6_37 
ROOT
HETATM    1  C1  UNL     1       2.805   4.360   5.698  1.00  0.00     0.102 C 
HETATM    2  C2  UNL     1       3.852   3.734   5.575  1.00  0.00    -0.160 C 
HETATM    3  C3  UNL     1       5.064   2.985   5.453  1.00  0.00     0.054 C 
HETATM    4  C4  UNL     1       6.228   3.502   5.183  1.00  0.00    -0.055 C 
HETATM    5  C5  UNL     1       7.603   2.934   5.011  1.00  0.00    -0.017 C 
HETATM    6  C6  UNL     1       7.643   1.544   4.458  1.00  0.00     0.020 C 
HETATM    7  C7  UNL     1       7.842   4.046   4.044  1.00  0.00     0.028 C 
HETATM    8  C8  UNL     1       6.834   4.813   4.915  1.00  0.00    -0.010 C 
HETATM    9  C9  UNL     1       6.098   5.784   4.064  1.00  0.00     0.021 C 
HETATM   10  C10 UNL     1       7.497   5.397   6.158  1.00  0.00    -0.016 C 
HETATM   11  C11 UNL     1       6.375   5.834   7.068  1.00  0.00     0.018 C 
HETATM   12  C12 UNL     1       8.249   6.626   5.683  1.00  0.00     0.011 C 
HETATM   13  C13 UNL     1       9.708   6.291   5.698  1.00  0.00     0.002 C 
HETATM   14  C14 UNL     1       9.863   4.946   6.321  1.00  0.00     0.020 C 
HETATM   15  C15 UNL     1       8.474   4.496   6.784  1.00  0.00     0.050 C 
HETATM   16  C33 UNL     1       8.357   3.055   6.292  1.00  0.00     0.033 C 
ENDROOT
BRANCH  15  17
HETATM   17  C16 UNL     1       8.535   4.430   8.250  1.00  0.00     0.228 C 
HETATM   18  O1  UNL     1       9.290   5.138   8.915  1.00  0.00    -0.273 OA
HETATM   19  N1  UNL     1       7.706   3.522   8.989  1.00  0.00    -0.347 N 
ATOM     20  H1  UNL     1       7.067   2.919   8.470  1.00  0.00     0.163 HD
BRANCH  19  21
HETATM   21  C17 UNL     1       7.730   3.419  10.413  1.00  0.00     0.172 C 
HETATM   22  C18 UNL     1       6.883   4.421  11.134  1.00  0.00     0.042 C 
BRANCH  21  23
HETATM   23  C19 UNL     1       7.372   2.018  10.815  1.00  0.00     0.240 C 
HETATM   24  O2  UNL     1       7.791   1.042  10.125  1.00  0.00    -0.271 OA
HETATM   25  N2  UNL     1       6.585   1.729  11.934  1.00  0.00    -0.345 N 
ATOM     26  H2  UNL     1       6.243   2.510  12.494  1.00  0.00     0.163 HD
BRANCH  25  27
HETATM   27  C20 UNL     1       6.221   0.369  12.349  1.00  0.00     0.184 C 
BRANCH  27  28
HETATM   28  C21 UNL     1       4.781   0.135  12.114  1.00  0.00     0.241 C 
HETATM   29  O3  UNL     1       4.433  -1.020  11.718  1.00  0.00    -0.271 OA
HETATM   30  N3  UNL     1       3.797   1.086  12.298  1.00  0.00    -0.348 N 
ATOM     31  H3  UNL     1       4.057   2.019  12.617  1.00  0.00     0.163 HD
BRANCH  30  32
HETATM   32  C22 UNL     1       2.347   0.772  12.037  1.00  0.00     0.151 C 
BRANCH  32  33
HETATM   33  C23 UNL     1       1.844   1.792  11.141  1.00  0.00     0.142 C 
BRANCH  33  34
HETATM   34  O4  UNL     1       1.399   1.254   9.999  1.00  0.00    -0.357 OA
ATOM     35  H4  UNL     1       1.039   1.919   9.424  1.00  0.00     0.217 HD
ENDBRANCH  33  34
BRANCH  33  36
HETATM   36  C24 UNL     1       1.704   3.195  11.158  1.00  0.00     0.314 C 
HETATM   37  O5  UNL     1       0.640   3.816  11.343  1.00  0.00    -0.257 OA
BRANCH  36  38
HETATM   38  O6  UNL     1       2.809   4.069  10.955  1.00  0.00    -0.321 OA
HETATM   39  C25 UNL     1       3.497   4.096   9.728  1.00  0.00     0.213 C 
ENDBRANCH  36  38
ENDBRANCH  33  36
ENDBRANCH  32  33
BRANCH  32  40
HETATM   40  C26 UNL     1       1.703   0.419  13.295  1.00  0.00     0.007 C 
HETATM   41  C27 UNL     1       2.011  -0.974  13.755  1.00  0.00     0.012 C 
HETATM   42  C28 UNL     1       0.180   0.552  13.257  1.00  0.00     0.012 C 
ENDBRANCH  32  40
ENDBRANCH  30  32
ENDBRANCH  27  28
BRANCH  27  43
HETATM   43  C29 UNL     1       6.643   0.269  13.782  1.00  0.00    -0.022 C 
HETATM   44  C30 UNL     1       5.552   0.282  14.789  1.00  0.00     0.017 C 
HETATM   45  C31 UNL     1       7.414  -1.032  13.941  1.00  0.00     0.017 C 
HETATM   46  C32 UNL     1       7.604   1.399  14.101  1.00  0.00     0.017 C 
ENDBRANCH  27  43
ENDBRANCH  25  27
ENDBRANCH  21  23
ENDBRANCH  19  21
ENDBRANCH  15  17
TORSDOF 12
ENDMDL
