MODEL 1
REMARK VINA RESULT: -5.668315677      0.000      0.000
REMARK  7 active torsions:
REMARK  status: ('A' for Active; 'I' for Inactive)
REMARK    1  A    between atoms: O1_2  and  C2_3 
REMARK    2  A    between atoms: C2_3  and  C3_5 
REMARK    3  A    between atoms: C3_5  and  O3_6 
REMARK    4  A    between atoms: O3_6  and  C4_7 
REMARK    5  A    between atoms: C4_7  and  O4_8 
REMARK    6  A    between atoms: N1_10  and  O5_12 
REMARK    7  A    between atoms: C7_17  and  O7_18 
ROOT
HETATM    1  C3  UNL     1     -16.859 -43.010  -6.839  1.00  0.00     0.282 C 
HETATM    2  O6  UNL     1     -15.797 -43.597  -6.208  1.00  0.00    -0.338 OA
HETATM    3  C5  UNL     1     -14.772 -42.710  -6.081  1.00  0.00     0.152 C 
HETATM    4  C6  UNL     1     -14.536 -42.274  -4.651  1.00  0.00     0.042 C 
HETATM    5  C7  UNL     1     -14.990 -41.568  -7.020  1.00  0.00     0.171 C 
HETATM    6  C8  UNL     1     -16.415 -41.696  -7.413  1.00  0.00     0.187 C 
HETATM    7 CL1  UNL     1     -16.674 -41.584  -9.163  1.00  0.00    -0.116 Cl
ENDROOT
BRANCH   1   8
HETATM    8  C2  UNL     1     -18.001 -42.730  -5.928  1.00  0.00     0.324 C 
HETATM    9  O2  UNL     1     -18.370 -41.536  -5.781  1.00  0.00    -0.259 OA
BRANCH   8  10
HETATM   10  O1  UNL     1     -18.694 -43.695  -5.224  1.00  0.00    -0.322 OA
HETATM   11  C1  UNL     1     -18.321 -44.033  -3.885  1.00  0.00     0.213 C 
ENDBRANCH   8  10
ENDBRANCH   1   8
BRANCH   1  12
HETATM   12  O3  UNL     1     -17.400 -43.850  -7.867  1.00  0.00    -0.265 OA
BRANCH  12  13
HETATM   13  C4  UNL     1     -17.061 -45.180  -7.977  1.00  0.00     0.285 C 
HETATM   14  N1  UNL     1     -17.506 -45.985  -7.094  1.00  0.00    -0.227 N 
ATOM     15  H1  UNL     1     -18.090 -45.609  -6.347  1.00  0.00     0.198 HD
BRANCH  13  16
HETATM   16  O4  UNL     1     -16.267 -45.705  -8.987  1.00  0.00    -0.325 OA
ATOM     17  H4  UNL     1     -16.522 -46.427  -9.550  1.00  0.00     0.221 HD
ENDBRANCH  13  16
BRANCH  14  18
HETATM   18  O5  UNL     1     -17.242 -47.311  -7.096  1.00  0.00    -0.286 OA
ATOM     19  H5  UNL     1     -17.374 -47.872  -6.341  1.00  0.00     0.244 HD
ENDBRANCH  14  18
ENDBRANCH  12  13
ENDBRANCH   1  12
BRANCH   5  20
HETATM   20  O7  UNL     1     -14.722 -40.365  -6.375  1.00  0.00    -0.391 OA
ATOM     21  H7  UNL     1     -15.519 -39.852  -6.301  1.00  0.00     0.210 HD
ENDBRANCH   5  20
TORSDOF 7
ENDMDL
MODEL 2
REMARK VINA RESULT: -5.636688439      2.489      4.256
REMARK  7 active torsions:
REMARK  status: ('A' for Active; 'I' for Inactive)
REMARK    1  A    between atoms: O1_2  and  C2_3 
REMARK    2  A    between atoms: C2_3  and  C3_5 
REMARK    3  A    between atoms: C3_5  and  O3_6 
REMARK    4  A    between atoms: O3_6  and  C4_7 
REMARK    5  A    between atoms: C4_7  and  O4_8 
REMARK    6  A    between atoms: N1_10  and  O5_12 
REMARK    7  A    between atoms: C7_17  and  O7_18 
ROOT
HETATM    1  C3  UNL     1     -15.830 -43.246  -6.177  1.00  0.00     0.282 C 
HETATM    2  O6  UNL     1     -16.281 -44.366  -5.535  1.00  0.00    -0.338 OA
HETATM    3  C5  UNL     1     -17.566 -44.190  -5.122  1.00  0.00     0.152 C 
HETATM    4  C6  UNL     1     -18.561 -45.032  -5.893  1.00  0.00     0.042 C 
HETATM    5  C7  UNL     1     -17.892 -42.731  -5.134  1.00  0.00     0.171 C 
HETATM    6  C8  UNL     1     -16.808 -42.131  -5.950  1.00  0.00     0.187 C 
HETATM    7 CL1  UNL     1     -16.068 -40.706  -5.196  1.00  0.00    -0.116 Cl
ENDROOT
BRANCH   1   8
HETATM    8  C2  UNL     1     -15.699 -43.425  -7.648  1.00  0.00     0.324 C 
HETATM    9  O2  UNL     1     -15.372 -42.430  -8.345  1.00  0.00    -0.259 OA
BRANCH   8  10
HETATM   10  O1  UNL     1     -15.914 -44.617  -8.312  1.00  0.00    -0.322 OA
HETATM   11  C1  UNL     1     -17.000 -44.758  -9.231  1.00  0.00     0.213 C 
ENDBRANCH   8  10
ENDBRANCH   1   8
BRANCH   1  12
HETATM   12  O3  UNL     1     -14.521 -42.866  -5.731  1.00  0.00    -0.265 OA
BRANCH  12  13
HETATM   13  C4  UNL     1     -13.818 -43.611  -4.810  1.00  0.00     0.285 C 
HETATM   14  N1  UNL     1     -14.225 -43.606  -3.602  1.00  0.00    -0.227 N 
ATOM     15  H1  UNL     1     -15.050 -43.053  -3.371  1.00  0.00     0.198 HD
BRANCH  13  16
HETATM   16  O4  UNL     1     -12.694 -44.368  -5.110  1.00  0.00    -0.325 OA
ATOM     17  H4  UNL     1     -12.618 -44.937  -5.867  1.00  0.00     0.221 HD
ENDBRANCH  13  16
BRANCH  14  18
HETATM   18  O5  UNL     1     -13.619 -44.298  -2.610  1.00  0.00    -0.286 OA
ATOM     19  H5  UNL     1     -13.570 -43.990  -1.713  1.00  0.00     0.244 HD
ENDBRANCH  14  18
ENDBRANCH  12  13
ENDBRANCH   1  12
BRANCH   5  20
HETATM   20  O7  UNL     1     -19.150 -42.529  -5.691  1.00  0.00    -0.391 OA
ATOM     21  H7  UNL     1     -19.543 -41.743  -5.329  1.00  0.00     0.210 HD
ENDBRANCH   5  20
TORSDOF 7
ENDMDL
MODEL 3
REMARK VINA RESULT: -5.633137785      3.499      4.947
REMARK  7 active torsions:
REMARK  status: ('A' for Active; 'I' for Inactive)
REMARK    1  A    between atoms: O1_2  and  C2_3 
REMARK    2  A    between atoms: C2_3  and  C3_5 
REMARK    3  A    between atoms: C3_5  and  O3_6 
REMARK    4  A    between atoms: O3_6  and  C4_7 
REMARK    5  A    between atoms: C4_7  and  O4_8 
REMARK    6  A    between atoms: N1_10  and  O5_12 
REMARK    7  A    between atoms: C7_17  and  O7_18 
ROOT
HETATM    1  C3  UNL     1     -14.604 -43.250  -3.964  1.00  0.00     0.282 C 
HETATM    2  O6  UNL     1     -15.579 -43.613  -4.852  1.00  0.00    -0.338 OA
HETATM    3  C5  UNL     1     -15.699 -42.678  -5.834  1.00  0.00     0.152 C 
HETATM    4  C6  UNL     1     -15.210 -43.161  -7.182  1.00  0.00     0.042 C 
HETATM    5  C7  UNL     1     -15.043 -41.410  -5.388  1.00  0.00     0.171 C 
HETATM    6  C8  UNL     1     -14.214 -41.825  -4.230  1.00  0.00     0.187 C 
HETATM    7 CL1  UNL     1     -14.412 -40.779  -2.812  1.00  0.00    -0.116 Cl
ENDROOT
BRANCH   1   8
HETATM    8  C2  UNL     1     -13.370 -44.074  -4.078  1.00  0.00     0.324 C 
HETATM    9  O2  UNL     1     -12.259 -43.512  -3.902  1.00  0.00    -0.259 OA
BRANCH   8  10
HETATM   10  O1  UNL     1     -13.356 -45.424  -4.367  1.00  0.00    -0.322 OA
HETATM   11  C1  UNL     1     -12.964 -46.380  -3.379  1.00  0.00     0.213 C 
ENDBRANCH   8  10
ENDBRANCH   1   8
BRANCH   1  12
HETATM   12  O3  UNL     1     -15.033 -43.409  -2.606  1.00  0.00    -0.265 OA
BRANCH  12  13
HETATM   13  C4  UNL     1     -15.998 -44.324  -2.247  1.00  0.00     0.285 C 
HETATM   14  N1  UNL     1     -16.714 -44.067  -1.223  1.00  0.00    -0.227 N 
ATOM     15  H1  UNL     1     -16.540 -43.198  -0.717  1.00  0.00     0.198 HD
BRANCH  13  16
HETATM   16  O4  UNL     1     -16.244 -45.509  -2.925  1.00  0.00    -0.325 OA
ATOM     17  H4  UNL     1     -16.868 -46.169  -2.644  1.00  0.00     0.221 HD
ENDBRANCH  13  16
BRANCH  14  18
HETATM   18  O5  UNL     1     -17.691 -44.887  -0.774  1.00  0.00    -0.286 OA
ATOM     19  H5  UNL     1     -18.359 -44.615  -0.157  1.00  0.00     0.244 HD
ENDBRANCH  14  18
ENDBRANCH  12  13
ENDBRANCH   1  12
BRANCH   5  20
HETATM   20  O7  UNL     1     -14.283 -40.878  -6.423  1.00  0.00    -0.391 OA
ATOM     21  H7  UNL     1     -14.041 -39.981  -6.221  1.00  0.00     0.210 HD
ENDBRANCH   5  20
TORSDOF 7
ENDMDL
MODEL 4
REMARK VINA RESULT: -5.557084662      3.367      5.035
REMARK  7 active torsions:
REMARK  status: ('A' for Active; 'I' for Inactive)
REMARK    1  A    between atoms: O1_2  and  C2_3 
REMARK    2  A    between atoms: C2_3  and  C3_5 
REMARK    3  A    between atoms: C3_5  and  O3_6 
REMARK    4  A    between atoms: O3_6  and  C4_7 
REMARK    5  A    between atoms: C4_7  and  O4_8 
REMARK    6  A    between atoms: N1_10  and  O5_12 
REMARK    7  A    between atoms: C7_17  and  O7_18 
ROOT
HETATM    1  C3  UNL     1     -15.107 -43.310  -3.906  1.00  0.00     0.282 C 
HETATM    2  O6  UNL     1     -15.241 -44.172  -4.959  1.00  0.00    -0.338 OA
HETATM    3  C5  UNL     1     -16.557 -44.378  -5.239  1.00  0.00     0.152 C 
HETATM    4  C6  UNL     1     -16.993 -43.753  -6.547  1.00  0.00     0.042 C 
HETATM    5  C7  UNL     1     -17.383 -43.942  -4.071  1.00  0.00     0.171 C 
HETATM    6  C8  UNL     1     -16.449 -43.122  -3.261  1.00  0.00     0.187 C 
HETATM    7 CL1  UNL     1     -16.454 -43.547  -1.539  1.00  0.00    -0.116 Cl
ENDROOT
BRANCH   1   8
HETATM    8  C2  UNL     1     -14.618 -41.964  -4.308  1.00  0.00     0.324 C 
HETATM    9  O2  UNL     1     -13.425 -41.660  -4.053  1.00  0.00    -0.259 OA
BRANCH   8  10
HETATM   10  O1  UNL     1     -15.389 -41.012  -4.948  1.00  0.00    -0.322 OA
HETATM   11  C1  UNL     1     -15.187 -40.717  -6.332  1.00  0.00     0.213 C 
ENDBRANCH   8  10
ENDBRANCH   1   8
BRANCH   1  12
HETATM   12  O3  UNL     1     -14.151 -43.782  -2.948  1.00  0.00    -0.265 OA
BRANCH  12  13
HETATM   13  C4  UNL     1     -13.194 -44.719  -3.271  1.00  0.00     0.285 C 
HETATM   14  N1  UNL     1     -13.582 -45.908  -3.517  1.00  0.00    -0.227 N 
ATOM     15  H1  UNL     1     -14.579 -46.113  -3.463  1.00  0.00     0.198 HD
BRANCH  13  16
HETATM   16  O4  UNL     1     -11.834 -44.454  -3.347  1.00  0.00    -0.325 OA
ATOM     17  H4  UNL     1     -11.171 -45.105  -3.549  1.00  0.00     0.221 HD
ENDBRANCH  13  16
BRANCH  14  18
HETATM   18  O5  UNL     1     -12.737 -46.913  -3.845  1.00  0.00    -0.286 OA
ATOM     19  H5  UNL     1     -12.683 -47.728  -3.362  1.00  0.00     0.244 HD
ENDBRANCH  14  18
ENDBRANCH  12  13
ENDBRANCH   1  12
BRANCH   5  20
HETATM   20  O7  UNL     1     -18.483 -43.215  -4.512  1.00  0.00    -0.391 OA
ATOM     21  H7  UNL     1     -18.781 -43.552  -5.349  1.00  0.00     0.210 HD
ENDBRANCH   5  20
TORSDOF 7
ENDMDL
MODEL 5
REMARK VINA RESULT: -5.534086967      4.902      6.558
REMARK  7 active torsions:
REMARK  status: ('A' for Active; 'I' for Inactive)
REMARK    1  A    between atoms: O1_2  and  C2_3 
REMARK    2  A    between atoms: C2_3  and  C3_5 
REMARK    3  A    between atoms: C3_5  and  O3_6 
REMARK    4  A    between atoms: O3_6  and  C4_7 
REMARK    5  A    between atoms: C4_7  and  O4_8 
REMARK    6  A    between atoms: N1_10  and  O5_12 
REMARK    7  A    between atoms: C7_17  and  O7_18 
ROOT
HETATM    1  C3  UNL     1     -14.187 -46.320  -3.273  1.00  0.00     0.282 C 
HETATM    2  O6  UNL     1     -15.410 -46.589  -3.823  1.00  0.00    -0.338 OA
HETATM    3  C5  UNL     1     -15.901 -47.761  -3.337  1.00  0.00     0.152 C 
HETATM    4  C6  UNL     1     -17.089 -47.574  -2.417  1.00  0.00     0.042 C 
HETATM    5  C7  UNL     1     -14.788 -48.541  -2.714  1.00  0.00     0.171 C 
HETATM    6  C8  UNL     1     -13.702 -47.544  -2.552  1.00  0.00     0.187 C 
HETATM    7 CL1  UNL     1     -12.129 -48.115  -3.140  1.00  0.00    -0.116 Cl
ENDROOT
BRANCH   1   8
HETATM    8  C2  UNL     1     -14.219 -45.209  -2.284  1.00  0.00     0.324 C 
HETATM    9  O2  UNL     1     -13.139 -44.860  -1.743  1.00  0.00    -0.259 OA
BRANCH   8  10
HETATM   10  O1  UNL     1     -15.361 -44.526  -1.914  1.00  0.00    -0.322 OA
HETATM   11  C1  UNL     1     -15.605 -43.198  -2.386  1.00  0.00     0.213 C 
ENDBRANCH   8  10
ENDBRANCH   1   8
BRANCH   1  12
HETATM   12  O3  UNL     1     -13.234 -45.910  -4.263  1.00  0.00    -0.265 OA
BRANCH  12  13
HETATM   13  C4  UNL     1     -13.086 -44.591  -4.632  1.00  0.00     0.285 C 
HETATM   14  N1  UNL     1     -13.957 -44.089  -5.416  1.00  0.00    -0.227 N 
ATOM     15  H1  UNL     1     -14.723 -44.683  -5.734  1.00  0.00     0.198 HD
BRANCH  13  16
HETATM   16  O4  UNL     1     -12.050 -43.771  -4.208  1.00  0.00    -0.325 OA
ATOM     17  H4  UNL     1     -11.926 -43.485  -3.310  1.00  0.00     0.221 HD
ENDBRANCH  13  16
BRANCH  14  18
HETATM   18  O5  UNL     1     -13.918 -42.807  -5.847  1.00  0.00    -0.286 OA
ATOM     19  H5  UNL     1     -14.628 -42.190  -5.715  1.00  0.00     0.244 HD
ENDBRANCH  14  18
ENDBRANCH  12  13
ENDBRANCH   1  12
BRANCH   5  20
HETATM   20  O7  UNL     1     -15.204 -49.076  -1.500  1.00  0.00    -0.391 OA
ATOM     21  H7  UNL     1     -15.129 -48.423  -0.814  1.00  0.00     0.210 HD
ENDBRANCH   5  20
TORSDOF 7
ENDMDL
