MODEL 1
REMARK VINA RESULT: -7.664401195      0.000      0.000
REMARK  4 active torsions:
REMARK  status: ('A' for Active; 'I' for Inactive)
REMARK    1  A    between atoms: O1_2  and  C2_3 
REMARK       I    between atoms: C2_3  and  N1_5 
REMARK    2  A    between atoms: N2_7  and  N3_9 
REMARK    3  A    between atoms: N3_9  and  C3_11 
REMARK    4  A    between atoms: N5_21  and  O6_22 
ROOT
HETATM    1  C3  UNL     1     -16.167 -43.080  -8.760  1.00  0.00     0.157 C 
HETATM    2  C4  UNL     1     -16.645 -41.815  -9.125  1.00  0.00     0.126 C 
HETATM    3  C5  UNL     1     -17.442 -41.457 -10.205  1.00  0.00     0.252 C 
HETATM    4  O3  UNL     1     -17.618 -40.227 -10.357  1.00  0.00    -0.268 OA
HETATM    5  N4  UNL     1     -18.030 -42.287 -11.084  1.00  0.00    -0.286 N 
ATOM      6  H4  UNL     1     -18.361 -41.847 -11.943  1.00  0.00     0.172 HD
HETATM    7  C6  UNL     1     -18.247 -43.604 -10.998  1.00  0.00     0.318 C 
HETATM    8  O4  UNL     1     -19.078 -44.068 -11.825  1.00  0.00    -0.262 OA
HETATM    9  C7  UNL     1     -17.652 -44.496 -10.098  1.00  0.00     0.341 C 
HETATM   10  O5  UNL     1     -18.105 -45.647 -10.148  1.00  0.00    -0.259 OA
HETATM   11  N5  UNL     1     -16.672 -44.250  -9.209  1.00  0.00    -0.165 N 
ENDROOT
BRANCH   1  12
HETATM   12  N3  UNL     1     -15.056 -43.112  -7.871  1.00  0.00    -0.269 N 
ATOM     13  H3  UNL     1     -14.180 -42.678  -8.165  1.00  0.00     0.190 HD
BRANCH  12  14
HETATM   14  N2  UNL     1     -15.114 -43.705  -6.629  1.00  0.00    -0.237 N 
HETATM   15  N1  UNL     1     -14.142 -43.656  -5.855  1.00  0.00    -0.231 N 
HETATM   16  C2  UNL     1     -14.088 -44.230  -4.544  1.00  0.00     0.380 C 
ATOM     17  H1  UNL     1     -13.310 -43.165  -6.183  1.00  0.00     0.194 HD
HETATM   18  O2  UNL     1     -13.288 -45.134  -4.213  1.00  0.00    -0.237 OA
ATOM     19  H2  UNL     1     -15.964 -44.190  -6.340  1.00  0.00     0.208 HD
BRANCH  16  20
HETATM   20  O1  UNL     1     -14.968 -43.774  -3.545  1.00  0.00    -0.308 OA
HETATM   21  C1  UNL     1     -15.137 -42.420  -3.274  1.00  0.00     0.215 C 
ENDBRANCH  16  20
ENDBRANCH  12  14
ENDBRANCH   1  12
BRANCH  11  22
HETATM   22  O6  UNL     1     -16.108 -45.374  -8.696  1.00  0.00    -0.278 OA
ATOM     23  H6  UNL     1     -16.712 -46.068  -8.458  1.00  0.00     0.245 HD
ENDBRANCH  11  22
TORSDOF 4
ENDMDL
MODEL 2
REMARK VINA RESULT: -7.445281073      1.649      2.994
REMARK  4 active torsions:
REMARK  status: ('A' for Active; 'I' for Inactive)
REMARK    1  A    between atoms: O1_2  and  C2_3 
REMARK       I    between atoms: C2_3  and  N1_5 
REMARK    2  A    between atoms: N2_7  and  N3_9 
REMARK    3  A    between atoms: N3_9  and  C3_11 
REMARK    4  A    between atoms: N5_21  and  O6_22 
ROOT
HETATM    1  C3  UNL     1     -16.409 -43.709  -7.900  1.00  0.00     0.157 C 
HETATM    2  C4  UNL     1     -16.678 -44.776  -8.766  1.00  0.00     0.126 C 
HETATM    3  C5  UNL     1     -17.411 -44.785  -9.945  1.00  0.00     0.252 C 
HETATM    4  O3  UNL     1     -17.593 -45.914 -10.455  1.00  0.00    -0.268 OA
HETATM    5  N4  UNL     1     -17.936 -43.721 -10.578  1.00  0.00    -0.286 N 
ATOM      6  H4  UNL     1     -18.646 -43.937 -11.278  1.00  0.00     0.172 HD
HETATM    7  C6  UNL     1     -17.663 -42.420 -10.425  1.00  0.00     0.318 C 
HETATM    8  O4  UNL     1     -18.080 -41.671 -11.350  1.00  0.00    -0.262 OA
HETATM    9  C7  UNL     1     -16.974 -41.825  -9.361  1.00  0.00     0.341 C 
HETATM   10  O5  UNL     1     -16.754 -40.617  -9.510  1.00  0.00    -0.259 OA
HETATM   11  N5  UNL     1     -16.536 -42.404  -8.228  1.00  0.00    -0.165 N 
ENDROOT
BRANCH   1  12
HETATM   12  N3  UNL     1     -15.995 -44.044  -6.579  1.00  0.00    -0.269 N 
ATOM     13  H3  UNL     1     -16.611 -44.619  -6.005  1.00  0.00     0.190 HD
BRANCH  12  14
HETATM   14  N2  UNL     1     -14.797 -43.623  -6.046  1.00  0.00    -0.237 N 
HETATM   15  N1  UNL     1     -14.742 -43.162  -4.893  1.00  0.00    -0.231 N 
HETATM   16  C2  UNL     1     -13.557 -42.699  -4.234  1.00  0.00     0.380 C 
ATOM     17  H1  UNL     1     -15.616 -43.109  -4.370  1.00  0.00     0.194 HD
HETATM   18  O2  UNL     1     -13.389 -41.517  -3.857  1.00  0.00    -0.237 OA
ATOM     19  H2  UNL     1     -13.945 -43.690  -6.603  1.00  0.00     0.208 HD
BRANCH  16  20
HETATM   20  O1  UNL     1     -12.504 -43.596  -3.978  1.00  0.00    -0.308 OA
HETATM   21  C1  UNL     1     -12.724 -44.849  -3.415  1.00  0.00     0.215 C 
ENDBRANCH  16  20
ENDBRANCH  12  14
ENDBRANCH   1  12
BRANCH  11  22
HETATM   22  O6  UNL     1     -16.174 -41.514  -7.268  1.00  0.00    -0.278 OA
ATOM     23  H6  UNL     1     -16.878 -41.180  -6.726  1.00  0.00     0.245 HD
ENDBRANCH  11  22
TORSDOF 4
ENDMDL
MODEL 3
REMARK VINA RESULT: -7.394248008      1.377      1.704
REMARK  4 active torsions:
REMARK  status: ('A' for Active; 'I' for Inactive)
REMARK    1  A    between atoms: O1_2  and  C2_3 
REMARK       I    between atoms: C2_3  and  N1_5 
REMARK    2  A    between atoms: N2_7  and  N3_9 
REMARK    3  A    between atoms: N3_9  and  C3_11 
REMARK    4  A    between atoms: N5_21  and  O6_22 
ROOT
HETATM    1  C3  UNL     1     -16.538 -42.848  -7.508  1.00  0.00     0.157 C 
HETATM    2  C4  UNL     1     -16.710 -41.668  -8.243  1.00  0.00     0.126 C 
HETATM    3  C5  UNL     1     -16.956 -41.509  -9.600  1.00  0.00     0.252 C 
HETATM    4  O3  UNL     1     -16.945 -40.327 -10.012  1.00  0.00    -0.268 OA
HETATM    5  N4  UNL     1     -17.198 -42.482 -10.496  1.00  0.00    -0.286 N 
ATOM      6  H4  UNL     1     -17.105 -42.206 -11.474  1.00  0.00     0.172 HD
HETATM    7  C6  UNL     1     -17.545 -43.758 -10.294  1.00  0.00     0.318 C 
HETATM    8  O4  UNL     1     -17.998 -44.359 -11.306  1.00  0.00    -0.262 OA
HETATM    9  C7  UNL     1     -17.456 -44.473  -9.094  1.00  0.00     0.341 C 
HETATM   10  O5  UNL     1     -17.946 -45.609  -9.141  1.00  0.00    -0.259 OA
HETATM   11  N5  UNL     1     -16.913 -44.076  -7.929  1.00  0.00    -0.165 N 
ENDROOT
BRANCH   1  12
HETATM   12  N3  UNL     1     -15.900 -42.726  -6.240  1.00  0.00    -0.269 N 
ATOM     13  H3  UNL     1     -16.300 -42.088  -5.551  1.00  0.00     0.190 HD
BRANCH  12  14
HETATM   14  N2  UNL     1     -14.767 -43.433  -5.906  1.00  0.00    -0.237 N 
HETATM   15  N1  UNL     1     -14.332 -43.424  -4.741  1.00  0.00    -0.231 N 
HETATM   16  C2  UNL     1     -13.171 -44.121  -4.278  1.00  0.00     0.380 C 
ATOM     17  H1  UNL     1     -14.848 -42.872  -4.056  1.00  0.00     0.194 HD
HETATM   18  O2  UNL     1     -12.159 -43.551  -3.810  1.00  0.00    -0.237 OA
ATOM     19  H2  UNL     1     -14.277 -43.970  -6.623  1.00  0.00     0.208 HD
BRANCH  16  20
HETATM   20  O1  UNL     1     -13.130 -45.526  -4.334  1.00  0.00    -0.308 OA
HETATM   21  C1  UNL     1     -12.815 -46.299  -3.221  1.00  0.00     0.215 C 
ENDBRANCH  16  20
ENDBRANCH  12  14
ENDBRANCH   1  12
BRANCH  11  22
HETATM   22  O6  UNL     1     -16.712 -45.090  -7.049  1.00  0.00    -0.278 OA
ATOM     23  H6  UNL     1     -15.811 -45.369  -6.937  1.00  0.00     0.245 HD
ENDBRANCH  11  22
TORSDOF 4
ENDMDL
MODEL 4
REMARK VINA RESULT: -7.317087529      5.763      8.824
REMARK  4 active torsions:
REMARK  status: ('A' for Active; 'I' for Inactive)
REMARK    1  A    between atoms: O1_2  and  C2_3 
REMARK       I    between atoms: C2_3  and  N1_5 
REMARK    2  A    between atoms: N2_7  and  N3_9 
REMARK    3  A    between atoms: N3_9  and  C3_11 
REMARK    4  A    between atoms: N5_21  and  O6_22 
ROOT
HETATM    1  C3  UNL     1     -21.322 -39.880 -14.602  1.00  0.00     0.157 C 
HETATM    2  C4  UNL     1     -21.701 -40.456 -15.822  1.00  0.00     0.126 C 
HETATM    3  C5  UNL     1     -21.874 -39.852 -17.060  1.00  0.00     0.252 C 
HETATM    4  O3  UNL     1     -22.338 -40.592 -17.957  1.00  0.00    -0.268 OA
HETATM    5  N4  UNL     1     -21.597 -38.576 -17.382  1.00  0.00    -0.286 N 
ATOM      6  H4  UNL     1     -22.019 -38.246 -18.251  1.00  0.00     0.172 HD
HETATM    7  C6  UNL     1     -20.851 -37.677 -16.732  1.00  0.00     0.318 C 
HETATM    8  O4  UNL     1     -20.520 -36.664 -17.406  1.00  0.00    -0.262 OA
HETATM    9  C7  UNL     1     -20.411 -37.751 -15.405  1.00  0.00     0.341 C 
HETATM   10  O5  UNL     1     -19.639 -36.843 -15.073  1.00  0.00    -0.259 OA
HETATM   11  N5  UNL     1     -20.725 -38.674 -14.477  1.00  0.00    -0.165 N 
ENDROOT
BRANCH   1  12
HETATM   12  N3  UNL     1     -21.615 -40.623 -13.424  1.00  0.00    -0.269 N 
ATOM     13  H3  UNL     1     -22.580 -40.903 -13.249  1.00  0.00     0.190 HD
BRANCH  12  14
HETATM   14  N2  UNL     1     -20.648 -40.981 -12.510  1.00  0.00    -0.237 N 
HETATM   15  N1  UNL     1     -19.459 -41.096 -12.855  1.00  0.00    -0.231 N 
HETATM   16  C2  UNL     1     -18.371 -41.457 -11.997  1.00  0.00     0.380 C 
ATOM     17  H1  UNL     1     -19.239 -40.919 -13.835  1.00  0.00     0.194 HD
HETATM   18  O2  UNL     1     -17.683 -42.492 -12.144  1.00  0.00    -0.237 OA
ATOM     19  H2  UNL     1     -20.910 -41.153 -11.539  1.00  0.00     0.208 HD
BRANCH  16  20
HETATM   20  O1  UNL     1     -18.028 -40.624 -10.916  1.00  0.00    -0.308 OA
HETATM   21  C1  UNL     1     -17.191 -41.053  -9.892  1.00  0.00     0.215 C 
ENDBRANCH  16  20
ENDBRANCH  12  14
ENDBRANCH   1  12
BRANCH  11  22
HETATM   22  O6  UNL     1     -20.383 -38.312 -13.213  1.00  0.00    -0.278 OA
ATOM     23  H6  UNL     1     -20.396 -37.379 -13.032  1.00  0.00     0.245 HD
ENDBRANCH  11  22
TORSDOF 4
ENDMDL
MODEL 5
REMARK VINA RESULT: -7.223551110      1.327      1.342
REMARK  4 active torsions:
REMARK  status: ('A' for Active; 'I' for Inactive)
REMARK    1  A    between atoms: O1_2  and  C2_3 
REMARK       I    between atoms: C2_3  and  N1_5 
REMARK    2  A    between atoms: N2_7  and  N3_9 
REMARK    3  A    between atoms: N3_9  and  C3_11 
REMARK    4  A    between atoms: N5_21  and  O6_22 
ROOT
HETATM    1  C3  UNL     1     -16.312 -43.122  -9.136  1.00  0.00     0.157 C 
HETATM    2  C4  UNL     1     -16.884 -41.948  -9.642  1.00  0.00     0.126 C 
HETATM    3  C5  UNL     1     -17.799 -41.794 -10.675  1.00  0.00     0.252 C 
HETATM    4  O3  UNL     1     -18.049 -40.609 -10.997  1.00  0.00    -0.268 OA
HETATM    5  N4  UNL     1     -18.429 -42.772 -11.348  1.00  0.00    -0.286 N 
ATOM      6  H4  UNL     1     -18.863 -42.485 -12.227  1.00  0.00     0.172 HD
HETATM    7  C6  UNL     1     -18.572 -44.065 -11.037  1.00  0.00     0.318 C 
HETATM    8  O4  UNL     1     -19.457 -44.681 -11.690  1.00  0.00    -0.262 OA
HETATM    9  C7  UNL     1     -17.850 -44.782 -10.075  1.00  0.00     0.341 C 
HETATM   10  O5  UNL     1     -18.249 -45.940  -9.898  1.00  0.00    -0.259 OA
HETATM   11  N5  UNL     1     -16.801 -44.365  -9.342  1.00  0.00    -0.165 N 
ENDROOT
BRANCH   1  12
HETATM   12  N3  UNL     1     -15.119 -42.976  -8.373  1.00  0.00    -0.269 N 
ATOM     13  H3  UNL     1     -14.231 -42.881  -8.866  1.00  0.00     0.190 HD
BRANCH  12  14
HETATM   14  N2  UNL     1     -15.114 -42.957  -6.995  1.00  0.00    -0.237 N 
HETATM   15  N1  UNL     1     -14.696 -41.965  -6.375  1.00  0.00    -0.231 N 
HETATM   16  C2  UNL     1     -14.647 -41.830  -4.950  1.00  0.00     0.380 C 
ATOM     17  H1  UNL     1     -14.357 -41.178  -6.928  1.00  0.00     0.194 HD
HETATM   18  O2  UNL     1     -13.586 -41.688  -4.301  1.00  0.00    -0.237 OA
ATOM     19  H2  UNL     1     -15.458 -43.767  -6.479  1.00  0.00     0.208 HD
BRANCH  16  20
HETATM   20  O1  UNL     1     -15.840 -41.854  -4.204  1.00  0.00    -0.308 OA
HETATM   21  C1  UNL     1     -16.234 -42.975  -3.481  1.00  0.00     0.215 C 
ENDBRANCH  16  20
ENDBRANCH  12  14
ENDBRANCH   1  12
BRANCH  11  22
HETATM   22  O6  UNL     1     -16.136 -45.373  -8.722  1.00  0.00    -0.278 OA
ATOM     23  H6  UNL     1     -16.666 -46.114  -8.453  1.00  0.00     0.245 HD
ENDBRANCH  11  22
TORSDOF 4
ENDMDL
