MODEL 1
REMARK VINA RESULT: -7.187064569      0.000      0.000
REMARK  5 active torsions:
REMARK  status: ('A' for Active; 'I' for Inactive)
REMARK    1  A    between atoms: N1_1  and  O1_4 
REMARK    2  A    between atoms: O1_4  and  C1_5 
REMARK    3  A    between atoms: C2_14  and  N6_15 
REMARK    4  A    between atoms: N6_15  and  N7_17 
REMARK    5  A    between atoms: C3_19  and  C4_20 
ROOT
HETATM    1  C1  UNL     1     -14.426 -42.613  -5.334  1.00  0.00     0.232 A 
HETATM    2  N2  UNL     1     -14.606 -42.094  -4.082  1.00  0.00    -0.259 N 
ATOM      3  H2  UNL     1     -14.295 -42.605  -3.257  1.00  0.00     0.191 HD
HETATM    4  N3  UNL     1     -15.194 -40.913  -3.965  1.00  0.00    -0.226 N 
ATOM      5  H3  UNL     1     -15.337 -40.513  -3.038  1.00  0.00     0.210 HD
HETATM    6  N4  UNL     1     -15.600 -40.243  -5.035  1.00  0.00    -0.226 N 
ATOM      7  H4  UNL     1     -16.049 -39.335  -4.918  1.00  0.00     0.210 HD
HETATM    8  N5  UNL     1     -15.429 -40.743  -6.275  1.00  0.00    -0.265 N 
ATOM      9  H5  UNL     1     -15.748 -40.212  -7.086  1.00  0.00     0.190 HD
HETATM   10  C2  UNL     1     -14.842 -41.930  -6.446  1.00  0.00     0.191 A 
ENDROOT
BRANCH  10  11
HETATM   11  N6  UNL     1     -14.674 -42.413  -7.603  1.00  0.00    -0.281 N 
ATOM     12  H6  UNL     1     -13.795 -42.184  -8.068  1.00  0.00     0.188 HD
BRANCH  11  13
HETATM   13  N7  UNL     1     -15.548 -43.214  -8.304  1.00  0.00    -0.309 N 
HETATM   14  C3  UNL     1     -16.298 -42.674  -9.211  1.00  0.00     0.120 C 
ATOM     15  H7  UNL     1     -15.604 -44.213  -8.111  1.00  0.00     0.186 HD
BRANCH  14  16
HETATM   16  C4  UNL     1     -17.246 -43.459  -9.992  1.00  0.00     0.005 A 
HETATM   17  C5  UNL     1     -17.413 -44.817  -9.830  1.00  0.00     0.031 A 
HETATM   18  C6  UNL     1     -18.346 -45.489 -10.624  1.00  0.00     0.088 A 
HETATM   19  N8  UNL     1     -19.089 -44.859 -11.539  1.00  0.00    -0.374 N 
HETATM   20  C7  UNL     1     -18.944 -43.540 -11.713  1.00  0.00     0.112 A 
ATOM     21  H8  UNL     1     -19.762 -45.381 -12.100  1.00  0.00     0.164 HD
HETATM   22  C8  UNL     1     -18.019 -42.836 -10.936  1.00  0.00     0.061 A 
HETATM   23 CL1  UNL     1     -17.842 -41.118 -11.174  1.00  0.00    -0.082 Cl
ENDBRANCH  14  16
ENDBRANCH  11  13
ENDBRANCH  10  11
BRANCH   1  24
HETATM   24  O1  UNL     1     -13.816 -43.842  -5.463  1.00  0.00    -0.221 OA
BRANCH  24  25
HETATM   25  N1  UNL     1     -13.658 -44.613  -4.331  1.00  0.00    -0.303 N 
ATOM     26  H12 UNL     1     -13.335 -44.183  -3.464  1.00  0.00     0.184 HD
ATOM     27  H11 UNL     1     -13.870 -45.608  -4.391  1.00  0.00     0.184 HD
ENDBRANCH  24  25
ENDBRANCH   1  24
TORSDOF 5
ENDMDL
MODEL 2
REMARK VINA RESULT: -7.105738513      1.968      3.020
REMARK  5 active torsions:
REMARK  status: ('A' for Active; 'I' for Inactive)
REMARK    1  A    between atoms: N1_1  and  O1_4 
REMARK    2  A    between atoms: O1_4  and  C1_5 
REMARK    3  A    between atoms: C2_14  and  N6_15 
REMARK    4  A    between atoms: N6_15  and  N7_17 
REMARK    5  A    between atoms: C3_19  and  C4_20 
ROOT
HETATM    1  C1  UNL     1     -14.771 -42.308  -4.587  1.00  0.00     0.232 A 
HETATM    2  N2  UNL     1     -15.085 -42.088  -3.274  1.00  0.00    -0.259 N 
ATOM      3  H2  UNL     1     -14.975 -41.162  -2.861  1.00  0.00     0.191 HD
HETATM    4  N3  UNL     1     -15.533 -43.103  -2.551  1.00  0.00    -0.226 N 
ATOM      5  H3  UNL     1     -15.770 -42.955  -1.570  1.00  0.00     0.210 HD
HETATM    6  N4  UNL     1     -15.678 -44.309  -3.083  1.00  0.00    -0.226 N 
ATOM      7  H4  UNL     1     -16.025 -45.073  -2.505  1.00  0.00     0.210 HD
HETATM    8  N5  UNL     1     -15.372 -44.541  -4.375  1.00  0.00    -0.265 N 
ATOM      9  H5  UNL     1     -15.490 -45.476  -4.766  1.00  0.00     0.190 HD
HETATM   10  C2  UNL     1     -14.915 -43.550  -5.145  1.00  0.00     0.191 A 
ENDROOT
BRANCH  10  11
HETATM   11  N6  UNL     1     -14.624 -43.751  -6.360  1.00  0.00    -0.281 N 
ATOM     12  H6  UNL     1     -13.975 -44.515  -6.552  1.00  0.00     0.188 HD
BRANCH  11  13
HETATM   13  N7  UNL     1     -15.088 -43.051  -7.451  1.00  0.00    -0.309 N 
HETATM   14  C3  UNL     1     -16.316 -43.220  -7.824  1.00  0.00     0.120 C 
ATOM     15  H7  UNL     1     -14.475 -42.412  -7.957  1.00  0.00     0.186 HD
BRANCH  14  16
HETATM   16  C4  UNL     1     -16.875 -42.512  -8.970  1.00  0.00     0.005 A 
HETATM   17  C5  UNL     1     -16.895 -41.139  -9.071  1.00  0.00     0.031 A 
HETATM   18  C6  UNL     1     -17.452 -40.546 -10.207  1.00  0.00     0.088 A 
HETATM   19  N8  UNL     1     -17.970 -41.267 -11.206  1.00  0.00    -0.374 N 
HETATM   20  C7  UNL     1     -17.962 -42.603 -11.130  1.00  0.00     0.112 A 
ATOM     21  H8  UNL     1     -18.368 -40.801 -12.021  1.00  0.00     0.164 HD
HETATM   22  C8  UNL     1     -17.412 -43.230 -10.007  1.00  0.00     0.061 A 
HETATM   23 CL1  UNL     1     -17.408 -44.971  -9.922  1.00  0.00    -0.082 Cl
ENDBRANCH  14  16
ENDBRANCH  11  13
ENDBRANCH  10  11
BRANCH   1  24
HETATM   24  O1  UNL     1     -14.303 -41.257  -5.344  1.00  0.00    -0.221 OA
BRANCH  24  25
HETATM   25  N1  UNL     1     -15.191 -40.262  -5.697  1.00  0.00    -0.303 N 
ATOM     26  H12 UNL     1     -15.953 -40.466  -6.344  1.00  0.00     0.184 HD
ATOM     27  H11 UNL     1     -15.060 -39.335  -5.294  1.00  0.00     0.184 HD
ENDBRANCH  24  25
ENDBRANCH   1  24
TORSDOF 5
ENDMDL
MODEL 3
REMARK VINA RESULT: -7.077115759      5.865      7.917
REMARK  5 active torsions:
REMARK  status: ('A' for Active; 'I' for Inactive)
REMARK    1  A    between atoms: N1_1  and  O1_4 
REMARK    2  A    between atoms: O1_4  and  C1_5 
REMARK    3  A    between atoms: C2_14  and  N6_15 
REMARK    4  A    between atoms: N6_15  and  N7_17 
REMARK    5  A    between atoms: C3_19  and  C4_20 
ROOT
HETATM    1  C1  UNL     1     -18.984 -41.952 -11.790  1.00  0.00     0.232 A 
HETATM    2  N2  UNL     1     -18.046 -42.870 -11.406  1.00  0.00    -0.259 N 
ATOM      3  H2  UNL     1     -18.123 -43.845 -11.696  1.00  0.00     0.191 HD
HETATM    4  N3  UNL     1     -17.037 -42.466 -10.649  1.00  0.00    -0.226 N 
ATOM      5  H3  UNL     1     -16.331 -43.139 -10.353  1.00  0.00     0.210 HD
HETATM    6  N4  UNL     1     -16.932 -41.200 -10.269  1.00  0.00    -0.226 N 
ATOM      7  H4  UNL     1     -16.145 -40.914  -9.687  1.00  0.00     0.210 HD
HETATM    8  N5  UNL     1     -17.849 -40.284 -10.641  1.00  0.00    -0.265 N 
ATOM      9  H5  UNL     1     -17.751 -39.315 -10.338  1.00  0.00     0.190 HD
HETATM   10  C2  UNL     1     -18.885 -40.642 -11.403  1.00  0.00     0.191 A 
ENDROOT
BRANCH  10  11
HETATM   11  N6  UNL     1     -19.754 -39.794 -11.760  1.00  0.00    -0.281 N 
ATOM     12  H6  UNL     1     -20.074 -39.142 -11.044  1.00  0.00     0.188 HD
BRANCH  11  13
HETATM   13  N7  UNL     1     -20.315 -39.657 -13.011  1.00  0.00    -0.309 N 
HETATM   14  C3  UNL     1     -19.845 -38.752 -13.808  1.00  0.00     0.120 C 
ATOM     15  H7  UNL     1     -21.086 -40.257 -13.302  1.00  0.00     0.186 HD
BRANCH  14  16
HETATM   16  C4  UNL     1     -20.389 -38.550 -15.146  1.00  0.00     0.005 A 
HETATM   17  C5  UNL     1     -21.446 -39.277 -15.648  1.00  0.00     0.031 A 
HETATM   18  C6  UNL     1     -21.901 -39.015 -16.942  1.00  0.00     0.088 A 
HETATM   19  N8  UNL     1     -21.346 -38.078 -17.717  1.00  0.00    -0.374 N 
HETATM   20  C7  UNL     1     -20.319 -37.358 -17.251  1.00  0.00     0.112 A 
ATOM     21  H8  UNL     1     -21.705 -37.912 -18.658  1.00  0.00     0.164 HD
HETATM   22  C8  UNL     1     -19.837 -37.594 -15.960  1.00  0.00     0.061 A 
HETATM   23 CL1  UNL     1     -18.498 -36.649 -15.365  1.00  0.00    -0.082 Cl
ENDBRANCH  14  16
ENDBRANCH  11  13
ENDBRANCH  10  11
BRANCH   1  24
HETATM   24  O1  UNL     1     -20.037 -42.365 -12.577  1.00  0.00    -0.221 OA
BRANCH  24  25
HETATM   25  N1  UNL     1     -20.592 -43.602 -12.325  1.00  0.00    -0.303 N 
ATOM     26  H12 UNL     1     -21.604 -43.699 -12.245  1.00  0.00     0.184 HD
ATOM     27  H11 UNL     1     -19.965 -44.400 -12.223  1.00  0.00     0.184 HD
ENDBRANCH  24  25
ENDBRANCH   1  24
TORSDOF 5
ENDMDL
MODEL 4
REMARK VINA RESULT: -7.029432076      1.004      1.012
REMARK  5 active torsions:
REMARK  status: ('A' for Active; 'I' for Inactive)
REMARK    1  A    between atoms: N1_1  and  O1_4 
REMARK    2  A    between atoms: O1_4  and  C1_5 
REMARK    3  A    between atoms: C2_14  and  N6_15 
REMARK    4  A    between atoms: N6_15  and  N7_17 
REMARK    5  A    between atoms: C3_19  and  C4_20 
ROOT
HETATM    1  C1  UNL     1     -15.720 -42.933  -5.285  1.00  0.00     0.232 A 
HETATM    2  N2  UNL     1     -15.914 -41.996  -4.307  1.00  0.00    -0.259 N 
ATOM      3  H2  UNL     1     -16.324 -42.256  -3.411  1.00  0.00     0.191 HD
HETATM    4  N3  UNL     1     -15.558 -40.744  -4.551  1.00  0.00    -0.226 N 
ATOM      5  H3  UNL     1     -15.697 -40.034  -3.832  1.00  0.00     0.210 HD
HETATM    6  N4  UNL     1     -15.023 -40.399  -5.714  1.00  0.00    -0.226 N 
ATOM      7  H4  UNL     1     -14.757 -39.429  -5.876  1.00  0.00     0.210 HD
HETATM    8  N5  UNL     1     -14.826 -41.312  -6.686  1.00  0.00    -0.265 N 
ATOM      9  H5  UNL     1     -14.414 -41.028  -7.575  1.00  0.00     0.190 HD
HETATM   10  C2  UNL     1     -15.169 -42.587  -6.490  1.00  0.00     0.191 A 
ENDROOT
BRANCH  10  11
HETATM   11  N6  UNL     1     -14.991 -43.456  -7.393  1.00  0.00    -0.281 N 
ATOM     12  H6  UNL     1     -14.036 -43.796  -7.514  1.00  0.00     0.188 HD
BRANCH  11  13
HETATM   13  N7  UNL     1     -15.944 -43.993  -8.229  1.00  0.00    -0.309 N 
HETATM   14  C3  UNL     1     -16.407 -43.265  -9.194  1.00  0.00     0.120 C 
ATOM     15  H7  UNL     1     -16.280 -44.945  -8.089  1.00  0.00     0.186 HD
BRANCH  14  16
HETATM   16  C4  UNL     1     -17.417 -43.766 -10.118  1.00  0.00     0.005 A 
HETATM   17  C5  UNL     1     -17.777 -45.094 -10.194  1.00  0.00     0.031 A 
HETATM   18  C6  UNL     1     -18.756 -45.484 -11.111  1.00  0.00     0.088 A 
HETATM   19  N8  UNL     1     -19.362 -44.612 -11.922  1.00  0.00    -0.374 N 
HETATM   20  C7  UNL     1     -19.029 -43.317 -11.866  1.00  0.00     0.112 A 
ATOM     21  H8  UNL     1     -20.074 -44.931 -12.579  1.00  0.00     0.164 HD
HETATM   22  C8  UNL     1     -18.053 -42.890 -10.960  1.00  0.00     0.061 A 
HETATM   23 CL1  UNL     1     -17.630 -41.200 -10.898  1.00  0.00    -0.082 Cl
ENDBRANCH  14  16
ENDBRANCH  11  13
ENDBRANCH  10  11
BRANCH   1  24
HETATM   24  O1  UNL     1     -16.089 -44.237  -5.039  1.00  0.00    -0.221 OA
BRANCH  24  25
HETATM   25  N1  UNL     1     -15.316 -44.980  -4.171  1.00  0.00    -0.303 N 
ATOM     26  H12 UNL     1     -15.194 -44.672  -3.206  1.00  0.00     0.184 HD
ATOM     27  H11 UNL     1     -14.879 -45.832  -4.523  1.00  0.00     0.184 HD
ENDBRANCH  24  25
ENDBRANCH   1  24
TORSDOF 5
ENDMDL
MODEL 5
REMARK VINA RESULT: -7.015408963      3.442      5.258
REMARK  5 active torsions:
REMARK  status: ('A' for Active; 'I' for Inactive)
REMARK    1  A    between atoms: N1_1  and  O1_4 
REMARK    2  A    between atoms: O1_4  and  C1_5 
REMARK    3  A    between atoms: C2_14  and  N6_15 
REMARK    4  A    between atoms: N6_15  and  N7_17 
REMARK    5  A    between atoms: C3_19  and  C4_20 
ROOT
HETATM    1  C1  UNL     1     -17.210 -44.183  -9.857  1.00  0.00     0.232 A 
HETATM    2  N2  UNL     1     -16.713 -44.931  -8.826  1.00  0.00    -0.259 N 
ATOM      3  H2  UNL     1     -17.014 -45.896  -8.690  1.00  0.00     0.191 HD
HETATM    4  N3  UNL     1     -15.832 -44.375  -8.008  1.00  0.00    -0.226 N 
ATOM      5  H3  UNL     1     -15.453 -44.919  -7.233  1.00  0.00     0.210 HD
HETATM    6  N4  UNL     1     -15.436 -43.121  -8.180  1.00  0.00    -0.226 N 
ATOM      7  H4  UNL     1     -14.757 -42.717  -7.537  1.00  0.00     0.210 HD
HETATM    8  N5  UNL     1     -15.918 -42.373  -9.192  1.00  0.00    -0.265 N 
ATOM      9  H5  UNL     1     -15.602 -41.410  -9.308  1.00  0.00     0.190 HD
HETATM   10  C2  UNL     1     -16.809 -42.887 -10.044  1.00  0.00     0.191 A 
ENDROOT
BRANCH  10  11
HETATM   11  N6  UNL     1     -17.271 -42.197 -10.999  1.00  0.00    -0.281 N 
ATOM     12  H6  UNL     1     -16.592 -41.668 -11.546  1.00  0.00     0.188 HD
BRANCH  11  13
HETATM   13  N7  UNL     1     -18.589 -42.084 -11.379  1.00  0.00    -0.309 N 
HETATM   14  C3  UNL     1     -18.863 -41.557 -12.529  1.00  0.00     0.120 C 
ATOM     15  H7  UNL     1     -19.336 -42.410 -10.766  1.00  0.00     0.186 HD
BRANCH  14  16
HETATM   16  C4  UNL     1     -20.236 -41.405 -12.997  1.00  0.00     0.005 A 
HETATM   17  C5  UNL     1     -21.299 -42.088 -12.449  1.00  0.00     0.031 A 
HETATM   18  C6  UNL     1     -22.581 -41.880 -12.962  1.00  0.00     0.088 A 
HETATM   19  N8  UNL     1     -22.817 -41.036 -13.972  1.00  0.00    -0.374 N 
HETATM   20  C7  UNL     1     -21.800 -40.362 -14.521  1.00  0.00     0.112 A 
ATOM     21  H8  UNL     1     -23.767 -40.908 -14.322  1.00  0.00     0.164 HD
HETATM   22  C8  UNL     1     -20.503 -40.546 -14.032  1.00  0.00     0.061 A 
HETATM   23 CL1  UNL     1     -19.187 -39.660 -14.756  1.00  0.00    -0.082 Cl
ENDBRANCH  14  16
ENDBRANCH  11  13
ENDBRANCH  10  11
BRANCH   1  24
HETATM   24  O1  UNL     1     -18.128 -44.755 -10.712  1.00  0.00    -0.221 OA
BRANCH  24  25
HETATM   25  N1  UNL     1     -18.021 -46.105 -10.974  1.00  0.00    -0.303 N 
ATOM     26  H12 UNL     1     -17.858 -46.760 -10.210  1.00  0.00     0.184 HD
ATOM     27  H11 UNL     1     -18.109 -46.416 -11.941  1.00  0.00     0.184 HD
ENDBRANCH  24  25
ENDBRANCH   1  24
TORSDOF 5
ENDMDL
