MODEL 1
REMARK VINA RESULT: -7.413618589      0.000      0.000
REMARK  2 active torsions:
REMARK  status: ('A' for Active; 'I' for Inactive)
REMARK    1  A    between atoms: C4_11  and  N5_12 
REMARK    2  A    between atoms: C6_19  and  C7_20 
ROOT
HETATM    1  C1  UNL     1     -25.716 -42.038 -14.517  1.00  0.00     0.202 C 
HETATM    2  N1  UNL     1     -24.459 -41.311 -14.549  1.00  0.00    -0.223 N 
HETATM    3  N2  UNL     1     -23.489 -41.441 -13.666  1.00  0.00    -0.225 N 
ATOM      4  H2  UNL     1     -23.516 -42.067 -12.861  1.00  0.00     0.210 HD
HETATM    5  N3  UNL     1     -22.485 -40.653 -13.964  1.00  0.00    -0.267 N 
ATOM      6  H3  UNL     1     -21.615 -40.564 -13.441  1.00  0.00     0.190 HD
HETATM    7  C2  UNL     1     -22.808 -39.986 -15.078  1.00  0.00     0.166 A 
HETATM    8  C3  UNL     1     -22.013 -39.003 -15.783  1.00  0.00     0.113 A 
HETATM    9  N4  UNL     1     -22.466 -38.397 -16.912  1.00  0.00    -0.187 N 
ATOM     10  H4  UNL     1     -23.392 -38.651 -17.258  1.00  0.00     0.184 HD
HETATM   11  C4  UNL     1     -21.759 -37.480 -17.596  1.00  0.00     0.677 A 
HETATM   12  N6  UNL     1     -20.538 -37.131 -17.157  1.00  0.00    -0.180 N 
ATOM     13  H6  UNL     1     -19.993 -36.437 -17.668  1.00  0.00     0.185 HD
HETATM   14  C5  UNL     1     -20.039 -37.688 -16.060  1.00  0.00     0.135 A 
HETATM   15 CL1  UNL     1     -18.437 -37.252 -15.458  1.00  0.00    -0.063 Cl
HETATM   16  C6  UNL     1     -20.761 -38.643 -15.337  1.00  0.00     0.080 A 
HETATM   17  N11 UNL     1     -24.034 -40.414 -15.415  1.00  0.00    -0.265 N 
ATOM     18  H11 UNL     1     -24.562 -40.091 -16.225  1.00  0.00     0.190 HD
ENDROOT
BRANCH  16  19
HETATM   19  C7  UNL     1     -20.145 -39.214 -14.140  1.00  0.00     0.147 A 
HETATM   20  N7  UNL     1     -19.393 -40.329 -14.070  1.00  0.00    -0.270 N 
HETATM   21  N8  UNL     1     -19.011 -40.513 -12.815  1.00  0.00    -0.007 NA
ATOM     22  H7  UNL     1     -19.155 -40.933 -14.857  1.00  0.00     0.185 HD
HETATM   23  N9  UNL     1     -19.498 -39.544 -12.061  1.00  0.00    -0.007 NA
HETATM   24  N10 UNL     1     -20.188 -38.753 -12.867  1.00  0.00    -0.270 N 
ATOM     25  H10 UNL     1     -20.684 -37.913 -12.570  1.00  0.00     0.185 HD
ENDBRANCH  16  19
BRANCH  11  26
HETATM   26  N5  UNL     1     -22.284 -36.952 -18.673  1.00  0.00    -0.234 N 
ATOM     27  H52 UNL     1     -22.929 -36.162 -18.626  1.00  0.00     0.174 HD
ATOM     28  H51 UNL     1     -22.040 -37.343 -19.582  1.00  0.00     0.174 HD
ENDBRANCH  11  26
TORSDOF 2
ENDMDL
MODEL 2
REMARK VINA RESULT: -7.382615204      2.265      4.367
REMARK  2 active torsions:
REMARK  status: ('A' for Active; 'I' for Inactive)
REMARK    1  A    between atoms: C4_11  and  N5_12 
REMARK    2  A    between atoms: C6_19  and  C7_20 
ROOT
HETATM    1  C1  UNL     1     -24.350 -39.675 -18.916  1.00  0.00     0.202 C 
HETATM    2  N1  UNL     1     -23.432 -39.628 -17.792  1.00  0.00    -0.223 N 
HETATM    3  N2  UNL     1     -22.570 -38.657 -17.561  1.00  0.00    -0.225 N 
ATOM      4  H2  UNL     1     -22.454 -37.832 -18.149  1.00  0.00     0.210 HD
HETATM    5  N3  UNL     1     -21.883 -38.900 -16.471  1.00  0.00    -0.267 N 
ATOM      6  H3  UNL     1     -21.155 -38.306 -16.075  1.00  0.00     0.190 HD
HETATM    7  C2  UNL     1     -22.308 -40.066 -15.973  1.00  0.00     0.166 A 
HETATM    8  C3  UNL     1     -21.842 -40.743 -14.781  1.00  0.00     0.113 A 
HETATM    9  N4  UNL     1     -22.365 -41.934 -14.387  1.00  0.00    -0.187 N 
ATOM     10  H4  UNL     1     -23.103 -42.349 -14.955  1.00  0.00     0.184 HD
HETATM   11  C4  UNL     1     -21.960 -42.593 -13.287  1.00  0.00     0.677 A 
HETATM   12  N6  UNL     1     -20.989 -42.064 -12.524  1.00  0.00    -0.180 N 
ATOM     13  H6  UNL     1     -20.674 -42.555 -11.688  1.00  0.00     0.185 HD
HETATM   14  C5  UNL     1     -20.438 -40.902 -12.857  1.00  0.00     0.135 A 
HETATM   15 CL1  UNL     1     -19.160 -40.180 -11.875  1.00  0.00    -0.063 Cl
HETATM   16  C6  UNL     1     -20.848 -40.204 -13.997  1.00  0.00     0.080 A 
HETATM   17  N11 UNL     1     -23.265 -40.492 -16.812  1.00  0.00    -0.265 N 
ATOM     18  H11 UNL     1     -23.789 -41.360 -16.706  1.00  0.00     0.190 HD
ENDROOT
BRANCH  16  19
HETATM   19  C7  UNL     1     -20.195 -38.929 -14.297  1.00  0.00     0.147 A 
HETATM   20  N7  UNL     1     -20.563 -37.710 -13.860  1.00  0.00    -0.270 N 
HETATM   21  N8  UNL     1     -19.720 -36.808 -14.341  1.00  0.00    -0.007 NA
ATOM     22  H7  UNL     1     -21.361 -37.513 -13.256  1.00  0.00     0.185 HD
HETATM   23  N9  UNL     1     -18.809 -37.410 -15.084  1.00  0.00    -0.007 NA
HETATM   24  N10 UNL     1     -19.098 -38.701 -15.058  1.00  0.00    -0.270 N 
ATOM     25  H10 UNL     1     -18.567 -39.424 -15.543  1.00  0.00     0.185 HD
ENDBRANCH  16  19
BRANCH  11  26
HETATM   26  N5  UNL     1     -22.526 -43.736 -12.992  1.00  0.00    -0.234 N 
ATOM     27  H52 UNL     1     -23.235 -43.814 -12.263  1.00  0.00     0.174 HD
ATOM     28  H51 UNL     1     -22.246 -44.571 -13.507  1.00  0.00     0.174 HD
ENDBRANCH  11  26
TORSDOF 2
ENDMDL
MODEL 3
REMARK VINA RESULT: -6.880763236      7.609     10.293
REMARK  2 active torsions:
REMARK  status: ('A' for Active; 'I' for Inactive)
REMARK    1  A    between atoms: C4_11  and  N5_12 
REMARK    2  A    between atoms: C6_19  and  C7_20 
ROOT
HETATM    1  C1  UNL     1     -18.121 -41.963 -12.782  1.00  0.00     0.202 C 
HETATM    2  N1  UNL     1     -17.692 -42.224 -11.420  1.00  0.00    -0.223 N 
HETATM    3  N2  UNL     1     -16.944 -41.416 -10.695  1.00  0.00    -0.225 N 
ATOM      4  H2  UNL     1     -16.583 -40.517 -11.014  1.00  0.00     0.210 HD
HETATM    5  N3  UNL     1     -16.727 -41.928  -9.508  1.00  0.00    -0.267 N 
ATOM      6  H3  UNL     1     -16.179 -41.503  -8.761  1.00  0.00     0.190 HD
HETATM    7  C2  UNL     1     -17.352 -43.109  -9.454  1.00  0.00     0.166 A 
HETATM    8  C3  UNL     1     -17.396 -44.038  -8.345  1.00  0.00     0.113 A 
HETATM    9  N4  UNL     1     -18.075 -45.213  -8.425  1.00  0.00    -0.187 N 
ATOM     10  H4  UNL     1     -18.560 -45.432  -9.295  1.00  0.00     0.184 HD
HETATM   11  C4  UNL     1     -18.139 -46.102  -7.418  1.00  0.00     0.677 A 
HETATM   12  N6  UNL     1     -17.507 -45.834  -6.263  1.00  0.00    -0.180 N 
ATOM     13  H6  UNL     1     -17.549 -46.501  -5.493  1.00  0.00     0.185 HD
HETATM   14  C5  UNL     1     -16.826 -44.702  -6.123  1.00  0.00     0.135 A 
HETATM   15 CL1  UNL     1     -15.984 -44.320  -4.618  1.00  0.00    -0.063 Cl
HETATM   16  C6  UNL     1     -16.750 -43.767  -7.160  1.00  0.00     0.080 A 
HETATM   17  N11 UNL     1     -17.940 -43.264 -10.651  1.00  0.00    -0.265 N 
ATOM     18  H11 UNL     1     -18.498 -44.072 -10.925  1.00  0.00     0.190 HD
ENDROOT
BRANCH  16  19
HETATM   19  C7  UNL     1     -15.983 -42.542  -6.930  1.00  0.00     0.147 A 
HETATM   20  N7  UNL     1     -16.451 -41.374  -6.452  1.00  0.00    -0.270 N 
HETATM   21  N8  UNL     1     -15.451 -40.507  -6.379  1.00  0.00    -0.007 NA
ATOM     22  H7  UNL     1     -17.418 -41.186  -6.189  1.00  0.00     0.185 HD
HETATM   23  N9  UNL     1     -14.339 -41.083  -6.800  1.00  0.00    -0.007 NA
HETATM   24  N10 UNL     1     -14.663 -42.322  -7.135  1.00  0.00    -0.270 N 
ATOM     25  H10 UNL     1     -14.008 -43.014  -7.498  1.00  0.00     0.185 HD
ENDBRANCH  16  19
BRANCH  11  26
HETATM   26  N5  UNL     1     -18.818 -47.208  -7.594  1.00  0.00    -0.234 N 
ATOM     27  H52 UNL     1     -18.989 -47.593  -8.523  1.00  0.00     0.174 HD
ATOM     28  H51 UNL     1     -19.185 -47.694  -6.777  1.00  0.00     0.174 HD
ENDBRANCH  11  26
TORSDOF 2
ENDMDL
MODEL 4
REMARK VINA RESULT: -6.620076802     10.261     12.780
REMARK  2 active torsions:
REMARK  status: ('A' for Active; 'I' for Inactive)
REMARK    1  A    between atoms: C4_11  and  N5_12 
REMARK    2  A    between atoms: C6_19  and  C7_20 
ROOT
HETATM    1  C1  UNL     1     -16.447 -47.709  -2.058  1.00  0.00     0.202 C 
HETATM    2  N1  UNL     1     -16.397 -46.685  -3.087  1.00  0.00    -0.223 N 
HETATM    3  N2  UNL     1     -16.799 -46.846  -4.333  1.00  0.00    -0.225 N 
ATOM      4  H2  UNL     1     -17.189 -47.710  -4.710  1.00  0.00     0.210 HD
HETATM    5  N3  UNL     1     -16.626 -45.743  -5.019  1.00  0.00    -0.267 N 
ATOM      6  H3  UNL     1     -16.856 -45.605  -6.003  1.00  0.00     0.190 HD
HETATM    7  C2  UNL     1     -16.095 -44.831  -4.198  1.00  0.00     0.166 A 
HETATM    8  C3  UNL     1     -15.730 -43.465  -4.509  1.00  0.00     0.113 A 
HETATM    9  N4  UNL     1     -15.194 -42.640  -3.571  1.00  0.00    -0.187 N 
ATOM     10  H4  UNL     1     -15.052 -43.006  -2.630  1.00  0.00     0.184 HD
HETATM   11  C4  UNL     1     -14.842 -41.366  -3.820  1.00  0.00     0.677 A 
HETATM   12  N6  UNL     1     -15.021 -40.864  -5.053  1.00  0.00    -0.180 N 
ATOM     13  H6  UNL     1     -14.758 -39.899  -5.252  1.00  0.00     0.185 HD
HETATM   14  C5  UNL     1     -15.540 -41.620  -6.012  1.00  0.00     0.135 A 
HETATM   15 CL1  UNL     1     -15.789 -40.990  -7.643  1.00  0.00    -0.063 Cl
HETATM   16  C6  UNL     1     -15.912 -42.947  -5.771  1.00  0.00     0.080 A 
HETATM   17  N11 UNL     1     -15.965 -45.444  -3.011  1.00  0.00    -0.265 N 
ATOM     18  H11 UNL     1     -15.585 -45.010  -2.170  1.00  0.00     0.190 HD
ENDROOT
BRANCH  16  19
HETATM   19  C7  UNL     1     -16.479 -43.718  -6.877  1.00  0.00     0.147 A 
HETATM   20  N7  UNL     1     -17.784 -43.860  -7.178  1.00  0.00    -0.270 N 
HETATM   21  N8  UNL     1     -17.897 -44.625  -8.254  1.00  0.00    -0.007 NA
ATOM     22  H7  UNL     1     -18.560 -43.445  -6.662  1.00  0.00     0.185 HD
HETATM   23  N9  UNL     1     -16.694 -44.988  -8.663  1.00  0.00    -0.007 NA
HETATM   24  N10 UNL     1     -15.832 -44.436  -7.825  1.00  0.00    -0.270 N 
ATOM     25  H10 UNL     1     -14.818 -44.537  -7.885  1.00  0.00     0.185 HD
ENDBRANCH  16  19
BRANCH  11  26
HETATM   26  N5  UNL     1     -14.332 -40.651  -2.849  1.00  0.00    -0.234 N 
ATOM     27  H52 UNL     1     -13.583 -39.977  -3.012  1.00  0.00     0.174 HD
ATOM     28  H51 UNL     1     -14.695 -40.774  -1.904  1.00  0.00     0.174 HD
ENDBRANCH  11  26
TORSDOF 2
ENDMDL
MODEL 5
REMARK VINA RESULT: -6.598975178      2.312      4.637
REMARK  2 active torsions:
REMARK  status: ('A' for Active; 'I' for Inactive)
REMARK    1  A    between atoms: C4_11  and  N5_12 
REMARK    2  A    between atoms: C6_19  and  C7_20 
ROOT
HETATM    1  C1  UNL     1     -18.166 -42.974 -10.941  1.00  0.00     0.202 C 
HETATM    2  N1  UNL     1     -18.896 -42.117 -11.858  1.00  0.00    -0.223 N 
HETATM    3  N2  UNL     1     -18.521 -40.906 -12.221  1.00  0.00    -0.225 N 
ATOM      4  H2  UNL     1     -17.675 -40.439 -11.896  1.00  0.00     0.210 HD
HETATM    5  N3  UNL     1     -19.386 -40.386 -13.057  1.00  0.00    -0.267 N 
ATOM      6  H3  UNL     1     -19.328 -39.463 -13.486  1.00  0.00     0.190 HD
HETATM    7  C2  UNL     1     -20.359 -41.284 -13.247  1.00  0.00     0.166 A 
HETATM    8  C3  UNL     1     -21.531 -41.157 -14.087  1.00  0.00     0.113 A 
HETATM    9  N4  UNL     1     -22.447 -42.155 -14.189  1.00  0.00    -0.187 N 
ATOM     10  H4  UNL     1     -22.292 -43.010 -13.654  1.00  0.00     0.184 HD
HETATM   11  C4  UNL     1     -23.548 -42.075 -14.957  1.00  0.00     0.677 A 
HETATM   12  N6  UNL     1     -23.772 -40.958 -15.670  1.00  0.00    -0.180 N 
ATOM     13  H6  UNL     1     -24.604 -40.887 -16.256  1.00  0.00     0.185 HD
HETATM   14  C5  UNL     1     -22.913 -39.947 -15.613  1.00  0.00     0.135 A 
HETATM   15 CL1  UNL     1     -23.179 -38.466 -16.537  1.00  0.00    -0.063 Cl
HETATM   16  C6  UNL     1     -21.764 -40.014 -14.819  1.00  0.00     0.080 A 
HETATM   17  N11 UNL     1     -20.027 -42.344 -12.492  1.00  0.00    -0.265 N 
ATOM     18  H11 UNL     1     -20.574 -43.201 -12.420  1.00  0.00     0.190 HD
ENDROOT
BRANCH  16  19
HETATM   19  C7  UNL     1     -20.863 -38.861 -14.809  1.00  0.00     0.147 A 
HETATM   20  N7  UNL     1     -19.853 -38.617 -15.665  1.00  0.00    -0.270 N 
HETATM   21  N8  UNL     1     -19.277 -37.470 -15.335  1.00  0.00    -0.007 NA
ATOM     22  H7  UNL     1     -19.577 -39.217 -16.442  1.00  0.00     0.185 HD
HETATM   23  N9  UNL     1     -19.887 -36.960 -14.280  1.00  0.00    -0.007 NA
HETATM   24  N10 UNL     1     -20.852 -37.806 -13.960  1.00  0.00    -0.270 N 
ATOM     25  H10 UNL     1     -21.499 -37.681 -13.181  1.00  0.00     0.185 HD
ENDBRANCH  16  19
BRANCH  11  26
HETATM   26  N5  UNL     1     -24.373 -43.092 -14.987  1.00  0.00    -0.234 N 
ATOM     27  H52 UNL     1     -24.095 -43.999 -15.362  1.00  0.00     0.174 HD
ATOM     28  H51 UNL     1     -25.318 -42.969 -14.625  1.00  0.00     0.174 HD
ENDBRANCH  11  26
TORSDOF 2
ENDMDL
