MODEL 1
REMARK VINA RESULT: -7.106422642      0.000      0.000
REMARK  3 active torsions:
REMARK  status: ('A' for Active; 'I' for Inactive)
REMARK    1  A    between atoms: C4_8  and  N4_9 
REMARK    2  A    between atoms: N4_9  and  N5_11 
REMARK    3  A    between atoms: C8_23  and  N9_24 
ROOT
HETATM    1  N1  UNL     1     -25.083 -38.766 -14.748  1.00  0.00    -0.193 NA
HETATM    2  C1  UNL     1     -24.122 -39.344 -15.027  1.00  0.00     0.114 C 
HETATM    3  C2  UNL     1     -22.861 -40.078 -15.372  1.00  0.00     0.268 A 
HETATM    4  C3  UNL     1     -23.304 -41.072 -16.370  1.00  0.00     0.114 C 
HETATM    5  N2  UNL     1     -23.635 -41.864 -17.161  1.00  0.00    -0.193 NA
HETATM    6  N3  UNL     1     -22.312 -40.686 -14.223  1.00  0.00    -0.183 N 
ATOM      7  H3  UNL     1     -22.885 -41.376 -13.738  1.00  0.00     0.181 HD
HETATM    8  C4  UNL     1     -21.167 -40.443 -13.750  1.00  0.00     0.700 A 
HETATM    9  N6  UNL     1     -20.279 -39.502 -14.340  1.00  0.00    -0.184 N 
ATOM     10  H6  UNL     1     -19.358 -39.323 -13.938  1.00  0.00     0.184 HD
HETATM   11  C5  UNL     1     -20.716 -38.817 -15.512  1.00  0.00     0.122 A 
HETATM   12  C6  UNL     1     -21.962 -39.101 -16.002  1.00  0.00     0.100 A 
HETATM   13  N7  UNL     1     -22.395 -38.448 -17.129  1.00  0.00    -0.350 N 
ATOM     14  H7  UNL     1     -23.319 -38.639 -17.518  1.00  0.00     0.166 HD
HETATM   15  C7  UNL     1     -21.588 -37.563 -17.706  1.00  0.00     0.182 A 
HETATM   16  N8  UNL     1     -20.375 -37.264 -17.258  1.00  0.00    -0.335 N 
ATOM     17  H8  UNL     1     -19.807 -36.573 -17.750  1.00  0.00     0.168 HD
HETATM   18  C8  UNL     1     -19.878 -37.883 -16.131  1.00  0.00     0.160 A 
ENDROOT
BRANCH   8  19
HETATM   19  N4  UNL     1     -20.658 -41.097 -12.569  1.00  0.00    -0.072 N 
ATOM     20  H4  UNL     1     -21.251 -41.725 -12.026  1.00  0.00     0.212 HD
BRANCH  19  21
HETATM   21  N5  UNL     1     -19.348 -40.855 -12.186  1.00  0.00    -0.024 N 
HETATM   22  O1  UNL     1     -19.124 -39.956 -11.364  1.00  0.00    -0.516 OA
HETATM   23  O2  UNL     1     -18.350 -41.617 -12.729  1.00  0.00    -0.516 OA
ENDBRANCH  19  21
ENDBRANCH   8  19
BRANCH  18  24
HETATM   24  N9  UNL     1     -18.742 -37.593 -15.723  1.00  0.00    -0.206 N 
HETATM   25  F1  UNL     1     -18.083 -36.699 -15.121  1.00  0.00    -0.100 F 
ATOM     26  H9  UNL     1     -18.108 -38.356 -15.961  1.00  0.00     0.201 HD
ENDBRANCH  18  24
TORSDOF 3
ENDMDL
MODEL 2
REMARK VINA RESULT: -6.946400183     10.385     13.013
REMARK  3 active torsions:
REMARK  status: ('A' for Active; 'I' for Inactive)
REMARK    1  A    between atoms: C4_8  and  N4_9 
REMARK    2  A    between atoms: N4_9  and  N5_11 
REMARK    3  A    between atoms: C8_23  and  N9_24 
ROOT
HETATM    1  N1  UNL     1     -13.315 -41.525  -3.549  1.00  0.00    -0.193 NA
HETATM    2  C1  UNL     1     -13.806 -42.450  -4.038  1.00  0.00     0.114 C 
HETATM    3  C2  UNL     1     -14.460 -43.635  -4.683  1.00  0.00     0.268 A 
HETATM    4  C3  UNL     1     -13.614 -44.768  -4.259  1.00  0.00     0.114 C 
HETATM    5  N2  UNL     1     -12.957 -45.677  -3.935  1.00  0.00    -0.193 NA
HETATM    6  N3  UNL     1     -14.485 -43.484  -6.085  1.00  0.00    -0.183 N 
ATOM      7  H3  UNL     1     -13.589 -43.395  -6.564  1.00  0.00     0.181 HD
HETATM    8  C4  UNL     1     -15.530 -43.451  -6.794  1.00  0.00     0.700 A 
HETATM    9  N6  UNL     1     -16.834 -43.566  -6.239  1.00  0.00    -0.184 N 
ATOM     10  H6  UNL     1     -17.663 -43.536  -6.834  1.00  0.00     0.184 HD
HETATM   11  C5  UNL     1     -16.946 -43.725  -4.827  1.00  0.00     0.122 A 
HETATM   12  C6  UNL     1     -15.797 -43.756  -4.085  1.00  0.00     0.100 A 
HETATM   13  N7  UNL     1     -15.891 -43.908  -2.724  1.00  0.00    -0.350 N 
ATOM     14  H7  UNL     1     -15.052 -43.935  -2.144  1.00  0.00     0.166 HD
HETATM   15  C7  UNL     1     -17.097 -44.019  -2.174  1.00  0.00     0.182 A 
HETATM   16  N8  UNL     1     -18.231 -43.992  -2.864  1.00  0.00    -0.335 N 
ATOM     17  H8  UNL     1     -19.123 -44.083  -2.377  1.00  0.00     0.168 HD
HETATM   18  C8  UNL     1     -18.208 -43.843  -4.233  1.00  0.00     0.160 A 
ENDROOT
BRANCH   8  19
HETATM   19  N4  UNL     1     -15.492 -43.294  -8.228  1.00  0.00    -0.072 N 
ATOM     20  H4  UNL     1     -14.925 -42.564  -8.657  1.00  0.00     0.212 HD
BRANCH  19  21
HETATM   21  N5  UNL     1     -16.244 -44.157  -9.011  1.00  0.00    -0.024 N 
HETATM   22  O1  UNL     1     -16.884 -43.692  -9.965  1.00  0.00    -0.516 OA
HETATM   23  O2  UNL     1     -16.252 -45.490  -8.704  1.00  0.00    -0.516 OA
ENDBRANCH  19  21
ENDBRANCH   8  19
BRANCH  18  24
HETATM   24  N9  UNL     1     -19.277 -43.819  -4.865  1.00  0.00    -0.206 N 
HETATM   25  F1  UNL     1     -20.040 -43.064  -5.530  1.00  0.00    -0.100 F 
ATOM     26  H9  UNL     1     -19.690 -44.751  -4.836  1.00  0.00     0.201 HD
ENDBRANCH  18  24
TORSDOF 3
ENDMDL
MODEL 3
REMARK VINA RESULT: -6.914885769      2.649      4.598
REMARK  3 active torsions:
REMARK  status: ('A' for Active; 'I' for Inactive)
REMARK    1  A    between atoms: C4_8  and  N4_9 
REMARK    2  A    between atoms: N4_9  and  N5_11 
REMARK    3  A    between atoms: C8_23  and  N9_24 
ROOT
HETATM    1  N1  UNL     1     -22.796 -41.372 -17.638  1.00  0.00    -0.193 NA
HETATM    2  C1  UNL     1     -22.549 -40.753 -16.693  1.00  0.00     0.114 C 
HETATM    3  C2  UNL     1     -22.204 -39.961 -15.468  1.00  0.00     0.268 A 
HETATM    4  C3  UNL     1     -23.459 -39.249 -15.154  1.00  0.00     0.114 C 
HETATM    5  N2  UNL     1     -24.442 -38.678 -14.889  1.00  0.00    -0.193 NA
HETATM    6  N3  UNL     1     -21.142 -39.072 -15.736  1.00  0.00    -0.183 N 
ATOM      7  H3  UNL     1     -21.288 -38.371 -16.462  1.00  0.00     0.181 HD
HETATM    8  C4  UNL     1     -20.024 -39.078 -15.148  1.00  0.00     0.700 A 
HETATM    9  N6  UNL     1     -19.705 -40.008 -14.120  1.00  0.00    -0.184 N 
ATOM     10  H6  UNL     1     -18.794 -39.992 -13.661  1.00  0.00     0.184 HD
HETATM   11  C5  UNL     1     -20.699 -40.962 -13.753  1.00  0.00     0.122 A 
HETATM   12  C6  UNL     1     -21.900 -40.932 -14.408  1.00  0.00     0.100 A 
HETATM   13  N7  UNL     1     -22.865 -41.846 -14.065  1.00  0.00    -0.350 N 
ATOM     14  H7  UNL     1     -23.770 -41.848 -14.536  1.00  0.00     0.166 HD
HETATM   15  C7  UNL     1     -22.598 -42.729 -13.107  1.00  0.00     0.182 A 
HETATM   16  N8  UNL     1     -21.445 -42.786 -12.452  1.00  0.00    -0.335 N 
ATOM     17  H8  UNL     1     -21.307 -43.490 -11.727  1.00  0.00     0.168 HD
HETATM   18  C8  UNL     1     -20.433 -41.898 -12.747  1.00  0.00     0.160 A 
ENDROOT
BRANCH   8  19
HETATM   19  N4  UNL     1     -18.973 -38.142 -15.466  1.00  0.00    -0.072 N 
ATOM     20  H4  UNL     1     -17.993 -38.417 -15.398  1.00  0.00     0.212 HD
BRANCH  19  21
HETATM   21  N5  UNL     1     -19.322 -36.861 -15.868  1.00  0.00    -0.024 N 
HETATM   22  O1  UNL     1     -18.974 -35.902 -15.165  1.00  0.00    -0.516 OA
HETATM   23  O2  UNL     1     -20.035 -36.702 -17.023  1.00  0.00    -0.516 OA
ENDBRANCH  19  21
ENDBRANCH   8  19
BRANCH  18  24
HETATM   24  N9  UNL     1     -19.360 -41.963 -12.126  1.00  0.00    -0.206 N 
HETATM   25  F1  UNL     1     -18.117 -42.131 -12.274  1.00  0.00    -0.100 F 
ATOM     26  H9  UNL     1     -19.552 -41.834 -11.133  1.00  0.00     0.201 HD
ENDBRANCH  18  24
TORSDOF 3
ENDMDL
MODEL 4
REMARK VINA RESULT: -6.695969155      2.412      3.179
REMARK  3 active torsions:
REMARK  status: ('A' for Active; 'I' for Inactive)
REMARK    1  A    between atoms: C4_8  and  N4_9 
REMARK    2  A    between atoms: N4_9  and  N5_11 
REMARK    3  A    between atoms: C8_23  and  N9_24 
ROOT
HETATM    1  N1  UNL     1     -25.745 -40.112 -13.797  1.00  0.00    -0.193 NA
HETATM    2  C1  UNL     1     -24.777 -40.262 -14.410  1.00  0.00     0.114 C 
HETATM    3  C2  UNL     1     -23.517 -40.431 -15.204  1.00  0.00     0.268 A 
HETATM    4  C3  UNL     1     -23.440 -41.889 -15.421  1.00  0.00     0.114 C 
HETATM    5  N2  UNL     1     -23.362 -43.040 -15.604  1.00  0.00    -0.193 NA
HETATM    6  N3  UNL     1     -22.408 -39.941 -14.483  1.00  0.00    -0.183 N 
ATOM      7  H3  UNL     1     -22.203 -40.376 -13.584  1.00  0.00     0.181 HD
HETATM    8  C4  UNL     1     -21.649 -39.006 -14.864  1.00  0.00     0.700 A 
HETATM    9  N6  UNL     1     -21.834 -38.326 -16.099  1.00  0.00    -0.184 N 
ATOM     10  H6  UNL     1     -21.207 -37.573 -16.385  1.00  0.00     0.184 HD
HETATM   11  C5  UNL     1     -22.925 -38.728 -16.925  1.00  0.00     0.122 A 
HETATM   12  C6  UNL     1     -23.730 -39.744 -16.485  1.00  0.00     0.100 A 
HETATM   13  N7  UNL     1     -24.784 -40.140 -17.271  1.00  0.00    -0.350 N 
ATOM     14  H7  UNL     1     -25.402 -40.895 -16.970  1.00  0.00     0.166 HD
HETATM   15  C7  UNL     1     -24.984 -39.524 -18.432  1.00  0.00     0.182 A 
HETATM   16  N8  UNL     1     -24.223 -38.537 -18.888  1.00  0.00    -0.335 N 
ATOM     17  H8  UNL     1     -24.434 -38.108 -19.790  1.00  0.00     0.168 HD
HETATM   18  C8  UNL     1     -23.149 -38.090 -18.150  1.00  0.00     0.160 A 
ENDROOT
BRANCH   8  19
HETATM   19  N4  UNL     1     -20.527 -38.547 -14.082  1.00  0.00    -0.072 N 
ATOM     20  H4  UNL     1     -20.381 -38.887 -13.132  1.00  0.00     0.212 HD
BRANCH  19  21
HETATM   21  N5  UNL     1     -19.651 -37.633 -14.648  1.00  0.00    -0.024 N 
HETATM   22  O1  UNL     1     -19.787 -36.431 -14.378  1.00  0.00    -0.516 OA
HETATM   23  O2  UNL     1     -18.668 -38.090 -15.483  1.00  0.00    -0.516 OA
ENDBRANCH  19  21
ENDBRANCH   8  19
BRANCH  18  24
HETATM   24  N9  UNL     1     -22.446 -37.165 -18.589  1.00  0.00    -0.206 N 
HETATM   25  F1  UNL     1     -21.433 -36.457 -18.330  1.00  0.00    -0.100 F 
ATOM     26  H9  UNL     1     -22.825 -36.869 -19.488  1.00  0.00     0.201 HD
ENDBRANCH  18  24
TORSDOF 3
ENDMDL
MODEL 5
REMARK VINA RESULT: -6.532231355     10.997     12.958
REMARK  3 active torsions:
REMARK  status: ('A' for Active; 'I' for Inactive)
REMARK    1  A    between atoms: C4_8  and  N4_9 
REMARK    2  A    between atoms: N4_9  and  N5_11 
REMARK    3  A    between atoms: C8_23  and  N9_24 
ROOT
HETATM    1  N1  UNL     1     -16.120 -44.626  -8.628  1.00  0.00    -0.193 NA
HETATM    2  C1  UNL     1     -15.923 -43.986  -7.685  1.00  0.00     0.114 C 
HETATM    3  C2  UNL     1     -15.666 -43.180  -6.448  1.00  0.00     0.268 A 
HETATM    4  C3  UNL     1     -15.683 -41.787  -6.936  1.00  0.00     0.114 C 
HETATM    5  N2  UNL     1     -15.694 -40.678  -7.303  1.00  0.00    -0.193 NA
HETATM    6  N3  UNL     1     -14.423 -43.528  -5.879  1.00  0.00    -0.183 N 
ATOM      7  H3  UNL     1     -13.589 -43.392  -6.451  1.00  0.00     0.181 HD
HETATM    8  C4  UNL     1     -14.261 -43.996  -4.717  1.00  0.00     0.700 A 
HETATM    9  N6  UNL     1     -15.347 -44.229  -3.828  1.00  0.00    -0.184 N 
ATOM     10  H6  UNL     1     -15.190 -44.609  -2.894  1.00  0.00     0.184 HD
HETATM   11  C5  UNL     1     -16.661 -43.916  -4.285  1.00  0.00     0.122 A 
HETATM   12  C6  UNL     1     -16.805 -43.411  -5.549  1.00  0.00     0.100 A 
HETATM   13  N7  UNL     1     -18.065 -43.106  -6.000  1.00  0.00    -0.350 N 
ATOM     14  H7  UNL     1     -18.203 -42.728  -6.938  1.00  0.00     0.166 HD
HETATM   15  C7  UNL     1     -19.101 -43.311  -5.194  1.00  0.00     0.182 A 
HETATM   16  N8  UNL     1     -18.997 -43.799  -3.963  1.00  0.00    -0.335 N 
ATOM     17  H8  UNL     1     -19.836 -43.932  -3.397  1.00  0.00     0.168 HD
HETATM   18  C8  UNL     1     -17.762 -44.127  -3.448  1.00  0.00     0.160 A 
ENDROOT
BRANCH   8  19
HETATM   19  N4  UNL     1     -12.962 -44.335  -4.188  1.00  0.00    -0.072 N 
ATOM     20  H4  UNL     1     -12.140 -43.785  -4.435  1.00  0.00     0.212 HD
BRANCH  19  21
HETATM   21  N5  UNL     1     -12.854 -45.425  -3.337  1.00  0.00    -0.024 N 
HETATM   22  O1  UNL     1     -12.899 -46.565  -3.820  1.00  0.00    -0.516 OA
HETATM   23  O2  UNL     1     -12.702 -45.203  -1.996  1.00  0.00    -0.516 OA
ENDBRANCH  19  21
ENDBRANCH   8  19
BRANCH  18  24
HETATM   24  N9  UNL     1     -17.680 -44.583  -2.295  1.00  0.00    -0.206 N 
HETATM   25  F1  UNL     1     -17.149 -44.385  -1.167  1.00  0.00    -0.100 F 
ATOM     26  H9  UNL     1     -18.252 -45.425  -2.240  1.00  0.00     0.201 HD
ENDBRANCH  18  24
TORSDOF 3
ENDMDL
