MODEL 1
REMARK VINA RESULT: -7.293684289      0.000      0.000
REMARK  7 active torsions:
REMARK  status: ('A' for Active; 'I' for Inactive)
REMARK       I    between atoms: C2_2  and  N1_4 
REMARK    1  A    between atoms: C3_7  and  O2_8 
REMARK    2  A    between atoms: O2_8  and  N3_9 
REMARK    3  A    between atoms: C4_11  and  O3_12 
REMARK    4  A    between atoms: C4_11  and  N4_14 
REMARK    5  A    between atoms: N4_14  and  N5_16 
REMARK    6  A    between atoms: N5_16  and  N6_17 
REMARK    7  A    between atoms: C5_23  and  N9_24 
ROOT
HETATM    1  C1  UNL     1     -17.664 -44.478 -10.234  1.00  0.00     0.119 C 
HETATM    2  C2  UNL     1     -16.759 -44.674  -9.084  1.00  0.00     0.237 C 
HETATM    3  O1  UNL     1     -16.247 -45.810  -8.925  1.00  0.00    -0.272 OA
HETATM    4  N1  UNL     1     -16.444 -43.622  -8.149  1.00  0.00    -0.210 N 
HETATM    5  N2  UNL     1     -15.587 -43.855  -7.077  1.00  0.00    -0.253 N 
ATOM      6  H2  UNL     1     -15.425 -44.808  -6.751  1.00  0.00     0.191 HD
HETATM    7  C3  UNL     1     -15.003 -42.874  -6.502  1.00  0.00     0.305 C 
HETATM    8  N7  UNL     1     -15.242 -41.555  -6.974  1.00  0.00    -0.074 N 
HETATM    9  F1  UNL     1     -14.268 -40.597  -6.916  1.00  0.00    -0.076 F 
HETATM   10  N8  UNL     1     -16.513 -41.291  -7.493  1.00  0.00    -0.047 NA
HETATM   11  C5  UNL     1     -17.021 -42.324  -8.330  1.00  0.00     0.423 C 
ENDROOT
BRANCH   7  12
HETATM   12  O2  UNL     1     -14.123 -43.037  -5.412  1.00  0.00    -0.192 OA
BRANCH  12  13
HETATM   13  N3  UNL     1     -13.966 -44.275  -4.854  1.00  0.00    -0.219 N 
HETATM   14  C4  UNL     1     -13.022 -44.435  -3.989  1.00  0.00     0.269 C 
ATOM     15  H3  UNL     1     -14.578 -45.049  -5.113  1.00  0.00     0.198 HD
BRANCH  14  16
HETATM   16  O3  UNL     1     -12.177 -43.395  -3.618  1.00  0.00    -0.329 OA
ATOM     17  H3  UNL     1     -12.476 -42.494  -3.569  1.00  0.00     0.221 HD
ENDBRANCH  14  16
BRANCH  14  18
HETATM   18  N4  UNL     1     -12.785 -45.695  -3.354  1.00  0.00    -0.177 N 
ATOM     19  H4  UNL     1     -11.950 -45.799  -2.776  1.00  0.00     0.207 HD
BRANCH  18  20
HETATM   20  N5  UNL     1     -13.537 -46.656  -3.471  1.00  0.00    -0.240 NA
BRANCH  20  21
HETATM   21  N6  UNL     1     -14.440 -47.481  -3.501  1.00  0.00    -0.260 N 
ATOM     22  H62 UNL     1     -15.017 -46.803  -3.998  1.00  0.00     0.193 HD
ATOM     23  H61 UNL     1     -15.074 -48.277  -3.435  1.00  0.00     0.193 HD
ENDBRANCH  20  21
ENDBRANCH  18  20
ENDBRANCH  14  18
ENDBRANCH  12  13
ENDBRANCH   7  12
BRANCH  11  24
HETATM   24  N9  UNL     1     -16.912 -41.862  -9.703  1.00  0.00    -0.040 N 
ATOM     25  H93 UNL     1     -16.084 -42.245 -10.156  1.00  0.00     0.278 HD
ATOM     26  H92 UNL     1     -17.629 -42.283 -10.292  1.00  0.00     0.278 HD
ATOM     27  H91 UNL     1     -16.931 -40.844  -9.769  1.00  0.00     0.278 HD
ENDBRANCH  11  24
TORSDOF 7
ENDMDL
MODEL 2
REMARK VINA RESULT: -6.857413885      2.550      5.254
REMARK  7 active torsions:
REMARK  status: ('A' for Active; 'I' for Inactive)
REMARK       I    between atoms: C2_2  and  N1_4 
REMARK    1  A    between atoms: C3_7  and  O2_8 
REMARK    2  A    between atoms: O2_8  and  N3_9 
REMARK    3  A    between atoms: C4_11  and  O3_12 
REMARK    4  A    between atoms: C4_11  and  N4_14 
REMARK    5  A    between atoms: N4_14  and  N5_16 
REMARK    6  A    between atoms: N5_16  and  N6_17 
REMARK    7  A    between atoms: C5_23  and  N9_24 
ROOT
HETATM    1  C1  UNL     1     -14.799 -42.939  -3.145  1.00  0.00     0.119 C 
HETATM    2  C2  UNL     1     -14.983 -43.540  -4.481  1.00  0.00     0.237 C 
HETATM    3  O1  UNL     1     -15.138 -44.785  -4.550  1.00  0.00    -0.272 OA
HETATM    4  N1  UNL     1     -14.991 -42.761  -5.694  1.00  0.00    -0.210 N 
HETATM    5  N2  UNL     1     -15.164 -43.373  -6.933  1.00  0.00    -0.253 N 
ATOM      6  H2  UNL     1     -14.972 -44.369  -7.041  1.00  0.00     0.191 HD
HETATM    7  C3  UNL     1     -15.564 -42.686  -7.935  1.00  0.00     0.305 C 
HETATM    8  N7  UNL     1     -15.826 -41.301  -7.760  1.00  0.00    -0.074 N 
HETATM    9  F1  UNL     1     -16.805 -40.671  -8.478  1.00  0.00    -0.076 F 
HETATM   10  N8  UNL     1     -15.036 -40.621  -6.828  1.00  0.00    -0.047 NA
HETATM   11  C5  UNL     1     -14.819 -41.341  -5.620  1.00  0.00     0.423 C 
ENDROOT
BRANCH   7  12
HETATM   12  O2  UNL     1     -15.761 -43.241  -9.215  1.00  0.00    -0.192 OA
BRANCH  12  13
HETATM   13  N3  UNL     1     -16.988 -43.742  -9.550  1.00  0.00    -0.219 N 
HETATM   14  C4  UNL     1     -17.210 -44.995  -9.337  1.00  0.00     0.269 C 
ATOM     15  H3  UNL     1     -17.706 -43.143  -9.957  1.00  0.00     0.198 HD
BRANCH  14  16
HETATM   16  O3  UNL     1     -16.247 -45.832  -8.782  1.00  0.00    -0.329 OA
ATOM     17  H3  UNL     1     -15.828 -46.521  -9.284  1.00  0.00     0.221 HD
ENDBRANCH  14  16
BRANCH  14  18
HETATM   18  N4  UNL     1     -18.464 -45.605  -9.656  1.00  0.00    -0.177 N 
ATOM     19  H4  UNL     1     -19.029 -45.196 -10.401  1.00  0.00     0.207 HD
BRANCH  18  20
HETATM   20  N5  UNL     1     -18.893 -46.597  -9.077  1.00  0.00    -0.240 NA
BRANCH  20  21
HETATM   21  N6  UNL     1     -19.177 -47.531  -8.340  1.00  0.00    -0.260 N 
ATOM     22  H62 UNL     1     -20.152 -47.234  -8.371  1.00  0.00     0.193 HD
ATOM     23  H61 UNL     1     -19.233 -48.348  -7.732  1.00  0.00     0.193 HD
ENDBRANCH  20  21
ENDBRANCH  18  20
ENDBRANCH  14  18
ENDBRANCH  12  13
ENDBRANCH   7  12
BRANCH  11  24
HETATM   24  N9  UNL     1     -15.659 -40.740  -4.600  1.00  0.00    -0.040 N 
ATOM     25  H93 UNL     1     -15.468 -41.139  -3.682  1.00  0.00     0.278 HD
ATOM     26  H92 UNL     1     -15.385 -39.774  -4.418  1.00  0.00     0.278 HD
ATOM     27  H91 UNL     1     -16.651 -40.804  -4.831  1.00  0.00     0.278 HD
ENDBRANCH  11  24
TORSDOF 7
ENDMDL
MODEL 3
REMARK VINA RESULT: -6.719637752      1.597      1.651
REMARK  7 active torsions:
REMARK  status: ('A' for Active; 'I' for Inactive)
REMARK       I    between atoms: C2_2  and  N1_4 
REMARK    1  A    between atoms: C3_7  and  O2_8 
REMARK    2  A    between atoms: O2_8  and  N3_9 
REMARK    3  A    between atoms: C4_11  and  O3_12 
REMARK    4  A    between atoms: C4_11  and  N4_14 
REMARK    5  A    between atoms: N4_14  and  N5_16 
REMARK    6  A    between atoms: N5_16  and  N6_17 
REMARK    7  A    between atoms: C5_23  and  N9_24 
ROOT
HETATM    1  C1  UNL     1     -17.644 -44.455 -10.222  1.00  0.00     0.119 C 
HETATM    2  C2  UNL     1     -16.740 -44.657  -9.072  1.00  0.00     0.237 C 
HETATM    3  O1  UNL     1     -16.240 -45.798  -8.909  1.00  0.00    -0.272 OA
HETATM    4  N1  UNL     1     -16.413 -43.605  -8.142  1.00  0.00    -0.210 N 
HETATM    5  N2  UNL     1     -15.557 -43.843  -7.070  1.00  0.00    -0.253 N 
ATOM      6  H2  UNL     1     -15.405 -44.796  -6.741  1.00  0.00     0.191 HD
HETATM    7  C3  UNL     1     -14.961 -42.866  -6.499  1.00  0.00     0.305 C 
HETATM    8  N7  UNL     1     -15.187 -41.547  -6.977  1.00  0.00    -0.074 N 
HETATM    9  F1  UNL     1     -14.202 -40.598  -6.923  1.00  0.00    -0.076 F 
HETATM   10  N8  UNL     1     -16.455 -41.271  -7.495  1.00  0.00    -0.047 NA
HETATM   11  C5  UNL     1     -16.976 -42.301  -8.327  1.00  0.00     0.423 C 
ENDROOT
BRANCH   7  12
HETATM   12  O2  UNL     1     -14.081 -43.035  -5.411  1.00  0.00    -0.192 OA
BRANCH  12  13
HETATM   13  N3  UNL     1     -14.584 -43.372  -4.185  1.00  0.00    -0.219 N 
HETATM   14  C4  UNL     1     -14.232 -44.503  -3.675  1.00  0.00     0.269 C 
ATOM     15  H3  UNL     1     -15.220 -42.747  -3.689  1.00  0.00     0.198 HD
BRANCH  14  16
HETATM   16  O3  UNL     1     -13.365 -45.371  -4.331  1.00  0.00    -0.329 OA
ATOM     17  H3  UNL     1     -12.846 -46.015  -3.863  1.00  0.00     0.221 HD
ENDBRANCH  14  16
BRANCH  14  18
HETATM   18  N4  UNL     1     -14.709 -44.937  -2.398  1.00  0.00    -0.177 N 
ATOM     19  H4  UNL     1     -14.279 -45.759  -1.972  1.00  0.00     0.207 HD
BRANCH  18  20
HETATM   20  N5  UNL     1     -15.610 -44.369  -1.791  1.00  0.00    -0.240 NA
BRANCH  20  21
HETATM   21  N6  UNL     1     -16.637 -43.868  -1.355  1.00  0.00    -0.260 N 
ATOM     22  H62 UNL     1     -17.118 -44.158  -2.206  1.00  0.00     0.193 HD
ATOM     23  H61 UNL     1     -17.389 -43.406  -0.844  1.00  0.00     0.193 HD
ENDBRANCH  20  21
ENDBRANCH  18  20
ENDBRANCH  14  18
ENDBRANCH  12  13
ENDBRANCH   7  12
BRANCH  11  24
HETATM   24  N9  UNL     1     -16.864 -41.845  -9.701  1.00  0.00    -0.040 N 
ATOM     25  H93 UNL     1     -15.888 -41.741  -9.977  1.00  0.00     0.278 HD
ATOM     26  H92 UNL     1     -17.139 -42.577 -10.356  1.00  0.00     0.278 HD
ATOM     27  H91 UNL     1     -17.388 -40.986  -9.866  1.00  0.00     0.278 HD
ENDBRANCH  11  24
TORSDOF 7
ENDMDL
MODEL 4
REMARK VINA RESULT: -6.680906402      2.090      2.653
REMARK  7 active torsions:
REMARK  status: ('A' for Active; 'I' for Inactive)
REMARK       I    between atoms: C2_2  and  N1_4 
REMARK    1  A    between atoms: C3_7  and  O2_8 
REMARK    2  A    between atoms: O2_8  and  N3_9 
REMARK    3  A    between atoms: C4_11  and  O3_12 
REMARK    4  A    between atoms: C4_11  and  N4_14 
REMARK    5  A    between atoms: N4_14  and  N5_16 
REMARK    6  A    between atoms: N5_16  and  N6_17 
REMARK    7  A    between atoms: C5_23  and  N9_24 
ROOT
HETATM    1  C1  UNL     1     -18.517 -42.771 -11.821  1.00  0.00     0.119 C 
HETATM    2  C2  UNL     1     -17.917 -43.587 -10.747  1.00  0.00     0.237 C 
HETATM    3  O1  UNL     1     -17.874 -44.833 -10.907  1.00  0.00    -0.272 OA
HETATM    4  N1  UNL     1     -17.385 -43.014  -9.535  1.00  0.00    -0.210 N 
HETATM    5  N2  UNL     1     -16.832 -43.825  -8.548  1.00  0.00    -0.253 N 
ATOM      6  H2  UNL     1     -17.070 -44.815  -8.508  1.00  0.00     0.191 HD
HETATM    7  C3  UNL     1     -16.024 -43.326  -7.690  1.00  0.00     0.305 C 
HETATM    8  N7  UNL     1     -15.706 -41.943  -7.766  1.00  0.00    -0.074 N 
HETATM    9  F1  UNL     1     -14.473 -41.481  -7.396  1.00  0.00    -0.076 F 
HETATM   10  N8  UNL     1     -16.709 -41.088  -8.231  1.00  0.00    -0.047 NA
HETATM   11  C5  UNL     1     -17.428 -41.594  -9.350  1.00  0.00     0.423 C 
ENDROOT
BRANCH   7  12
HETATM   12  O2  UNL     1     -15.428 -44.087  -6.665  1.00  0.00    -0.192 OA
BRANCH  12  13
HETATM   13  N3  UNL     1     -15.322 -43.559  -5.409  1.00  0.00    -0.219 N 
HETATM   14  C4  UNL     1     -14.167 -43.584  -4.835  1.00  0.00     0.269 C 
ATOM     15  H3  UNL     1     -16.134 -43.157  -4.939  1.00  0.00     0.198 HD
BRANCH  14  16
HETATM   16  O3  UNL     1     -13.046 -44.125  -5.456  1.00  0.00    -0.329 OA
ATOM     17  H3  UNL     1     -12.169 -44.003  -5.110  1.00  0.00     0.221 HD
ENDBRANCH  14  16
BRANCH  14  18
HETATM   18  N4  UNL     1     -13.963 -43.055  -3.522  1.00  0.00    -0.177 N 
ATOM     19  H4  UNL     1     -13.546 -43.659  -2.813  1.00  0.00     0.207 HD
BRANCH  18  20
HETATM   20  N5  UNL     1     -14.267 -41.909  -3.208  1.00  0.00    -0.240 NA
BRANCH  20  21
HETATM   21  N6  UNL     1     -14.386 -40.709  -3.002  1.00  0.00    -0.260 N 
ATOM     22  H62 UNL     1     -15.346 -40.875  -2.701  1.00  0.00     0.193 HD
ATOM     23  H61 UNL     1     -14.310 -39.698  -2.887  1.00  0.00     0.193 HD
ENDBRANCH  20  21
ENDBRANCH  18  20
ENDBRANCH  14  18
ENDBRANCH  12  13
ENDBRANCH   7  12
BRANCH  11  24
HETATM   24  N9  UNL     1     -16.964 -40.875 -10.523  1.00  0.00    -0.040 N 
ATOM     25  H93 UNL     1     -17.634 -40.159 -10.805  1.00  0.00     0.278 HD
ATOM     26  H92 UNL     1     -16.171 -40.275 -10.299  1.00  0.00     0.278 HD
ATOM     27  H91 UNL     1     -16.746 -41.501 -11.298  1.00  0.00     0.278 HD
ENDBRANCH  11  24
TORSDOF 7
ENDMDL
MODEL 5
REMARK VINA RESULT: -6.637205856      2.658      6.305
REMARK  7 active torsions:
REMARK  status: ('A' for Active; 'I' for Inactive)
REMARK       I    between atoms: C2_2  and  N1_4 
REMARK    1  A    between atoms: C3_7  and  O2_8 
REMARK    2  A    between atoms: O2_8  and  N3_9 
REMARK    3  A    between atoms: C4_11  and  O3_12 
REMARK    4  A    between atoms: C4_11  and  N4_14 
REMARK    5  A    between atoms: N4_14  and  N5_16 
REMARK    6  A    between atoms: N5_16  and  N6_17 
REMARK    7  A    between atoms: C5_23  and  N9_24 
ROOT
HETATM    1  C1  UNL     1     -14.808 -42.900  -3.138  1.00  0.00     0.119 C 
HETATM    2  C2  UNL     1     -14.960 -43.528  -4.466  1.00  0.00     0.237 C 
HETATM    3  O1  UNL     1     -15.068 -44.778  -4.517  1.00  0.00    -0.272 OA
HETATM    4  N1  UNL     1     -14.989 -42.767  -5.690  1.00  0.00    -0.210 N 
HETATM    5  N2  UNL     1     -15.131 -43.404  -6.920  1.00  0.00    -0.253 N 
ATOM      6  H2  UNL     1     -14.901 -44.393  -7.012  1.00  0.00     0.191 HD
HETATM    7  C3  UNL     1     -15.549 -42.747  -7.935  1.00  0.00     0.305 C 
HETATM    8  N7  UNL     1     -15.865 -41.370  -7.782  1.00  0.00    -0.074 N 
HETATM    9  F1  UNL     1     -16.862 -40.789  -8.516  1.00  0.00    -0.076 F 
HETATM   10  N8  UNL     1     -15.108 -40.647  -6.856  1.00  0.00    -0.047 NA
HETATM   11  C5  UNL     1     -14.871 -41.340  -5.636  1.00  0.00     0.423 C 
ENDROOT
BRANCH   7  12
HETATM   12  O2  UNL     1     -15.717 -43.328  -9.208  1.00  0.00    -0.192 OA
BRANCH  12  13
HETATM   13  N3  UNL     1     -16.895 -43.949  -9.515  1.00  0.00    -0.219 N 
HETATM   14  C4  UNL     1     -17.550 -43.533 -10.546  1.00  0.00     0.269 C 
ATOM     15  H3  UNL     1     -17.246 -44.720  -8.946  1.00  0.00     0.198 HD
BRANCH  14  16
HETATM   16  O3  UNL     1     -17.092 -42.486 -11.338  1.00  0.00    -0.329 OA
ATOM     17  H3  UNL     1     -17.281 -42.437 -12.268  1.00  0.00     0.221 HD
ENDBRANCH  14  16
BRANCH  14  18
HETATM   18  N4  UNL     1     -18.792 -44.124 -10.941  1.00  0.00    -0.177 N 
ATOM     19  H4  UNL     1     -19.028 -45.048 -10.579  1.00  0.00     0.207 HD
BRANCH  18  20
HETATM   20  N5  UNL     1     -19.585 -43.571 -11.695  1.00  0.00    -0.240 NA
BRANCH  20  21
HETATM   21  N6  UNL     1     -20.273 -42.835 -12.388  1.00  0.00    -0.260 N 
ATOM     22  H62 UNL     1     -19.440 -42.285 -12.598  1.00  0.00     0.193 HD
ATOM     23  H61 UNL     1     -20.986 -42.331 -12.917  1.00  0.00     0.193 HD
ENDBRANCH  20  21
ENDBRANCH  18  20
ENDBRANCH  14  18
ENDBRANCH  12  13
ENDBRANCH   7  12
BRANCH  11  24
HETATM   24  N9  UNL     1     -15.741 -40.757  -4.630  1.00  0.00    -0.040 N 
ATOM     25  H93 UNL     1     -16.638 -41.240  -4.593  1.00  0.00     0.278 HD
ATOM     26  H92 UNL     1     -15.407 -40.962  -3.689  1.00  0.00     0.278 HD
ATOM     27  H91 UNL     1     -15.867 -39.754  -4.766  1.00  0.00     0.278 HD
ENDBRANCH  11  24
TORSDOF 7
ENDMDL
