MODEL 1
REMARK VINA RESULT: -8.431051704      0.000      0.000
REMARK  8 active torsions:
REMARK  status: ('A' for Active; 'I' for Inactive)
REMARK    1  A    between atoms: N5_15  and  C6_16 
REMARK    2  A    between atoms: C7_18  and  C8_19 
REMARK    3  A    between atoms: C7_18  and  N6_22 
REMARK    4  A    between atoms: C8_19  and  O2_20 
REMARK       I    between atoms: N6_22  and  C9_24 
REMARK    5  A    between atoms: C9_24  and  C10_26 
REMARK    6  A    between atoms: C10_26  and  N7_27 
REMARK    7  A    between atoms: N8_31  and  N9_32 
REMARK    8  A    between atoms: C11_35  and  O4_36 
ROOT
HETATM    1  C6  UNL     1       4.318   7.319  24.822  1.00  0.00     0.279 A 
HETATM    2  O1  UNL     1       4.594   6.390  25.789  1.00  0.00    -0.315 OA
HETATM    3  C7  UNL     1       5.927   6.011  25.694  1.00  0.00     0.241 A 
HETATM    4  N8  UNL     1       6.546   6.759  24.666  1.00  0.00    -0.149 NA
HETATM    5  C11 UNL     1       5.583   7.625  24.072  1.00  0.00     0.265 A 
ENDROOT
BRANCH   1   6
HETATM    6  N5  UNL     1       3.733   8.542  25.387  1.00  0.00    -0.296 N 
HETATM    7  C3  UNL     1       3.432   8.801  26.679  1.00  0.00     0.142 A 
HETATM    8  N3  UNL     1       3.585   8.026  27.767  1.00  0.00    -0.336 N 
HETATM    9  C4  UNL     1       2.899  10.063  26.796  1.00  0.00     0.122 A 
HETATM   10  C2  UNL     1       3.198   8.538  28.946  1.00  0.00     0.183 A 
ATOM     11  H3  UNL     1       3.978   7.088  27.700  1.00  0.00     0.168 HD
HETATM   12  N2  UNL     1       2.675   9.762  29.100  1.00  0.00    -0.337 N 
HETATM   13  C1  UNL     1       2.518  10.542  28.025  1.00  0.00     0.131 A 
ATOM     14  H2  UNL     1       2.400  10.094  30.025  1.00  0.00     0.168 HD
HETATM   15  N1  UNL     1       2.020  11.736  28.094  1.00  0.00    -0.383 N 
ATOM     16  H12 UNL     1       1.736  12.092  29.007  1.00  0.00     0.157 HD
ATOM     17  H11 UNL     1       1.900  12.330  27.274  1.00  0.00     0.157 HD
HETATM   18  N4  UNL     1       2.882  10.568  25.549  1.00  0.00    -0.346 N 
HETATM   19  C5  UNL     1       3.379   9.656  24.721  1.00  0.00     0.188 A 
ATOM     20  H4  UNL     1       2.544  11.494  25.285  1.00  0.00     0.167 HD
ENDBRANCH   1   6
BRANCH   5  21
HETATM   21  O4  UNL     1       5.462   7.495  22.687  1.00  0.00    -0.375 OA
ATOM     22  H4  UNL     1       4.845   8.103  22.297  1.00  0.00     0.211 HD
ENDBRANCH   5  21
BRANCH   3  23
HETATM   23  C8  UNL     1       6.548   6.337  27.056  1.00  0.00     0.245 C 
BRANCH  23  24
HETATM   24  O2  UNL     1       5.730   6.056  28.105  1.00  0.00    -0.395 OA
ATOM     25  H2  UNL     1       6.045   6.402  28.933  1.00  0.00     0.209 HD
ENDBRANCH  23  24
ENDBRANCH   3  23
BRANCH   3  26
HETATM   26  N6  UNL     1       6.078   4.596  25.498  1.00  0.00    -0.312 N 
HETATM   27  C9  UNL     1       7.210   3.797  25.719  1.00  0.00     0.246 C 
HETATM   28  O3  UNL     1       8.267   4.331  26.131  1.00  0.00    -0.272 OA
ATOM     29  H6  UNL     1       5.252   4.107  25.153  1.00  0.00     0.167 HD
BRANCH  27  30
HETATM   30  C10 UNL     1       7.202   2.320  25.480  1.00  0.00     0.332 C 
BRANCH  30  31
HETATM   31  N7  UNL     1       7.263   2.065  24.055  1.00  0.00    -0.071 N 
ATOM     32  H73 UNL     1       6.336   2.008  23.632  1.00  0.00     0.274 HD
ATOM     33  H72 UNL     1       7.610   2.869  23.532  1.00  0.00     0.274 HD
ATOM     34  H71 UNL     1       7.818   1.226  23.886  1.00  0.00     0.274 HD
ENDBRANCH  30  31
ENDBRANCH  27  30
ENDBRANCH   3  26
BRANCH   4  35
HETATM   35  N9  UNL     1       7.175   6.026  23.705  1.00  0.00    -0.357 NA
ATOM     36  H92 UNL     1       8.164   6.272  23.666  1.00  0.00     0.171 HD
ATOM     37  H91 UNL     1       6.775   6.095  22.769  1.00  0.00     0.171 HD
ENDBRANCH   4  35
TORSDOF 8
ENDMDL
MODEL 2
REMARK VINA RESULT: -8.297977307      5.049      8.692
REMARK  8 active torsions:
REMARK  status: ('A' for Active; 'I' for Inactive)
REMARK    1  A    between atoms: N5_15  and  C6_16 
REMARK    2  A    between atoms: C7_18  and  C8_19 
REMARK    3  A    between atoms: C7_18  and  N6_22 
REMARK    4  A    between atoms: C8_19  and  O2_20 
REMARK       I    between atoms: N6_22  and  C9_24 
REMARK    5  A    between atoms: C9_24  and  C10_26 
REMARK    6  A    between atoms: C10_26  and  N7_27 
REMARK    7  A    between atoms: N8_31  and  N9_32 
REMARK    8  A    between atoms: C11_35  and  O4_36 
ROOT
HETATM    1  C6  UNL     1       2.460  12.582  21.716  1.00  0.00     0.279 A 
HETATM    2  O1  UNL     1       2.969  12.832  22.963  1.00  0.00    -0.315 OA
HETATM    3  C7  UNL     1       1.996  13.447  23.741  1.00  0.00     0.241 A 
HETATM    4  N8  UNL     1       0.803  13.547  22.990  1.00  0.00    -0.149 NA
HETATM    5  C11 UNL     1       1.019  13.003  21.690  1.00  0.00     0.265 A 
ENDROOT
BRANCH   1   6
HETATM    6  N5  UNL     1       2.601  11.169  21.341  1.00  0.00    -0.296 N 
HETATM    7  C3  UNL     1       3.387  10.230  21.911  1.00  0.00     0.142 A 
HETATM    8  N3  UNL     1       4.231  10.335  22.953  1.00  0.00    -0.336 N 
HETATM    9  C4  UNL     1       3.232   9.026  21.265  1.00  0.00     0.122 A 
HETATM   10  C2  UNL     1       4.899   9.229  23.319  1.00  0.00     0.183 A 
ATOM     11  H3  UNL     1       4.360  11.219  23.445  1.00  0.00     0.168 HD
HETATM   12  N2  UNL     1       4.774   8.040  22.714  1.00  0.00    -0.337 N 
HETATM   13  C1  UNL     1       3.937   7.923  21.677  1.00  0.00     0.131 A 
ATOM     14  H2  UNL     1       5.309   7.235  23.041  1.00  0.00     0.168 HD
HETATM   15  N1  UNL     1       3.763   6.808  21.042  1.00  0.00    -0.383 N 
ATOM     16  H12 UNL     1       4.288   5.988  21.348  1.00  0.00     0.157 HD
ATOM     17  H11 UNL     1       3.125   6.718  20.251  1.00  0.00     0.157 HD
HETATM   18  N4  UNL     1       2.334   9.251  20.288  1.00  0.00    -0.346 N 
HETATM   19  C5  UNL     1       1.967  10.527  20.343  1.00  0.00     0.188 A 
ATOM     20  H4  UNL     1       1.993   8.560  19.620  1.00  0.00     0.167 HD
ENDBRANCH   1   6
BRANCH   5  21
HETATM   21  O4  UNL     1       0.704  13.868  20.640  1.00  0.00    -0.375 OA
ATOM     22  H4  UNL     1       0.152  14.598  20.897  1.00  0.00     0.211 HD
ENDBRANCH   5  21
BRANCH   3  23
HETATM   23  C8  UNL     1       1.801  12.534  24.956  1.00  0.00     0.245 C 
BRANCH  23  24
HETATM   24  O2  UNL     1       2.781  11.601  25.095  1.00  0.00    -0.395 OA
ATOM     25  H2  UNL     1       2.787  11.184  25.949  1.00  0.00     0.209 HD
ENDBRANCH  23  24
ENDBRANCH   3  23
BRANCH   3  26
HETATM   26  N6  UNL     1       2.427  14.721  24.245  1.00  0.00    -0.312 N 
HETATM   27  C9  UNL     1       3.019  15.018  25.482  1.00  0.00     0.246 C 
HETATM   28  O3  UNL     1       3.213  14.093  26.307  1.00  0.00    -0.272 OA
ATOM     29  H6  UNL     1       2.284  15.514  23.621  1.00  0.00     0.167 HD
BRANCH  27  30
HETATM   30  C10 UNL     1       3.429  16.407  25.856  1.00  0.00     0.332 C 
BRANCH  30  31
HETATM   31  N7  UNL     1       4.002  17.065  24.699  1.00  0.00    -0.071 N 
ATOM     32  H73 UNL     1       4.268  16.403  23.969  1.00  0.00     0.274 HD
ATOM     33  H72 UNL     1       3.307  17.591  24.170  1.00  0.00     0.274 HD
ATOM     34  H71 UNL     1       4.784  17.649  24.996  1.00  0.00     0.274 HD
ENDBRANCH  30  31
ENDBRANCH  27  30
ENDBRANCH   3  26
BRANCH   4  35
HETATM   35  N9  UNL     1       0.275  14.800  22.893  1.00  0.00    -0.357 NA
ATOM     36  H92 UNL     1      -0.220  15.040  23.753  1.00  0.00     0.171 HD
ATOM     37  H91 UNL     1      -0.343  14.955  22.096  1.00  0.00     0.171 HD
ENDBRANCH   4  35
TORSDOF 8
ENDMDL
MODEL 3
REMARK VINA RESULT: -8.243510657      3.730      6.992
REMARK  8 active torsions:
REMARK  status: ('A' for Active; 'I' for Inactive)
REMARK    1  A    between atoms: N5_15  and  C6_16 
REMARK    2  A    between atoms: C7_18  and  C8_19 
REMARK    3  A    between atoms: C7_18  and  N6_22 
REMARK    4  A    between atoms: C8_19  and  O2_20 
REMARK       I    between atoms: N6_22  and  C9_24 
REMARK    5  A    between atoms: C9_24  and  C10_26 
REMARK    6  A    between atoms: C10_26  and  N7_27 
REMARK    7  A    between atoms: N8_31  and  N9_32 
REMARK    8  A    between atoms: C11_35  and  O4_36 
ROOT
HETATM    1  C6  UNL     1       4.122   9.962  23.509  1.00  0.00     0.279 A 
HETATM    2  O1  UNL     1       3.523  11.192  23.549  1.00  0.00    -0.315 OA
HETATM    3  C7  UNL     1       2.616  11.296  22.502  1.00  0.00     0.241 A 
HETATM    4  N8  UNL     1       2.588  10.072  21.795  1.00  0.00    -0.149 NA
HETATM    5  C11 UNL     1       3.516   9.167  22.388  1.00  0.00     0.265 A 
ENDROOT
BRANCH   1   6
HETATM    6  N5  UNL     1       3.996   9.248  24.787  1.00  0.00    -0.296 N 
HETATM    7  C3  UNL     1       3.421   9.683  25.929  1.00  0.00     0.142 A 
HETATM    8  N3  UNL     1       2.822  10.857  26.196  1.00  0.00    -0.336 N 
HETATM    9  C4  UNL     1       3.509   8.714  26.901  1.00  0.00     0.122 A 
HETATM   10  C2  UNL     1       2.328  11.029  27.433  1.00  0.00     0.183 A 
ATOM     11  H3  UNL     1       2.748  11.588  25.488  1.00  0.00     0.168 HD
HETATM   12  N2  UNL     1       2.396  10.110  28.405  1.00  0.00    -0.337 N 
HETATM   13  C1  UNL     1       2.989   8.938  28.151  1.00  0.00     0.131 A 
ATOM     14  H2  UNL     1       2.000  10.301  29.325  1.00  0.00     0.168 HD
HETATM   15  N1  UNL     1       3.092   8.001  29.039  1.00  0.00    -0.383 N 
ATOM     16  H12 UNL     1       2.706   8.167  29.969  1.00  0.00     0.157 HD
ATOM     17  H11 UNL     1       3.544   7.107  28.846  1.00  0.00     0.157 HD
HETATM   18  N4  UNL     1       4.150   7.680  26.327  1.00  0.00    -0.346 N 
HETATM   19  C5  UNL     1       4.435   8.009  25.071  1.00  0.00     0.188 A 
ATOM     20  H4  UNL     1       4.379   6.794  26.778  1.00  0.00     0.167 HD
ENDBRANCH   1   6
BRANCH   5  21
HETATM   21  O4  UNL     1       4.455   8.636  21.501  1.00  0.00    -0.375 OA
ATOM     22  H4  UNL     1       4.073   8.111  20.808  1.00  0.00     0.211 HD
ENDBRANCH   5  21
BRANCH   3  23
HETATM   23  C8  UNL     1       1.260  11.578  23.157  1.00  0.00     0.245 C 
BRANCH  23  24
HETATM   24  O2  UNL     1       1.333  12.446  24.202  1.00  0.00    -0.395 OA
ATOM     25  H2  UNL     1       0.525  12.507  24.699  1.00  0.00     0.209 HD
ENDBRANCH  23  24
ENDBRANCH   3  23
BRANCH   3  26
HETATM   26  N6  UNL     1       2.901  12.411  21.643  1.00  0.00    -0.312 N 
HETATM   27  C9  UNL     1       2.027  13.110  20.797  1.00  0.00     0.246 C 
HETATM   28  O3  UNL     1       0.826  12.756  20.727  1.00  0.00    -0.272 OA
ATOM     29  H6  UNL     1       3.867  12.738  21.650  1.00  0.00     0.167 HD
BRANCH  27  30
HETATM   30  C10 UNL     1       2.478  14.271  19.969  1.00  0.00     0.332 C 
BRANCH  30  31
HETATM   31  N7  UNL     1       2.571  15.451  20.807  1.00  0.00    -0.071 N 
ATOM     32  H73 UNL     1       1.764  15.551  21.424  1.00  0.00     0.274 HD
ATOM     33  H72 UNL     1       3.290  15.360  21.524  1.00  0.00     0.274 HD
ATOM     34  H71 UNL     1       2.713  16.272  20.219  1.00  0.00     0.274 HD
ENDBRANCH  30  31
ENDBRANCH  27  30
ENDBRANCH   3  26
BRANCH   4  35
HETATM   35  N9  UNL     1       2.814  10.165  20.454  1.00  0.00    -0.357 NA
ATOM     36  H92 UNL     1       2.949  11.140  20.187  1.00  0.00     0.171 HD
ATOM     37  H91 UNL     1       2.096   9.750  19.859  1.00  0.00     0.171 HD
ENDBRANCH   4  35
TORSDOF 8
ENDMDL
MODEL 4
REMARK VINA RESULT: -8.233010157      0.991      1.961
REMARK  8 active torsions:
REMARK  status: ('A' for Active; 'I' for Inactive)
REMARK    1  A    between atoms: N5_15  and  C6_16 
REMARK    2  A    between atoms: C7_18  and  C8_19 
REMARK    3  A    between atoms: C7_18  and  N6_22 
REMARK    4  A    between atoms: C8_19  and  O2_20 
REMARK       I    between atoms: N6_22  and  C9_24 
REMARK    5  A    between atoms: C9_24  and  C10_26 
REMARK    6  A    between atoms: C10_26  and  N7_27 
REMARK    7  A    between atoms: N8_31  and  N9_32 
REMARK    8  A    between atoms: C11_35  and  O4_36 
ROOT
HETATM    1  C6  UNL     1       4.597   6.929  25.169  1.00  0.00     0.279 A 
HETATM    2  O1  UNL     1       4.984   5.864  25.937  1.00  0.00    -0.315 OA
HETATM    3  C7  UNL     1       6.325   5.589  25.697  1.00  0.00     0.241 A 
HETATM    4  N8  UNL     1       6.833   6.542  24.786  1.00  0.00    -0.149 NA
HETATM    5  C11 UNL     1       5.790   7.439  24.414  1.00  0.00     0.265 A 
ENDROOT
BRANCH   1   6
HETATM    6  N5  UNL     1       3.992   7.996  25.978  1.00  0.00    -0.296 N 
HETATM    7  C3  UNL     1       3.407   9.136  25.549  1.00  0.00     0.142 A 
HETATM    8  N3  UNL     1       3.224   9.588  24.295  1.00  0.00    -0.336 N 
HETATM    9  C4  UNL     1       2.966   9.874  26.622  1.00  0.00     0.122 A 
HETATM   10  C2  UNL     1       2.603  10.769  24.151  1.00  0.00     0.183 A 
ATOM     11  H3  UNL     1       3.545   9.055  23.487  1.00  0.00     0.168 HD
HETATM   12  N2  UNL     1       2.160  11.516  25.171  1.00  0.00    -0.337 N 
HETATM   13  C1  UNL     1       2.336  11.077  26.423  1.00  0.00     0.131 A 
ATOM     14  H2  UNL     1       1.694  12.407  24.996  1.00  0.00     0.168 HD
HETATM   15  N1  UNL     1       1.935  11.742  27.459  1.00  0.00    -0.383 N 
ATOM     16  H12 UNL     1       1.467  12.637  27.311  1.00  0.00     0.157 HD
ATOM     17  H11 UNL     1       2.069  11.408  28.413  1.00  0.00     0.157 HD
HETATM   18  N4  UNL     1       3.294   9.160  27.714  1.00  0.00    -0.346 N 
HETATM   19  C5  UNL     1       3.903   8.047  27.319  1.00  0.00     0.188 A 
ATOM     20  H4  UNL     1       3.107   9.427  28.681  1.00  0.00     0.167 HD
ENDBRANCH   1   6
BRANCH   5  21
HETATM   21  O4  UNL     1       5.581   7.546  23.037  1.00  0.00    -0.375 OA
ATOM     22  H4  UNL     1       6.372   7.724  22.542  1.00  0.00     0.211 HD
ENDBRANCH   5  21
BRANCH   3  23
HETATM   23  C8  UNL     1       7.021   5.709  27.057  1.00  0.00     0.245 C 
BRANCH  23  24
HETATM   24  O2  UNL     1       6.156   5.768  28.105  1.00  0.00    -0.395 OA
ATOM     25  H2  UNL     1       6.585   5.904  28.942  1.00  0.00     0.209 HD
ENDBRANCH  23  24
ENDBRANCH   3  23
BRANCH   3  26
HETATM   26  N6  UNL     1       6.531   4.242  25.243  1.00  0.00    -0.312 N 
HETATM   27  C9  UNL     1       6.794   3.092  26.004  1.00  0.00     0.246 C 
HETATM   28  O3  UNL     1       6.885   3.190  27.252  1.00  0.00    -0.272 OA
ATOM     29  H6  UNL     1       6.480   4.103  24.235  1.00  0.00     0.167 HD
BRANCH  27  30
HETATM   30  C10 UNL     1       6.971   1.746  25.378  1.00  0.00     0.332 C 
BRANCH  30  31
HETATM   31  N7  UNL     1       7.200   1.905  23.956  1.00  0.00    -0.071 N 
ATOM     32  H73 UNL     1       7.801   2.703  23.747  1.00  0.00     0.274 HD
ATOM     33  H72 UNL     1       7.797   1.171  23.575  1.00  0.00     0.274 HD
ATOM     34  H71 UNL     1       6.302   1.961  23.474  1.00  0.00     0.274 HD
ENDBRANCH  30  31
ENDBRANCH  27  30
ENDBRANCH   3  26
BRANCH   4  35
HETATM   35  N9  UNL     1       7.431   6.029  23.674  1.00  0.00    -0.357 NA
ATOM     36  H92 UNL     1       8.237   5.462  23.938  1.00  0.00     0.171 HD
ATOM     37  H91 UNL     1       7.717   6.714  22.974  1.00  0.00     0.171 HD
ENDBRANCH   4  35
TORSDOF 8
ENDMDL
MODEL 5
REMARK VINA RESULT: -8.230233753      2.511      3.741
REMARK  8 active torsions:
REMARK  status: ('A' for Active; 'I' for Inactive)
REMARK    1  A    between atoms: N5_15  and  C6_16 
REMARK    2  A    between atoms: C7_18  and  C8_19 
REMARK    3  A    between atoms: C7_18  and  N6_22 
REMARK    4  A    between atoms: C8_19  and  O2_20 
REMARK       I    between atoms: N6_22  and  C9_24 
REMARK    5  A    between atoms: C9_24  and  C10_26 
REMARK    6  A    between atoms: C10_26  and  N7_27 
REMARK    7  A    between atoms: N8_31  and  N9_32 
REMARK    8  A    between atoms: C11_35  and  O4_36 
ROOT
HETATM    1  C6  UNL     1       5.726   5.734  25.017  1.00  0.00     0.279 A 
HETATM    2  O1  UNL     1       5.494   5.253  26.278  1.00  0.00    -0.315 OA
HETATM    3  C7  UNL     1       6.704   5.113  26.946  1.00  0.00     0.241 A 
HETATM    4  N8  UNL     1       7.746   5.571  26.109  1.00  0.00    -0.149 NA
HETATM    5  C11 UNL     1       7.197   5.995  24.864  1.00  0.00     0.265 A 
ENDROOT
BRANCH   1   6
HETATM    6  N5  UNL     1       4.946   6.948  24.742  1.00  0.00    -0.296 N 
HETATM    7  C3  UNL     1       4.575   7.445  23.541  1.00  0.00     0.142 A 
HETATM    8  N3  UNL     1       4.816   6.972  22.305  1.00  0.00    -0.336 N 
HETATM    9  C4  UNL     1       3.853   8.602  23.711  1.00  0.00     0.122 A 
HETATM   10  C2  UNL     1       4.324   7.673  21.271  1.00  0.00     0.183 A 
ATOM     11  H3  UNL     1       5.350   6.115  22.160  1.00  0.00     0.168 HD
HETATM   12  N2  UNL     1       3.616   8.803  21.397  1.00  0.00    -0.337 N 
HETATM   13  C1  UNL     1       3.371   9.284  22.621  1.00  0.00     0.131 A 
ATOM     14  H2  UNL     1       3.268   9.290  20.571  1.00  0.00     0.168 HD
HETATM   15  N1  UNL     1       2.694  10.370  22.823  1.00  0.00    -0.383 N 
ATOM     16  H12 UNL     1       2.337  10.877  22.013  1.00  0.00     0.157 HD
ATOM     17  H11 UNL     1       2.508  10.736  23.756  1.00  0.00     0.157 HD
HETATM   18  N4  UNL     1       3.789   8.800  25.040  1.00  0.00    -0.346 N 
HETATM   19  C5  UNL     1       4.443   7.811  25.642  1.00  0.00     0.188 A 
ATOM     20  H4  UNL     1       3.320   9.576  25.507  1.00  0.00     0.167 HD
ENDBRANCH   1   6
BRANCH   5  21
HETATM   21  O4  UNL     1       7.763   5.386  23.742  1.00  0.00    -0.375 OA
ATOM     22  H4  UNL     1       7.504   4.479  23.627  1.00  0.00     0.211 HD
ENDBRANCH   5  21
BRANCH   3  23
HETATM   23  C8  UNL     1       6.587   5.987  28.199  1.00  0.00     0.245 C 
BRANCH  23  24
HETATM   24  O2  UNL     1       6.469   5.272  29.349  1.00  0.00    -0.395 OA
ATOM     25  H2  UNL     1       7.129   5.488  29.999  1.00  0.00     0.209 HD
ENDBRANCH  23  24
ENDBRANCH   3  23
BRANCH   3  26
HETATM   26  N6  UNL     1       6.924   3.768  27.398  1.00  0.00    -0.312 N 
HETATM   27  C9  UNL     1       6.975   2.588  26.641  1.00  0.00     0.246 C 
HETATM   28  O3  UNL     1       6.802   2.646  25.400  1.00  0.00    -0.272 OA
ATOM     29  H6  UNL     1       7.060   3.656  28.402  1.00  0.00     0.167 HD
BRANCH  27  30
HETATM   30  C10 UNL     1       7.231   1.252  27.264  1.00  0.00     0.332 C 
BRANCH  30  31
HETATM   31  N7  UNL     1       8.411   1.332  28.102  1.00  0.00    -0.071 N 
ATOM     32  H73 UNL     1       8.370   2.114  28.756  1.00  0.00     0.274 HD
ATOM     33  H72 UNL     1       8.453   0.576  28.784  1.00  0.00     0.274 HD
ATOM     34  H71 UNL     1       9.242   1.366  27.511  1.00  0.00     0.274 HD
ENDBRANCH  30  31
ENDBRANCH  27  30
ENDBRANCH   3  26
BRANCH   4  35
HETATM   35  N9  UNL     1       8.760   4.685  25.897  1.00  0.00    -0.357 NA
ATOM     36  H92 UNL     1       9.223   4.885  25.011  1.00  0.00     0.171 HD
ATOM     37  H91 UNL     1       8.493   3.700  25.922  1.00  0.00     0.171 HD
ENDBRANCH   4  35
TORSDOF 8
ENDMDL
