MODEL 1
REMARK VINA RESULT: -7.420680190      0.000      0.000
REMARK  12 active torsions:
REMARK  status: ('A' for Active; 'I' for Inactive)
REMARK    1  A    between atoms: C2_2  and  O1_3 
REMARK    2  A    between atoms: C2_2  and  C3_5 
REMARK    3  A    between atoms: C3_5  and  O2_6 
REMARK    4  A    between atoms: C3_5  and  C4_8 
REMARK    5  A    between atoms: C4_8  and  O3_9 
REMARK    6  A    between atoms: C4_8  and  C5_11 
REMARK    7  A    between atoms: C5_11  and  O4_12 
REMARK    8  A    between atoms: C5_11  and  C6_14 
REMARK    9  A    between atoms: C6_14  and  O5_15 
REMARK   10  A    between atoms: C6_14  and  N1_17 
REMARK   11  A    between atoms: C8_19  and  O6_20 
REMARK   12  A    between atoms: C12_31  and  N5_32 
ROOT
HETATM    1  N1  UNL     1       5.375   7.976  25.735  1.00  0.00     0.163 N 
HETATM    2  C7  UNL     1       4.735   9.021  24.973  1.00  0.00     0.319 C 
HETATM    3  C8  UNL     1       3.335   9.071  25.544  1.00  0.00     0.221 C 
HETATM    4  C9  UNL     1       3.514   8.645  26.938  1.00  0.00     0.220 C 
HETATM    5  O7  UNL     1       2.716   8.796  27.842  1.00  0.00    -0.290 OA
HETATM    6  C10 UNL     1       4.848   8.000  27.030  1.00  0.00     0.346 C 
HETATM    7  N2  UNL     1       4.718   6.783  27.743  1.00  0.00    -0.320 N 
ATOM      8  H2  UNL     1       3.967   6.112  27.584  1.00  0.00     0.165 HD
HETATM    9  C11 UNL     1       5.651   6.617  28.613  1.00  0.00     0.188 C 
HETATM   10  N3  UNL     1       5.832   5.504  29.510  1.00  0.00    -0.064 NA
HETATM   11  N4  UNL     1       6.520   7.736  28.559  1.00  0.00    -0.333 N 
ATOM     12  H4  UNL     1       7.494   7.774  28.860  1.00  0.00     0.164 HD
HETATM   13  C12 UNL     1       5.738   8.814  27.988  1.00  0.00     0.352 C 
ENDROOT
BRANCH   1  14
HETATM   14  C6  UNL     1       5.530   6.810  25.009  1.00  0.00     0.392 C 
BRANCH  14  15
HETATM   15  C5  UNL     1       6.930   6.214  25.053  1.00  0.00     0.208 C 
BRANCH  15  16
HETATM   16  C4  UNL     1       6.813   4.756  25.456  1.00  0.00     0.182 C 
BRANCH  16  17
HETATM   17  C3  UNL     1       7.838   4.301  26.434  1.00  0.00     0.177 C 
BRANCH  17  18
HETATM   18  C2  UNL     1       8.083   2.807  26.464  1.00  0.00     0.145 C 
HETATM   19  C1  UNL     1       8.052   2.204  27.839  1.00  0.00     0.042 C 
BRANCH  18  20
HETATM   20  O1  UNL     1       9.432   2.660  26.025  1.00  0.00    -0.393 OA
ATOM     21  H1  UNL     1       9.732   3.544  25.849  1.00  0.00     0.210 HD
ENDBRANCH  18  20
ENDBRANCH  17  18
BRANCH  17  22
HETATM   22  O2  UNL     1       9.076   4.824  25.922  1.00  0.00    -0.390 OA
ATOM     23  H2  UNL     1       8.835   5.143  25.060  1.00  0.00     0.210 HD
ENDBRANCH  17  22
ENDBRANCH  16  17
BRANCH  16  24
HETATM   24  O3  UNL     1       7.093   4.030  24.257  1.00  0.00    -0.390 OA
ATOM     25  H3  UNL     1       6.261   3.657  23.992  1.00  0.00     0.210 HD
ENDBRANCH  16  24
ENDBRANCH  15  16
BRANCH  15  26
HETATM   26  O4  UNL     1       7.496   6.262  23.755  1.00  0.00    -0.388 OA
ATOM     27  H4  UNL     1       7.970   7.081  23.674  1.00  0.00     0.210 HD
ENDBRANCH  15  26
ENDBRANCH  14  15
BRANCH  14  28
HETATM   28  O5  UNL     1       4.665   5.768  25.273  1.00  0.00    -0.366 OA
ATOM     29  H5  UNL     1       3.795   6.149  25.291  1.00  0.00     0.212 HD
ENDBRANCH  14  28
ENDBRANCH   1  14
BRANCH   3  30
HETATM   30  O6  UNL     1       2.794  10.355  25.443  1.00  0.00    -0.386 OA
ATOM     31  H6  UNL     1       1.896  10.375  25.754  1.00  0.00     0.210 HD
ENDBRANCH   3  30
BRANCH  13  32
HETATM   32  N5  UNL     1       4.963   9.393  29.056  1.00  0.00    -0.053 N 
ATOM     33  H53 UNL     1       3.991   9.536  28.780  1.00  0.00     0.277 HD
ATOM     34  H52 UNL     1       4.813   8.728  29.815  1.00  0.00     0.277 HD
ATOM     35  H51 UNL     1       5.387  10.257  29.393  1.00  0.00     0.277 HD
ENDBRANCH  13  32
TORSDOF 12
ENDMDL
MODEL 2
REMARK VINA RESULT: -7.393252964      3.311      5.397
REMARK  12 active torsions:
REMARK  status: ('A' for Active; 'I' for Inactive)
REMARK    1  A    between atoms: C2_2  and  O1_3 
REMARK    2  A    between atoms: C2_2  and  C3_5 
REMARK    3  A    between atoms: C3_5  and  O2_6 
REMARK    4  A    between atoms: C3_5  and  C4_8 
REMARK    5  A    between atoms: C4_8  and  O3_9 
REMARK    6  A    between atoms: C4_8  and  C5_11 
REMARK    7  A    between atoms: C5_11  and  O4_12 
REMARK    8  A    between atoms: C5_11  and  C6_14 
REMARK    9  A    between atoms: C6_14  and  O5_15 
REMARK   10  A    between atoms: C6_14  and  N1_17 
REMARK   11  A    between atoms: C8_19  and  O6_20 
REMARK   12  A    between atoms: C12_31  and  N5_32 
ROOT
HETATM    1  N1  UNL     1       7.368   4.298  29.267  1.00  0.00     0.163 N 
HETATM    2  C7  UNL     1       6.389   5.345  29.104  1.00  0.00     0.319 C 
HETATM    3  C8  UNL     1       5.872   5.569  30.509  1.00  0.00     0.221 C 
HETATM    4  C9  UNL     1       7.017   5.224  31.360  1.00  0.00     0.220 C 
HETATM    5  O7  UNL     1       7.152   5.514  32.533  1.00  0.00    -0.290 OA
HETATM    6  C10 UNL     1       7.973   4.461  30.518  1.00  0.00     0.346 C 
HETATM    7  N2  UNL     1       8.396   3.315  31.233  1.00  0.00    -0.320 N 
ATOM      8  H2  UNL     1       7.763   2.709  31.757  1.00  0.00     0.165 HD
HETATM    9  C11 UNL     1       9.665   3.119  31.150  1.00  0.00     0.188 C 
HETATM   10  N3  UNL     1      10.434   2.058  31.748  1.00  0.00    -0.064 NA
HETATM   11  N4  UNL     1      10.225   4.142  30.344  1.00  0.00    -0.333 N 
ATOM     12  H4  UNL     1      11.102   4.107  29.826  1.00  0.00     0.164 HD
HETATM   13  C12 UNL     1       9.292   5.249  30.409  1.00  0.00     0.352 C 
ENDROOT
BRANCH   1  14
HETATM   14  C6  UNL     1       6.918   3.075  28.805  1.00  0.00     0.392 C 
BRANCH  14  15
HETATM   15  C5  UNL     1       7.806   2.427  27.752  1.00  0.00     0.208 C 
BRANCH  15  16
HETATM   16  C4  UNL     1       8.103   3.460  26.681  1.00  0.00     0.182 C 
BRANCH  16  17
HETATM   17  C3  UNL     1       6.991   3.693  25.722  1.00  0.00     0.177 C 
BRANCH  17  18
HETATM   18  C2  UNL     1       6.929   5.087  25.133  1.00  0.00     0.145 C 
HETATM   19  C1  UNL     1       5.679   5.847  25.477  1.00  0.00     0.042 C 
BRANCH  18  20
HETATM   20  O1  UNL     1       6.857   4.876  23.724  1.00  0.00    -0.393 OA
ATOM     21  H1  UNL     1       7.116   5.704  23.338  1.00  0.00     0.210 HD
ENDBRANCH  18  20
ENDBRANCH  17  18
BRANCH  17  22
HETATM   22  O2  UNL     1       7.322   2.875  24.587  1.00  0.00    -0.390 OA
ATOM     23  H2  UNL     1       6.645   2.209  24.596  1.00  0.00     0.210 HD
ENDBRANCH  17  22
ENDBRANCH  16  17
BRANCH  16  24
HETATM   24  O3  UNL     1       9.152   2.878  25.904  1.00  0.00    -0.390 OA
ATOM     25  H3  UNL     1       9.534   2.211  26.461  1.00  0.00     0.210 HD
ENDBRANCH  16  24
ENDBRANCH  15  16
BRANCH  15  26
HETATM   26  O4  UNL     1       9.036   2.054  28.349  1.00  0.00    -0.388 OA
ATOM     27  H4  UNL     1       8.841   1.644  29.184  1.00  0.00     0.210 HD
ENDBRANCH  15  26
ENDBRANCH  14  15
BRANCH  14  28
HETATM   28  O5  UNL     1       6.654   2.092  29.737  1.00  0.00    -0.366 OA
ATOM     29  H5  UNL     1       5.851   2.354  30.173  1.00  0.00     0.212 HD
ENDBRANCH  14  28
ENDBRANCH   1  14
BRANCH   3  30
HETATM   30  O6  UNL     1       5.451   6.890  30.687  1.00  0.00    -0.386 OA
ATOM     31  H6  UNL     1       6.192   7.480  30.753  1.00  0.00     0.210 HD
ENDBRANCH   3  30
BRANCH  13  32
HETATM   32  N5  UNL     1       9.569   5.972  31.625  1.00  0.00    -0.053 N 
ATOM     33  H53 UNL     1       8.788   5.921  32.279  1.00  0.00     0.277 HD
ATOM     34  H52 UNL     1      10.277   5.501  32.189  1.00  0.00     0.277 HD
ATOM     35  H51 UNL     1       9.831   6.938  31.428  1.00  0.00     0.277 HD
ENDBRANCH  13  32
TORSDOF 12
ENDMDL
MODEL 3
REMARK VINA RESULT: -7.347760814      5.391      9.335
REMARK  12 active torsions:
REMARK  status: ('A' for Active; 'I' for Inactive)
REMARK    1  A    between atoms: C2_2  and  O1_3 
REMARK    2  A    between atoms: C2_2  and  C3_5 
REMARK    3  A    between atoms: C3_5  and  O2_6 
REMARK    4  A    between atoms: C3_5  and  C4_8 
REMARK    5  A    between atoms: C4_8  and  O3_9 
REMARK    6  A    between atoms: C4_8  and  C5_11 
REMARK    7  A    between atoms: C5_11  and  O4_12 
REMARK    8  A    between atoms: C5_11  and  C6_14 
REMARK    9  A    between atoms: C6_14  and  O5_15 
REMARK   10  A    between atoms: C6_14  and  N1_17 
REMARK   11  A    between atoms: C8_19  and  O6_20 
REMARK   12  A    between atoms: C12_31  and  N5_32 
ROOT
HETATM    1  N1  UNL     1       2.478   9.536  21.411  1.00  0.00     0.163 N 
HETATM    2  C7  UNL     1       2.816   8.222  20.922  1.00  0.00     0.319 C 
HETATM    3  C8  UNL     1       4.303   8.120  21.178  1.00  0.00     0.221 C 
HETATM    4  C9  UNL     1       4.512   8.968  22.358  1.00  0.00     0.220 C 
HETATM    5  O7  UNL     1       5.492   8.968  23.077  1.00  0.00    -0.290 OA
HETATM    6  C10 UNL     1       3.304   9.818  22.504  1.00  0.00     0.346 C 
HETATM    7  N2  UNL     1       3.711  11.155  22.733  1.00  0.00    -0.320 N 
ATOM      8  H2  UNL     1       4.456  11.616  22.210  1.00  0.00     0.165 HD
HETATM    9  C11 UNL     1       3.039  11.723  23.671  1.00  0.00     0.188 C 
HETATM   10  N3  UNL     1       3.183  13.068  24.168  1.00  0.00    -0.064 NA
HETATM   11  N4  UNL     1       2.089  10.796  24.168  1.00  0.00    -0.333 N 
ATOM     12  H4  UNL     1       1.220  11.008  24.658  1.00  0.00     0.164 HD
HETATM   13  C12 UNL     1       2.608   9.485  23.837  1.00  0.00     0.352 C 
ENDROOT
BRANCH   1  14
HETATM   14  C6  UNL     1       2.251  10.440  20.388  1.00  0.00     0.392 C 
BRANCH  14  15
HETATM   15  C5  UNL     1       1.286  11.564  20.735  1.00  0.00     0.208 C 
BRANCH  15  16
HETATM   16  C4  UNL     1       2.006  12.886  20.541  1.00  0.00     0.182 C 
BRANCH  16  17
HETATM   17  C3  UNL     1       1.395  14.034  21.262  1.00  0.00     0.177 C 
BRANCH  17  18
HETATM   18  C2  UNL     1       2.353  15.147  21.630  1.00  0.00     0.145 C 
HETATM   19  C1  UNL     1       1.693  16.360  22.221  1.00  0.00     0.042 C 
BRANCH  18  20
HETATM   20  O1  UNL     1       2.884  15.587  20.381  1.00  0.00    -0.393 OA
ATOM     21  H1  UNL     1       2.953  14.800  19.852  1.00  0.00     0.210 HD
ENDBRANCH  18  20
ENDBRANCH  17  18
BRANCH  17  22
HETATM   22  O2  UNL     1       0.537  14.651  20.287  1.00  0.00    -0.390 OA
ATOM     23  H2  UNL     1      -0.245  14.112  20.316  1.00  0.00     0.210 HD
ENDBRANCH  17  22
ENDBRANCH  16  17
BRANCH  16  24
HETATM   24  O3  UNL     1       1.838  13.184  19.153  1.00  0.00    -0.390 OA
ATOM     25  H3  UNL     1       2.084  12.388  18.696  1.00  0.00     0.210 HD
ENDBRANCH  16  24
ENDBRANCH  15  16
BRANCH  15  26
HETATM   26  O4  UNL     1       0.191  11.530  19.836  1.00  0.00    -0.388 OA
ATOM     27  H4  UNL     1      -0.606  11.620  20.345  1.00  0.00     0.210 HD
ENDBRANCH  15  26
ENDBRANCH  14  15
BRANCH  14  28
HETATM   28  O5  UNL     1       3.348  11.045  19.810  1.00  0.00    -0.366 OA
ATOM     29  H5  UNL     1       3.256  10.913  18.873  1.00  0.00     0.212 HD
ENDBRANCH  14  28
ENDBRANCH   1  14
BRANCH   3  30
HETATM   30  O6  UNL     1       4.689   6.794  21.397  1.00  0.00    -0.386 OA
ATOM     31  H6  UNL     1       5.574   6.746  21.737  1.00  0.00     0.210 HD
ENDBRANCH   3  30
BRANCH  13  32
HETATM   32  N5  UNL     1       3.570   9.136  24.853  1.00  0.00    -0.053 N 
ATOM     33  H53 UNL     1       3.442   8.177  25.177  1.00  0.00     0.277 HD
ATOM     34  H52 UNL     1       4.509   9.046  24.466  1.00  0.00     0.277 HD
ATOM     35  H51 UNL     1       3.545   9.799  25.628  1.00  0.00     0.277 HD
ENDBRANCH  13  32
TORSDOF 12
ENDMDL
MODEL 4
REMARK VINA RESULT: -7.244404150      8.720     10.438
REMARK  12 active torsions:
REMARK  status: ('A' for Active; 'I' for Inactive)
REMARK    1  A    between atoms: C2_2  and  O1_3 
REMARK    2  A    between atoms: C2_2  and  C3_5 
REMARK    3  A    between atoms: C3_5  and  O2_6 
REMARK    4  A    between atoms: C3_5  and  C4_8 
REMARK    5  A    between atoms: C4_8  and  O3_9 
REMARK    6  A    between atoms: C4_8  and  C5_11 
REMARK    7  A    between atoms: C5_11  and  O4_12 
REMARK    8  A    between atoms: C5_11  and  C6_14 
REMARK    9  A    between atoms: C6_14  and  O5_15 
REMARK   10  A    between atoms: C6_14  and  N1_17 
REMARK   11  A    between atoms: C8_19  and  O6_20 
REMARK   12  A    between atoms: C12_31  and  N5_32 
ROOT
HETATM    1  N1  UNL     1       1.030  15.275  23.048  1.00  0.00     0.163 N 
HETATM    2  C7  UNL     1       0.855  13.885  23.394  1.00  0.00     0.319 C 
HETATM    3  C8  UNL     1       2.165  13.517  24.056  1.00  0.00     0.221 C 
HETATM    4  C9  UNL     1       2.615  14.778  24.659  1.00  0.00     0.220 C 
HETATM    5  O7  UNL     1       3.471  14.898  25.515  1.00  0.00    -0.290 OA
HETATM    6  C10 UNL     1       1.831  15.869  24.029  1.00  0.00     0.346 C 
HETATM    7  N2  UNL     1       2.715  16.911  23.658  1.00  0.00    -0.320 N 
ATOM      8  H2  UNL     1       3.611  16.755  23.197  1.00  0.00     0.165 HD
HETATM    9  C11 UNL     1       2.263  18.076  23.965  1.00  0.00     0.188 C 
HETATM   10  N3  UNL     1       2.892  19.353  23.739  1.00  0.00    -0.064 NA
HETATM   11  N4  UNL     1       0.997  17.918  24.582  1.00  0.00    -0.333 N 
ATOM     12  H4  UNL     1       0.252  18.612  24.646  1.00  0.00     0.164 HD
HETATM   13  C12 UNL     1       0.980  16.568  25.106  1.00  0.00     0.352 C 
ENDROOT
BRANCH   1  14
HETATM   14  C6  UNL     1       1.239  15.461  21.693  1.00  0.00     0.392 C 
BRANCH  14  15
HETATM   15  C5  UNL     1       2.403  14.669  21.115  1.00  0.00     0.208 C 
BRANCH  15  16
HETATM   16  C4  UNL     1       1.838  13.499  20.331  1.00  0.00     0.182 C 
BRANCH  16  17
HETATM   17  C3  UNL     1       2.440  12.181  20.669  1.00  0.00     0.177 C 
BRANCH  17  18
HETATM   18  C2  UNL     1       1.451  11.052  20.863  1.00  0.00     0.145 C 
HETATM   19  C1  UNL     1       1.975   9.698  20.477  1.00  0.00     0.042 C 
BRANCH  18  20
HETATM   20  O1  UNL     1       0.410  11.326  19.927  1.00  0.00    -0.393 OA
ATOM     21  H1  UNL     1       0.653  10.849  19.141  1.00  0.00     0.210 HD
ENDBRANCH  18  20
ENDBRANCH  17  18
BRANCH  17  22
HETATM   22  O2  UNL     1       3.145  11.796  19.476  1.00  0.00    -0.390 OA
ATOM     23  H2  UNL     1       3.397  10.898  19.655  1.00  0.00     0.210 HD
ENDBRANCH  17  22
ENDBRANCH  16  17
BRANCH  16  24
HETATM   24  O3  UNL     1       2.227  13.753  18.979  1.00  0.00    -0.390 OA
ATOM     25  H3  UNL     1       3.109  13.409  18.906  1.00  0.00     0.210 HD
ENDBRANCH  16  24
ENDBRANCH  15  16
BRANCH  15  26
HETATM   26  O4  UNL     1       3.120  15.492  20.211  1.00  0.00    -0.388 OA
ATOM     27  H4  UNL     1       2.522  15.754  19.520  1.00  0.00     0.210 HD
ENDBRANCH  15  26
ENDBRANCH  14  15
BRANCH  14  28
HETATM   28  O5  UNL     1       0.173  15.249  20.843  1.00  0.00    -0.366 OA
ATOM     29  H5  UNL     1       0.531  14.808  20.081  1.00  0.00     0.212 HD
ENDBRANCH  14  28
ENDBRANCH   1  14
BRANCH   3  30
HETATM   30  O6  UNL     1       1.985  12.505  25.003  1.00  0.00    -0.386 OA
ATOM     31  H6  UNL     1       1.353  11.863  24.704  1.00  0.00     0.210 HD
ENDBRANCH   3  30
BRANCH  13  32
HETATM   32  N5  UNL     1       1.662  16.591  26.376  1.00  0.00    -0.053 N 
ATOM     33  H53 UNL     1       2.191  15.733  26.534  1.00  0.00     0.277 HD
ATOM     34  H52 UNL     1       2.438  17.254  26.372  1.00  0.00     0.277 HD
ATOM     35  H51 UNL     1       1.014  16.779  27.140  1.00  0.00     0.277 HD
ENDBRANCH  13  32
TORSDOF 12
ENDMDL
MODEL 5
REMARK VINA RESULT: -7.201358727      2.867      5.665
REMARK  12 active torsions:
REMARK  status: ('A' for Active; 'I' for Inactive)
REMARK    1  A    between atoms: C2_2  and  O1_3 
REMARK    2  A    between atoms: C2_2  and  C3_5 
REMARK    3  A    between atoms: C3_5  and  O2_6 
REMARK    4  A    between atoms: C3_5  and  C4_8 
REMARK    5  A    between atoms: C4_8  and  O3_9 
REMARK    6  A    between atoms: C4_8  and  C5_11 
REMARK    7  A    between atoms: C5_11  and  O4_12 
REMARK    8  A    between atoms: C5_11  and  C6_14 
REMARK    9  A    between atoms: C6_14  and  O5_15 
REMARK   10  A    between atoms: C6_14  and  N1_17 
REMARK   11  A    between atoms: C8_19  and  O6_20 
REMARK   12  A    between atoms: C12_31  and  N5_32 
ROOT
HETATM    1  N1  UNL     1       4.149   7.725  26.599  1.00  0.00     0.163 N 
HETATM    2  C7  UNL     1       4.785   6.508  26.154  1.00  0.00     0.319 C 
HETATM    3  C8  UNL     1       6.081   6.480  26.934  1.00  0.00     0.221 C 
HETATM    4  C9  UNL     1       5.753   7.186  28.179  1.00  0.00     0.220 C 
HETATM    5  O7  UNL     1       6.401   7.166  29.207  1.00  0.00    -0.290 OA
HETATM    6  C10 UNL     1       4.488   7.925  27.941  1.00  0.00     0.346 C 
HETATM    7  N2  UNL     1       4.634   9.248  28.425  1.00  0.00    -0.320 N 
ATOM      8  H2  UNL     1       5.461   9.822  28.260  1.00  0.00     0.165 HD
HETATM    9  C11 UNL     1       3.610   9.647  29.094  1.00  0.00     0.188 C 
HETATM   10  N3  UNL     1       3.414  10.926  29.727  1.00  0.00    -0.064 NA
HETATM   11  N4  UNL     1       2.653   8.600  29.117  1.00  0.00    -0.333 N 
ATOM     12  H4  UNL     1       1.648   8.689  29.266  1.00  0.00     0.164 HD
HETATM   13  C12 UNL     1       3.399   7.381  28.885  1.00  0.00     0.352 C 
ENDROOT
BRANCH   1  14
HETATM   14  C6  UNL     1       4.208   8.731  25.651  1.00  0.00     0.392 C 
BRANCH  14  15
HETATM   15  C5  UNL     1       4.595   8.267  24.254  1.00  0.00     0.208 C 
BRANCH  15  16
HETATM   16  C4  UNL     1       3.800   9.078  23.248  1.00  0.00     0.182 C 
BRANCH  16  17
HETATM   17  C3  UNL     1       3.600   8.408  21.935  1.00  0.00     0.177 C 
BRANCH  17  18
HETATM   18  C2  UNL     1       2.562   9.047  21.036  1.00  0.00     0.145 C 
HETATM   19  C1  UNL     1       1.928   8.102  20.056  1.00  0.00     0.042 C 
BRANCH  18  20
HETATM   20  O1  UNL     1       3.303   9.967  20.236  1.00  0.00    -0.393 OA
ATOM     21  H1  UNL     1       4.214   9.806  20.456  1.00  0.00     0.210 HD
ENDBRANCH  18  20
ENDBRANCH  17  18
BRANCH  17  22
HETATM   22  O2  UNL     1       4.830   8.637  21.227  1.00  0.00    -0.390 OA
ATOM     23  H2  UNL     1       5.317   7.835  21.374  1.00  0.00     0.210 HD
ENDBRANCH  17  22
ENDBRANCH  16  17
BRANCH  16  24
HETATM   24  O3  UNL     1       4.627  10.210  22.968  1.00  0.00    -0.390 OA
ATOM     25  H3  UNL     1       5.283   9.894  22.358  1.00  0.00     0.210 HD
ENDBRANCH  16  24
ENDBRANCH  15  16
BRANCH  15  26
HETATM   26  O4  UNL     1       5.969   8.535  24.040  1.00  0.00    -0.388 OA
ATOM     27  H4  UNL     1       6.371   7.745  23.699  1.00  0.00     0.210 HD
ENDBRANCH  15  26
ENDBRANCH  14  15
BRANCH  14  28
HETATM   28  O5  UNL     1       3.095   9.531  25.493  1.00  0.00    -0.366 OA
ATOM     29  H5  UNL     1       2.495   9.039  24.945  1.00  0.00     0.212 HD
ENDBRANCH  14  28
ENDBRANCH   1  14
BRANCH   3  30
HETATM   30  O6  UNL     1       6.506   5.168  27.160  1.00  0.00    -0.386 OA
ATOM     31  H6  UNL     1       5.774   4.562  27.143  1.00  0.00     0.210 HD
ENDBRANCH   3  30
BRANCH  13  32
HETATM   32  N5  UNL     1       3.961   6.975  30.150  1.00  0.00    -0.053 N 
ATOM     33  H53 UNL     1       4.688   6.270  30.029  1.00  0.00     0.277 HD
ATOM     34  H52 UNL     1       4.528   7.715  30.563  1.00  0.00     0.277 HD
ATOM     35  H51 UNL     1       3.234   6.658  30.791  1.00  0.00     0.277 HD
ENDBRANCH  13  32
TORSDOF 12
ENDMDL
