MODEL 1
REMARK VINA RESULT: -8.351560978      0.000      0.000
REMARK  9 active torsions:
REMARK  status: ('A' for Active; 'I' for Inactive)
REMARK    1  A    between atoms: C2_2  and  O1_3 
REMARK    2  A    between atoms: C2_2  and  C3_5 
REMARK    3  A    between atoms: C3_5  and  O2_6 
REMARK    4  A    between atoms: C3_5  and  C4_8 
REMARK    5  A    between atoms: C4_8  and  C5_9 
REMARK    6  A    between atoms: C5_9  and  O3_10 
REMARK    7  A    between atoms: C5_9  and  O4_12 
REMARK    8  A    between atoms: C6_15  and  O6_16 
REMARK    9  A    between atoms: C7_18  and  N1_19 
ROOT
HETATM    1  C4  UNL     1       4.878   8.091  24.797  1.00  0.00     0.248 C 
HETATM    2  O5  UNL     1       5.814   8.926  24.187  1.00  0.00    -0.314 OA
HETATM    3  C6  UNL     1       5.078   9.769  23.337  1.00  0.00     0.311 C 
HETATM    4  C7  UNL     1       3.921   8.894  22.921  1.00  0.00     0.309 C 
HETATM    5  O9  UNL     1       3.719   8.127  24.026  1.00  0.00    -0.317 OA
ENDROOT
BRANCH   4   6
HETATM    6  N1  UNL     1       2.834   9.524  22.290  1.00  0.00    -0.099 N 
HETATM    7  C8  UNL     1       2.482   9.097  20.946  1.00  0.00     0.699 C 
HETATM    8  N2  UNL     1       3.032   7.953  20.624  1.00  0.00    -0.233 N 
HETATM    9  N3  UNL     1       1.677   9.677  19.950  1.00  0.00    -0.128 N 
ATOM     10  H22 UNL     1       3.616   7.532  21.347  1.00  0.00     0.174 HD
ATOM     11  H21 UNL     1       2.785   7.653  19.682  1.00  0.00     0.174 HD
HETATM   12  N4  UNL     1       1.165  10.977  19.943  1.00  0.00    -0.237 N 
ATOM     13  H3  UNL     1       1.443   9.088  19.150  1.00  0.00     0.205 HD
HETATM   14  C9  UNL     1       1.102  11.946  20.992  1.00  0.00     0.343 C 
ATOM     15  H4  UNL     1       0.775  11.282  19.051  1.00  0.00     0.192 HD
HETATM   16  O7  UNL     1       0.762  13.125  20.695  1.00  0.00    -0.245 OA
HETATM   17  N5  UNL     1       1.396  11.678  22.355  1.00  0.00    -0.259 N 
HETATM   18  C10 UNL     1       2.097  10.564  22.947  1.00  0.00     0.347 C 
ATOM     19  H5  UNL     1       1.062  12.379  23.016  1.00  0.00     0.175 HD
HETATM   20  O8  UNL     1       2.085  10.453  24.179  1.00  0.00    -0.246 OA
ENDBRANCH   4   6
BRANCH   3  21
HETATM   21  O6  UNL     1       4.720  10.963  23.915  1.00  0.00    -0.367 OA
ATOM     22  H6  UNL     1       4.090  11.461  23.407  1.00  0.00     0.212 HD
ENDBRANCH   3  21
BRANCH   1  23
HETATM   23  C3  UNL     1       5.410   6.751  25.090  1.00  0.00     0.214 C 
BRANCH  23  24
HETATM   24  C2  UNL     1       6.530   6.196  24.329  1.00  0.00     0.148 C 
HETATM   25  C1  UNL     1       6.787   4.776  24.874  1.00  0.00     0.042 C 
BRANCH  24  26
HETATM   26  O1  UNL     1       6.227   6.006  22.981  1.00  0.00    -0.393 OA
ATOM     27  H1  UNL     1       6.879   6.515  22.515  1.00  0.00     0.210 HD
ENDBRANCH  24  26
ENDBRANCH  23  24
BRANCH  23  28
HETATM   28  O2  UNL     1       5.801   6.760  26.453  1.00  0.00    -0.387 OA
ATOM     29  H2  UNL     1       5.342   7.480  26.868  1.00  0.00     0.210 HD
ENDBRANCH  23  28
ENDBRANCH   1  23
BRANCH   1  30
HETATM   30  C5  UNL     1       4.577   8.756  26.151  1.00  0.00     0.320 C 
BRANCH  30  31
HETATM   31  O3  UNL     1       3.301   9.303  26.204  1.00  0.00    -0.366 OA
ATOM     32  H3  UNL     1       3.169   9.847  26.971  1.00  0.00     0.212 HD
ENDBRANCH  30  31
BRANCH  30  33
HETATM   33  O4  UNL     1       5.456   9.831  26.368  1.00  0.00    -0.366 OA
ATOM     34  H4  UNL     1       5.148  10.365  27.090  1.00  0.00     0.212 HD
ENDBRANCH  30  33
ENDBRANCH   1  30
TORSDOF 9
ENDMDL
MODEL 2
REMARK VINA RESULT: -8.106991868      2.839      5.156
REMARK  9 active torsions:
REMARK  status: ('A' for Active; 'I' for Inactive)
REMARK    1  A    between atoms: C2_2  and  O1_3 
REMARK    2  A    between atoms: C2_2  and  C3_5 
REMARK    3  A    between atoms: C3_5  and  O2_6 
REMARK    4  A    between atoms: C3_5  and  C4_8 
REMARK    5  A    between atoms: C4_8  and  C5_9 
REMARK    6  A    between atoms: C5_9  and  O3_10 
REMARK    7  A    between atoms: C5_9  and  O4_12 
REMARK    8  A    between atoms: C6_15  and  O6_16 
REMARK    9  A    between atoms: C7_18  and  N1_19 
ROOT
HETATM    1  C4  UNL     1       4.357   8.081  23.150  1.00  0.00     0.248 C 
HETATM    2  O5  UNL     1       5.244   9.155  23.084  1.00  0.00    -0.314 OA
HETATM    3  C6  UNL     1       5.015   9.913  24.245  1.00  0.00     0.311 C 
HETATM    4  C7  UNL     1       3.544   9.690  24.503  1.00  0.00     0.309 C 
HETATM    5  O9  UNL     1       3.355   8.419  24.057  1.00  0.00    -0.317 OA
ENDROOT
BRANCH   4   6
HETATM    6  N1  UNL     1       3.046  10.080  25.758  1.00  0.00    -0.099 N 
HETATM    7  C8  UNL     1       2.264  11.303  25.834  1.00  0.00     0.699 C 
HETATM    8  N2  UNL     1       1.859  11.713  24.658  1.00  0.00    -0.233 N 
HETATM    9  N3  UNL     1       1.874  12.111  26.917  1.00  0.00    -0.128 N 
ATOM     10  H22 UNL     1       2.143  11.127  23.872  1.00  0.00     0.174 HD
ATOM     11  H21 UNL     1       1.311  12.571  24.711  1.00  0.00     0.174 HD
HETATM   12  N4  UNL     1       2.350  12.033  28.229  1.00  0.00    -0.237 N 
ATOM     13  H3  UNL     1       1.172  12.826  26.726  1.00  0.00     0.205 HD
HETATM   14  C9  UNL     1       3.128  11.019  28.866  1.00  0.00     0.343 C 
ATOM     15  H4  UNL     1       2.102  12.824  28.824  1.00  0.00     0.192 HD
HETATM   16  O7  UNL     1       3.598  11.260  30.013  1.00  0.00    -0.245 OA
HETATM   17  N5  UNL     1       3.415   9.748  28.300  1.00  0.00    -0.259 N 
HETATM   18  C10 UNL     1       3.306   9.301  26.933  1.00  0.00     0.347 C 
ATOM     19  H5  UNL     1       3.749   9.046  28.960  1.00  0.00     0.175 HD
HETATM   20  O8  UNL     1       3.447   8.094  26.700  1.00  0.00    -0.246 OA
ENDBRANCH   4   6
BRANCH   3  21
HETATM   21  O6  UNL     1       5.840   9.584  25.293  1.00  0.00    -0.367 OA
ATOM     22  H6  UNL     1       6.422  10.288  25.558  1.00  0.00     0.212 HD
ENDBRANCH   3  21
BRANCH   1  23
HETATM   23  C3  UNL     1       3.896   7.635  21.826  1.00  0.00     0.214 C 
BRANCH  23  24
HETATM   24  C2  UNL     1       3.518   8.597  20.791  1.00  0.00     0.148 C 
HETATM   25  C1  UNL     1       2.192   8.101  20.177  1.00  0.00     0.042 C 
BRANCH  24  26
HETATM   26  O1  UNL     1       3.218   9.857  21.306  1.00  0.00    -0.393 OA
ATOM     27  H1  UNL     1       3.287   9.753  22.248  1.00  0.00     0.210 HD
ENDBRANCH  24  26
ENDBRANCH  23  24
BRANCH  23  28
HETATM   28  O2  UNL     1       4.934   6.833  21.286  1.00  0.00    -0.387 OA
ATOM     29  H2  UNL     1       4.749   5.936  21.536  1.00  0.00     0.210 HD
ENDBRANCH  23  28
ENDBRANCH   1  23
BRANCH   1  30
HETATM   30  C5  UNL     1       5.177   6.926  23.748  1.00  0.00     0.320 C 
BRANCH  30  31
HETATM   31  O3  UNL     1       4.844   6.664  25.071  1.00  0.00    -0.366 OA
ATOM     32  H3  UNL     1       4.936   7.428  25.629  1.00  0.00     0.212 HD
ENDBRANCH  30  31
BRANCH  30  33
HETATM   33  O4  UNL     1       6.543   7.260  23.763  1.00  0.00    -0.366 OA
ATOM     34  H4  UNL     1       6.700   7.965  24.381  1.00  0.00     0.212 HD
ENDBRANCH  30  33
ENDBRANCH   1  30
TORSDOF 9
ENDMDL
MODEL 3
REMARK VINA RESULT: -8.069897969      2.071      6.232
REMARK  9 active torsions:
REMARK  status: ('A' for Active; 'I' for Inactive)
REMARK    1  A    between atoms: C2_2  and  O1_3 
REMARK    2  A    between atoms: C2_2  and  C3_5 
REMARK    3  A    between atoms: C3_5  and  O2_6 
REMARK    4  A    between atoms: C3_5  and  C4_8 
REMARK    5  A    between atoms: C4_8  and  C5_9 
REMARK    6  A    between atoms: C5_9  and  O3_10 
REMARK    7  A    between atoms: C5_9  and  O4_12 
REMARK    8  A    between atoms: C6_15  and  O6_16 
REMARK    9  A    between atoms: C7_18  and  N1_19 
ROOT
HETATM    1  C4  UNL     1       1.896  12.175  21.843  1.00  0.00     0.248 C 
HETATM    2  O5  UNL     1       0.980  11.402  22.557  1.00  0.00    -0.314 OA
HETATM    3  C6  UNL     1       1.708  10.305  23.051  1.00  0.00     0.311 C 
HETATM    4  C7  UNL     1       2.759  10.097  21.987  1.00  0.00     0.309 C 
HETATM    5  O9  UNL     1       2.990  11.364  21.548  1.00  0.00    -0.317 OA
ENDROOT
BRANCH   4   6
HETATM    6  N1  UNL     1       3.836   9.252  22.305  1.00  0.00    -0.099 N 
HETATM    7  C8  UNL     1       4.002   8.034  21.529  1.00  0.00     0.699 C 
HETATM    8  N2  UNL     1       3.305   8.047  20.421  1.00  0.00    -0.233 N 
HETATM    9  N3  UNL     1       4.759   6.869  21.749  1.00  0.00    -0.128 N 
ATOM     10  H22 UNL     1       2.756   8.892  20.262  1.00  0.00     0.174 HD
ATOM     11  H21 UNL     1       3.422   7.193  19.877  1.00  0.00     0.174 HD
HETATM   12  N4  UNL     1       5.402   6.503  22.934  1.00  0.00    -0.237 N 
ATOM     13  H3  UNL     1       4.847   6.226  20.962  1.00  0.00     0.205 HD
HETATM   14  C9  UNL     1       5.673   7.271  24.108  1.00  0.00     0.343 C 
ATOM     15  H4  UNL     1       5.729   5.537  22.966  1.00  0.00     0.192 HD
HETATM   16  O7  UNL     1       6.104   6.667  25.130  1.00  0.00    -0.245 OA
HETATM   17  N5  UNL     1       5.492   8.676  24.211  1.00  0.00    -0.259 N 
HETATM   18  C10 UNL     1       4.742   9.575  23.369  1.00  0.00     0.347 C 
ATOM     19  H5  UNL     1       5.964   9.116  25.001  1.00  0.00     0.175 HD
HETATM   20  O8  UNL     1       4.868  10.792  23.553  1.00  0.00    -0.246 OA
ENDBRANCH   4   6
BRANCH   3  21
HETATM   21  O6  UNL     1       2.201  10.492  24.319  1.00  0.00    -0.367 OA
ATOM     22  H6  UNL     1       2.100   9.735  24.885  1.00  0.00     0.212 HD
ENDBRANCH   3  21
BRANCH   1  23
HETATM   23  C3  UNL     1       1.289  12.872  20.698  1.00  0.00     0.214 C 
BRANCH  23  24
HETATM   24  C2  UNL     1       2.112  13.588  19.724  1.00  0.00     0.148 C 
HETATM   25  C1  UNL     1       2.612  14.874  20.415  1.00  0.00     0.042 C 
BRANCH  24  26
HETATM   26  O1  UNL     1       3.275  12.897  19.384  1.00  0.00    -0.393 OA
ATOM     27  H1  UNL     1       3.099  11.998  19.632  1.00  0.00     0.210 HD
ENDBRANCH  24  26
ENDBRANCH  23  24
BRANCH  23  28
HETATM   28  O2  UNL     1       0.550  11.899  19.979  1.00  0.00    -0.387 OA
ATOM     29  H2  UNL     1       0.284  11.235  20.604  1.00  0.00     0.210 HD
ENDBRANCH  23  28
ENDBRANCH   1  23
BRANCH   1  30
HETATM   30  C5  UNL     1       2.355  13.260  22.833  1.00  0.00     0.320 C 
BRANCH  30  31
HETATM   31  O3  UNL     1       3.548  12.934  23.466  1.00  0.00    -0.366 OA
ATOM     32  H3  UNL     1       3.472  12.942  24.413  1.00  0.00     0.212 HD
ENDBRANCH  30  31
BRANCH  30  33
HETATM   33  O4  UNL     1       1.409  13.405  23.863  1.00  0.00    -0.366 OA
ATOM     34  H4  UNL     1       1.460  14.279  24.233  1.00  0.00     0.212 HD
ENDBRANCH  30  33
ENDBRANCH   1  30
TORSDOF 9
ENDMDL
MODEL 4
REMARK VINA RESULT: -7.800643381      5.424      7.421
REMARK  9 active torsions:
REMARK  status: ('A' for Active; 'I' for Inactive)
REMARK    1  A    between atoms: C2_2  and  O1_3 
REMARK    2  A    between atoms: C2_2  and  C3_5 
REMARK    3  A    between atoms: C3_5  and  O2_6 
REMARK    4  A    between atoms: C3_5  and  C4_8 
REMARK    5  A    between atoms: C4_8  and  C5_9 
REMARK    6  A    between atoms: C5_9  and  O3_10 
REMARK    7  A    between atoms: C5_9  and  O4_12 
REMARK    8  A    between atoms: C6_15  and  O6_16 
REMARK    9  A    between atoms: C7_18  and  N1_19 
ROOT
HETATM    1  C4  UNL     1       2.027  13.301  21.544  1.00  0.00     0.248 C 
HETATM    2  O5  UNL     1       0.704  13.080  21.929  1.00  0.00    -0.314 OA
HETATM    3  C6  UNL     1       0.564  13.693  23.186  1.00  0.00     0.311 C 
HETATM    4  C7  UNL     1       1.942  13.545  23.784  1.00  0.00     0.309 C 
HETATM    5  O9  UNL     1       2.748  13.626  22.691  1.00  0.00    -0.317 OA
ENDROOT
BRANCH   4   6
HETATM    6  N1  UNL     1       2.228  14.305  24.931  1.00  0.00    -0.099 N 
HETATM    7  C8  UNL     1       2.422  13.600  26.188  1.00  0.00     0.699 C 
HETATM    8  N2  UNL     1       2.617  12.317  26.017  1.00  0.00    -0.233 N 
HETATM    9  N3  UNL     1       2.435  14.037  27.524  1.00  0.00    -0.128 N 
ATOM     10  H22 UNL     1       2.607  12.000  25.048  1.00  0.00     0.174 HD
ATOM     11  H21 UNL     1       2.753  11.822  26.898  1.00  0.00     0.174 HD
HETATM   12  N4  UNL     1       2.036  15.290  27.997  1.00  0.00    -0.237 N 
ATOM     13  H3  UNL     1       2.771  13.370  28.220  1.00  0.00     0.205 HD
HETATM   14  C9  UNL     1       1.757  16.495  27.283  1.00  0.00     0.343 C 
ATOM     15  H4  UNL     1       1.927  15.353  29.009  1.00  0.00     0.192 HD
HETATM   16  O7  UNL     1       1.228  17.454  27.913  1.00  0.00    -0.245 OA
HETATM   17  N5  UNL     1       2.032  16.697  25.904  1.00  0.00    -0.259 N 
HETATM   18  C10 UNL     1       2.321  15.735  24.870  1.00  0.00     0.347 C 
ATOM     19  H5  UNL     1       2.025  17.670  25.600  1.00  0.00     0.175 HD
HETATM   20  O8  UNL     1       2.701  16.154  23.770  1.00  0.00    -0.246 OA
ENDBRANCH   4   6
BRANCH   3  21
HETATM   21  O6  UNL     1       0.097  14.984  23.125  1.00  0.00    -0.367 OA
ATOM     22  H6  UNL     1      -0.707  15.124  23.612  1.00  0.00     0.212 HD
ENDBRANCH   3  21
BRANCH   1  23
HETATM   23  C3  UNL     1       2.578  12.205  20.732  1.00  0.00     0.214 C 
BRANCH  23  24
HETATM   24  C2  UNL     1       1.741  11.086  20.300  1.00  0.00     0.148 C 
HETATM   25  C1  UNL     1       1.538  10.175  21.528  1.00  0.00     0.042 C 
BRANCH  24  26
HETATM   26  O1  UNL     1       0.453  11.481  19.938  1.00  0.00    -0.393 OA
ATOM     27  H1  UNL     1       0.209  10.887  19.238  1.00  0.00     0.210 HD
ENDBRANCH  24  26
ENDBRANCH  23  24
BRANCH  23  28
HETATM   28  O2  UNL     1       3.110  12.800  19.560  1.00  0.00    -0.387 OA
ATOM     29  H2  UNL     1       2.642  12.427  18.822  1.00  0.00     0.210 HD
ENDBRANCH  23  28
ENDBRANCH   1  23
BRANCH   1  30
HETATM   30  C5  UNL     1       1.975  14.544  20.640  1.00  0.00     0.320 C 
BRANCH  30  31
HETATM   31  O3  UNL     1       2.395  15.696  21.293  1.00  0.00    -0.366 OA
ATOM     32  H3  UNL     1       1.963  16.477  20.968  1.00  0.00     0.212 HD
ENDBRANCH  30  31
BRANCH  30  33
HETATM   33  O4  UNL     1       0.651  14.798  20.243  1.00  0.00    -0.366 OA
ATOM     34  H4  UNL     1       0.398  14.203  19.547  1.00  0.00     0.212 HD
ENDBRANCH  30  33
ENDBRANCH   1  30
TORSDOF 9
ENDMDL
MODEL 5
REMARK VINA RESULT: -7.772046597      1.362      1.465
REMARK  9 active torsions:
REMARK  status: ('A' for Active; 'I' for Inactive)
REMARK    1  A    between atoms: C2_2  and  O1_3 
REMARK    2  A    between atoms: C2_2  and  C3_5 
REMARK    3  A    between atoms: C3_5  and  O2_6 
REMARK    4  A    between atoms: C3_5  and  C4_8 
REMARK    5  A    between atoms: C4_8  and  C5_9 
REMARK    6  A    between atoms: C5_9  and  O3_10 
REMARK    7  A    between atoms: C5_9  and  O4_12 
REMARK    8  A    between atoms: C6_15  and  O6_16 
REMARK    9  A    between atoms: C7_18  and  N1_19 
ROOT
HETATM    1  C4  UNL     1       5.202   6.979  25.528  1.00  0.00     0.248 C 
HETATM    2  O5  UNL     1       6.290   7.783  25.186  1.00  0.00    -0.314 OA
HETATM    3  C6  UNL     1       5.794   8.733  24.277  1.00  0.00     0.311 C 
HETATM    4  C7  UNL     1       4.697   7.974  23.569  1.00  0.00     0.309 C 
HETATM    5  O9  UNL     1       4.229   7.151  24.546  1.00  0.00    -0.317 OA
ENDROOT
BRANCH   4   6
HETATM    6  N1  UNL     1       3.802   8.723  22.786  1.00  0.00    -0.099 N 
HETATM    7  C8  UNL     1       3.685   8.393  21.375  1.00  0.00     0.699 C 
HETATM    8  N2  UNL     1       4.203   7.225  21.090  1.00  0.00    -0.233 N 
HETATM    9  N3  UNL     1       3.132   9.087  20.284  1.00  0.00    -0.128 N 
ATOM     10  H22 UNL     1       4.605   6.722  21.881  1.00  0.00     0.174 HD
ATOM     11  H21 UNL     1       4.121   6.993  20.100  1.00  0.00     0.174 HD
HETATM   12  N4  UNL     1       2.726  10.424  20.265  1.00  0.00    -0.237 N 
ATOM     13  H3  UNL     1       3.015   8.560  19.418  1.00  0.00     0.205 HD
HETATM   14  C9  UNL     1       2.532  11.341  21.343  1.00  0.00     0.343 C 
ATOM     15  H4  UNL     1       2.538  10.804  19.337  1.00  0.00     0.192 HD
HETATM   16  O7  UNL     1       2.341  12.558  21.065  1.00  0.00    -0.245 OA
HETATM   17  N5  UNL     1       2.537  10.983  22.718  1.00  0.00    -0.259 N 
HETATM   18  C10 UNL     1       3.028   9.787  23.357  1.00  0.00     0.347 C 
ATOM     19  H5  UNL     1       2.133  11.675  23.347  1.00  0.00     0.175 HD
HETATM   20  O8  UNL     1       2.770   9.616  24.556  1.00  0.00    -0.246 OA
ENDBRANCH   4   6
BRANCH   3  21
HETATM   21  O6  UNL     1       5.395   9.908  24.865  1.00  0.00    -0.367 OA
ATOM     22  H6  UNL     1       4.506  10.164  24.648  1.00  0.00     0.212 HD
ENDBRANCH   3  21
BRANCH   1  23
HETATM   23  C3  UNL     1       5.584   5.587  25.812  1.00  0.00     0.214 C 
BRANCH  23  24
HETATM   24  C2  UNL     1       6.801   5.004  25.246  1.00  0.00     0.148 C 
HETATM   25  C1  UNL     1       6.879   3.547  25.748  1.00  0.00     0.042 C 
BRANCH  24  26
HETATM   26  O1  UNL     1       6.753   4.895  23.856  1.00  0.00    -0.393 OA
ATOM     27  H1  UNL     1       5.841   4.717  23.661  1.00  0.00     0.210 HD
ENDBRANCH  24  26
ENDBRANCH  23  24
BRANCH  23  28
HETATM   28  O2  UNL     1       5.690   5.477  27.221  1.00  0.00    -0.387 OA
ATOM     29  H2  UNL     1       5.080   4.801  27.493  1.00  0.00     0.210 HD
ENDBRANCH  23  28
ENDBRANCH   1  23
BRANCH   1  30
HETATM   30  C5  UNL     1       4.669   7.572  26.843  1.00  0.00     0.320 C 
BRANCH  30  31
HETATM   31  O3  UNL     1       3.459   8.234  26.677  1.00  0.00    -0.366 OA
ATOM     32  H3  UNL     1       2.789   7.923  27.274  1.00  0.00     0.212 HD
ENDBRANCH  30  31
BRANCH  30  33
HETATM   33  O4  UNL     1       5.563   8.540  27.334  1.00  0.00    -0.366 OA
ATOM     34  H4  UNL     1       5.612   9.274  26.734  1.00  0.00     0.212 HD
ENDBRANCH  30  33
ENDBRANCH   1  30
TORSDOF 9
ENDMDL
