MODEL 1
REMARK VINA RESULT: -7.749758114      0.000      0.000
REMARK  6 active torsions:
REMARK  status: ('A' for Active; 'I' for Inactive)
REMARK    1  A    between atoms: C4_6  and  N2_7 
REMARK    2  A    between atoms: N2_7  and  N3_9 
REMARK    3  A    between atoms: C5_11  and  C6_12 
REMARK    4  A    between atoms: N4_15  and  N5_16 
REMARK       I    between atoms: N5_16  and  C7_18 
REMARK       I    between atoms: C7_18  and  N7_22 
REMARK    5  A    between atoms: N7_22  and  N8_24 
REMARK    6  A    between atoms: N8_24  and  N9_25 
ROOT
HETATM    1  C1  UNL     1       2.869   0.850  11.364  1.00  0.00     0.049 C 
HETATM    2  C2  UNL     1       3.756   0.348  12.479  1.00  0.00     0.123 A 
HETATM    3  C3  UNL     1       3.697   1.280  13.664  1.00  0.00     0.049 C 
HETATM    4  N1  UNL     1       3.368  -0.963  12.942  1.00  0.00    -0.205 N 
ATOM      5  H1  UNL     1       2.469  -1.173  13.376  1.00  0.00     0.179 HD
HETATM    6  C4  UNL     1       4.297  -1.837  12.741  1.00  0.00     0.718 A 
HETATM    7  N4  UNL     1       5.427  -1.237  12.121  1.00  0.00    -0.034 N 
HETATM    8  C8  UNL     1       5.112   0.141  11.947  1.00  0.00     0.287 A 
HETATM    9  O3  UNL     1       5.907   0.977  11.421  1.00  0.00    -0.268 OA
ENDROOT
BRANCH   7  10
HETATM   10  N5  UNL     1       6.619  -1.906  11.759  1.00  0.00    -0.107 N 
HETATM   11  C7  UNL     1       7.650  -2.131  12.717  1.00  0.00     0.704 C 
HETATM   12  N6  UNL     1       7.445  -1.762  13.935  1.00  0.00    -0.232 N 
HETATM   13  N7  UNL     1       8.866  -2.734  12.386  1.00  0.00    -0.116 N 
ATOM     14  H62 UNL     1       6.557  -1.323  14.176  1.00  0.00     0.174 HD
ATOM     15  H61 UNL     1       8.183  -1.923  14.620  1.00  0.00     0.174 HD
ATOM     16  H7  UNL     1       8.858  -3.646  11.928  1.00  0.00     0.203 HD
ATOM     17  H5  UNL     1       6.742  -2.233  10.801  1.00  0.00     0.207 HD
BRANCH  13  18
HETATM   18  N8  UNL     1      10.110  -2.118  12.667  1.00  0.00    -0.015 NA
BRANCH  18  19
HETATM   19  N9  UNL     1      10.684  -1.661  11.475  1.00  0.00    -0.328 N 
ATOM     20  H92 UNL     1      10.202  -1.082  10.788  1.00  0.00     0.174 HD
ATOM     21  H91 UNL     1      11.645  -1.997  11.410  1.00  0.00     0.174 HD
ENDBRANCH  18  19
ENDBRANCH  13  18
ENDBRANCH   7  10
BRANCH   6  22
HETATM   22  N2  UNL     1       4.252  -3.241  13.077  1.00  0.00    -0.131 N 
ATOM     23  H2  UNL     1       4.504  -3.524  14.024  1.00  0.00     0.205 HD
BRANCH  22  24
HETATM   24  N3  UNL     1       3.885  -4.213  12.174  1.00  0.00    -0.291 N 
HETATM   25  C5  UNL     1       4.599  -5.277  12.033  1.00  0.00     0.192 C 
ATOM     26  H3  UNL     1       3.041  -4.092  11.613  1.00  0.00     0.186 HD
BRANCH  25  27
HETATM   27  C6  UNL     1       4.180  -6.274  11.075  1.00  0.00     0.216 C 
HETATM   28  O1  UNL     1       4.963  -7.180  10.730  1.00  0.00    -0.643 OA
HETATM   29  O2  UNL     1       2.915  -6.242  10.529  1.00  0.00    -0.643 OA
ENDBRANCH  25  27
ENDBRANCH  22  24
ENDBRANCH   6  22
TORSDOF 6
ENDMDL
MODEL 2
REMARK VINA RESULT: -7.321972716      2.685      5.387
REMARK  6 active torsions:
REMARK  status: ('A' for Active; 'I' for Inactive)
REMARK    1  A    between atoms: C4_6  and  N2_7 
REMARK    2  A    between atoms: N2_7  and  N3_9 
REMARK    3  A    between atoms: C5_11  and  C6_12 
REMARK    4  A    between atoms: N4_15  and  N5_16 
REMARK       I    between atoms: N5_16  and  C7_18 
REMARK       I    between atoms: C7_18  and  N7_22 
REMARK    5  A    between atoms: N7_22  and  N8_24 
REMARK    6  A    between atoms: N8_24  and  N9_25 
ROOT
HETATM    1  C1  UNL     1       5.352  -4.218  13.836  1.00  0.00     0.049 C 
HETATM    2  C2  UNL     1       4.517  -3.414  12.867  1.00  0.00     0.123 A 
HETATM    3  C3  UNL     1       3.454  -4.280  12.237  1.00  0.00     0.049 C 
HETATM    4  N1  UNL     1       3.847  -2.306  13.507  1.00  0.00    -0.205 N 
ATOM      5  H1  UNL     1       3.146  -2.409  14.241  1.00  0.00     0.179 HD
HETATM    6  C4  UNL     1       4.243  -1.171  13.037  1.00  0.00     0.718 A 
HETATM    7  N4  UNL     1       5.224  -1.359  12.024  1.00  0.00    -0.034 N 
HETATM    8  C8  UNL     1       5.412  -2.764  11.897  1.00  0.00     0.287 A 
HETATM    9  O3  UNL     1       6.224  -3.287  11.075  1.00  0.00    -0.268 OA
ENDROOT
BRANCH   7  10
HETATM   10  N5  UNL     1       5.868  -0.328  11.303  1.00  0.00    -0.107 N 
HETATM   11  C7  UNL     1       7.264  -0.089  11.460  1.00  0.00     0.704 C 
HETATM   12  N6  UNL     1       7.936  -0.874  12.231  1.00  0.00    -0.232 N 
HETATM   13  N7  UNL     1       7.927   0.957  10.813  1.00  0.00    -0.116 N 
ATOM     14  H62 UNL     1       7.452  -1.638  12.703  1.00  0.00     0.174 HD
ATOM     15  H61 UNL     1       8.936  -0.703  12.344  1.00  0.00     0.174 HD
ATOM     16  H7  UNL     1       7.854   1.035   9.798  1.00  0.00     0.203 HD
ATOM     17  H5  UNL     1       5.328   0.252  10.661  1.00  0.00     0.207 HD
BRANCH  13  18
HETATM   18  N8  UNL     1       8.696   1.911  11.522  1.00  0.00    -0.015 NA
BRANCH  18  19
HETATM   19  N9  UNL     1       8.654   3.138  10.849  1.00  0.00    -0.328 N 
ATOM     20  H92 UNL     1       7.887   3.441  10.249  1.00  0.00     0.174 HD
ATOM     21  H91 UNL     1       9.501   3.668  11.054  1.00  0.00     0.174 HD
ENDBRANCH  18  19
ENDBRANCH  13  18
ENDBRANCH   7  10
BRANCH   6  22
HETATM   22  N2  UNL     1       3.789   0.139  13.442  1.00  0.00    -0.131 N 
ATOM     23  H2  UNL     1       4.007   0.462  14.385  1.00  0.00     0.205 HD
BRANCH  22  24
HETATM   24  N3  UNL     1       3.073   0.971  12.609  1.00  0.00    -0.291 N 
HETATM   25  C5  UNL     1       3.646   1.978  12.043  1.00  0.00     0.192 C 
ATOM     26  H3  UNL     1       2.084   0.790  12.439  1.00  0.00     0.186 HD
BRANCH  25  27
HETATM   27  C6  UNL     1       2.862   2.828  11.178  1.00  0.00     0.216 C 
HETATM   28  O1  UNL     1       1.617   2.813  11.245  1.00  0.00    -0.643 OA
HETATM   29  O2  UNL     1       3.470   3.665  10.268  1.00  0.00    -0.643 OA
ENDBRANCH  25  27
ENDBRANCH  22  24
ENDBRANCH   6  22
TORSDOF 6
ENDMDL
MODEL 3
REMARK VINA RESULT: -7.304249395      1.288      1.450
REMARK  6 active torsions:
REMARK  status: ('A' for Active; 'I' for Inactive)
REMARK    1  A    between atoms: C4_6  and  N2_7 
REMARK    2  A    between atoms: N2_7  and  N3_9 
REMARK    3  A    between atoms: C5_11  and  C6_12 
REMARK    4  A    between atoms: N4_15  and  N5_16 
REMARK       I    between atoms: N5_16  and  C7_18 
REMARK       I    between atoms: C7_18  and  N7_22 
REMARK    5  A    between atoms: N7_22  and  N8_24 
REMARK    6  A    between atoms: N8_24  and  N9_25 
ROOT
HETATM    1  C1  UNL     1       3.058   1.361  11.406  1.00  0.00     0.049 C 
HETATM    2  C2  UNL     1       3.642   0.435  12.446  1.00  0.00     0.123 A 
HETATM    3  C3  UNL     1       3.361   0.952  13.835  1.00  0.00     0.049 C 
HETATM    4  N1  UNL     1       3.092  -0.899  12.365  1.00  0.00    -0.205 N 
ATOM      5  H1  UNL     1       2.108  -1.122  12.517  1.00  0.00     0.179 HD
HETATM    6  C4  UNL     1       3.996  -1.773  12.076  1.00  0.00     0.718 A 
HETATM    7  N4  UNL     1       5.267  -1.153  11.927  1.00  0.00    -0.034 N 
HETATM    8  C8  UNL     1       5.070   0.238  12.157  1.00  0.00     0.287 A 
HETATM    9  O3  UNL     1       6.006   1.093  12.105  1.00  0.00    -0.268 OA
ENDROOT
BRANCH   7  10
HETATM   10  N5  UNL     1       6.474  -1.818  11.609  1.00  0.00    -0.107 N 
HETATM   11  C7  UNL     1       7.422  -2.135  12.624  1.00  0.00     0.704 C 
HETATM   12  N6  UNL     1       7.126  -1.855  13.847  1.00  0.00    -0.232 N 
HETATM   13  N7  UNL     1       8.653  -2.736  12.345  1.00  0.00    -0.116 N 
ATOM     14  H62 UNL     1       6.228  -1.416  14.051  1.00  0.00     0.174 HD
ATOM     15  H61 UNL     1       7.805  -2.082  14.574  1.00  0.00     0.174 HD
ATOM     16  H7  UNL     1       8.667  -3.610  11.819  1.00  0.00     0.203 HD
ATOM     17  H5  UNL     1       6.669  -2.074  10.641  1.00  0.00     0.207 HD
BRANCH  13  18
HETATM   18  N8  UNL     1       9.879  -2.168  12.769  1.00  0.00    -0.015 NA
BRANCH  18  19
HETATM   19  N9  UNL     1      10.609  -1.747  11.651  1.00  0.00    -0.328 N 
ATOM     20  H92 UNL     1      11.387  -2.264  11.241  1.00  0.00     0.174 HD
ATOM     21  H91 UNL     1      10.242  -0.854  11.322  1.00  0.00     0.174 HD
ENDBRANCH  18  19
ENDBRANCH  13  18
ENDBRANCH   7  10
BRANCH   6  22
HETATM   22  N2  UNL     1       3.805  -3.195  11.915  1.00  0.00    -0.131 N 
ATOM     23  H2  UNL     1       3.379  -3.537  11.054  1.00  0.00     0.205 HD
BRANCH  22  24
HETATM   24  N3  UNL     1       4.173  -4.111  12.877  1.00  0.00    -0.291 N 
HETATM   25  C5  UNL     1       4.311  -5.357  12.573  1.00  0.00     0.192 C 
ATOM     26  H3  UNL     1       4.338  -3.802  13.834  1.00  0.00     0.186 HD
BRANCH  25  27
HETATM   27  C6  UNL     1       4.697  -6.286  13.609  1.00  0.00     0.216 C 
HETATM   28  O1  UNL     1       5.198  -5.868  14.671  1.00  0.00    -0.643 OA
HETATM   29  O2  UNL     1       4.521  -7.643  13.443  1.00  0.00    -0.643 OA
ENDBRANCH  25  27
ENDBRANCH  22  24
ENDBRANCH   6  22
TORSDOF 6
ENDMDL
MODEL 4
REMARK VINA RESULT: -7.166523235      2.952      5.823
REMARK  6 active torsions:
REMARK  status: ('A' for Active; 'I' for Inactive)
REMARK    1  A    between atoms: C4_6  and  N2_7 
REMARK    2  A    between atoms: N2_7  and  N3_9 
REMARK    3  A    between atoms: C5_11  and  C6_12 
REMARK    4  A    between atoms: N4_15  and  N5_16 
REMARK       I    between atoms: N5_16  and  C7_18 
REMARK       I    between atoms: C7_18  and  N7_22 
REMARK    5  A    between atoms: N7_22  and  N8_24 
REMARK    6  A    between atoms: N8_24  and  N9_25 
ROOT
HETATM    1  C1  UNL     1       3.674  -4.304  11.629  1.00  0.00     0.049 C 
HETATM    2  C2  UNL     1       4.530  -3.581  12.643  1.00  0.00     0.123 A 
HETATM    3  C3  UNL     1       5.023  -4.538  13.700  1.00  0.00     0.049 C 
HETATM    4  N1  UNL     1       5.691  -2.966  12.043  1.00  0.00    -0.205 N 
ATOM      5  H1  UNL     1       6.436  -3.484  11.578  1.00  0.00     0.179 HD
HETATM    6  C4  UNL     1       5.671  -1.681  12.167  1.00  0.00     0.718 A 
HETATM    7  N4  UNL     1       4.504  -1.261  12.863  1.00  0.00    -0.034 N 
HETATM    8  C8  UNL     1       3.770  -2.440  13.175  1.00  0.00     0.287 A 
HETATM    9  O3  UNL     1       2.667  -2.429  13.801  1.00  0.00    -0.268 OA
ENDROOT
BRANCH   7  10
HETATM   10  N5  UNL     1       4.167   0.078  13.169  1.00  0.00    -0.107 N 
HETATM   11  C7  UNL     1       3.350   0.845  12.289  1.00  0.00     0.704 C 
HETATM   12  N6  UNL     1       2.876   0.270  11.236  1.00  0.00    -0.232 N 
HETATM   13  N7  UNL     1       3.044   2.188  12.523  1.00  0.00    -0.116 N 
ATOM     14  H62 UNL     1       3.099  -0.711  11.065  1.00  0.00     0.174 HD
ATOM     15  H61 UNL     1       2.291   0.819  10.606  1.00  0.00     0.174 HD
ATOM     16  H7  UNL     1       2.626   2.451  13.416  1.00  0.00     0.203 HD
ATOM     17  H5  UNL     1       4.513   0.500  14.030  1.00  0.00     0.207 HD
BRANCH  13  18
HETATM   18  N8  UNL     1       3.297   3.195  11.560  1.00  0.00    -0.015 NA
BRANCH  18  19
HETATM   19  N9  UNL     1       4.571   3.006  11.011  1.00  0.00    -0.328 N 
ATOM     20  H92 UNL     1       5.216   3.761  10.776  1.00  0.00     0.174 HD
ATOM     21  H91 UNL     1       4.744   2.008  10.888  1.00  0.00     0.174 HD
ENDBRANCH  18  19
ENDBRANCH  13  18
ENDBRANCH   7  10
BRANCH   6  22
HETATM   22  N2  UNL     1       6.665  -0.750  11.689  1.00  0.00    -0.131 N 
ATOM     23  H2  UNL     1       6.354   0.091  11.203  1.00  0.00     0.205 HD
BRANCH  22  24
HETATM   24  N3  UNL     1       8.018  -0.949  11.862  1.00  0.00    -0.291 N 
HETATM   25  C5  UNL     1       8.463  -1.524  12.926  1.00  0.00     0.192 C 
ATOM     26  H3  UNL     1       8.671  -0.639  11.143  1.00  0.00     0.186 HD
BRANCH  25  27
HETATM   27  C6  UNL     1       9.887  -1.714  13.070  1.00  0.00     0.216 C 
HETATM   28  O1  UNL     1      10.553  -2.200  12.135  1.00  0.00    -0.643 OA
HETATM   29  O2  UNL     1      10.533  -1.364  14.236  1.00  0.00    -0.643 OA
ENDBRANCH  25  27
ENDBRANCH  22  24
ENDBRANCH   6  22
TORSDOF 6
ENDMDL
MODEL 5
REMARK VINA RESULT: -6.761004086      2.257      5.856
REMARK  6 active torsions:
REMARK  status: ('A' for Active; 'I' for Inactive)
REMARK    1  A    between atoms: C4_6  and  N2_7 
REMARK    2  A    between atoms: N2_7  and  N3_9 
REMARK    3  A    between atoms: C5_11  and  C6_12 
REMARK    4  A    between atoms: N4_15  and  N5_16 
REMARK       I    between atoms: N5_16  and  C7_18 
REMARK       I    between atoms: C7_18  and  N7_22 
REMARK    5  A    between atoms: N7_22  and  N8_24 
REMARK    6  A    between atoms: N8_24  and  N9_25 
ROOT
HETATM    1  C1  UNL     1       4.654  -6.156  11.118  1.00  0.00     0.049 C 
HETATM    2  C2  UNL     1       4.483  -5.649  12.530  1.00  0.00     0.123 A 
HETATM    3  C3  UNL     1       4.170  -6.787  13.469  1.00  0.00     0.049 C 
HETATM    4  N1  UNL     1       5.671  -4.995  13.027  1.00  0.00    -0.205 N 
ATOM      5  H1  UNL     1       6.569  -5.462  13.155  1.00  0.00     0.179 HD
HETATM    6  C4  UNL     1       5.458  -3.749  13.287  1.00  0.00     0.718 A 
HETATM    7  N4  UNL     1       4.110  -3.397  13.006  1.00  0.00    -0.034 N 
HETATM    8  C8  UNL     1       3.473  -4.579  12.529  1.00  0.00     0.287 A 
HETATM    9  O3  UNL     1       2.254  -4.623  12.184  1.00  0.00    -0.268 OA
ENDROOT
BRANCH   7  10
HETATM   10  N5  UNL     1       3.541  -2.114  13.176  1.00  0.00    -0.107 N 
HETATM   11  C7  UNL     1       4.003  -1.004  12.412  1.00  0.00     0.704 C 
HETATM   12  N6  UNL     1       4.910  -1.209  11.520  1.00  0.00    -0.232 N 
HETATM   13  N7  UNL     1       3.511   0.292  12.593  1.00  0.00    -0.116 N 
ATOM     14  H62 UNL     1       5.269  -2.155  11.387  1.00  0.00     0.174 HD
ATOM     15  H61 UNL     1       5.240  -0.414  10.973  1.00  0.00     0.174 HD
ATOM     16  H7  UNL     1       2.505   0.451  12.534  1.00  0.00     0.203 HD
ATOM     17  H5  UNL     1       2.791  -1.981  13.855  1.00  0.00     0.207 HD
BRANCH  13  18
HETATM   18  N8  UNL     1       4.366   1.390  12.856  1.00  0.00    -0.015 NA
BRANCH  18  19
HETATM   19  N9  UNL     1       4.273   2.314  11.809  1.00  0.00    -0.328 N 
ATOM     20  H92 UNL     1       3.502   2.356  11.143  1.00  0.00     0.174 HD
ATOM     21  H91 UNL     1       5.088   2.927  11.823  1.00  0.00     0.174 HD
ENDBRANCH  18  19
ENDBRANCH  13  18
ENDBRANCH   7  10
BRANCH   6  22
HETATM   22  N2  UNL     1       6.417  -2.796  13.797  1.00  0.00    -0.131 N 
ATOM     23  H2  UNL     1       6.156  -2.222  14.599  1.00  0.00     0.205 HD
BRANCH  22  24
HETATM   24  N3  UNL     1       7.668  -2.629  13.247  1.00  0.00    -0.291 N 
HETATM   25  C5  UNL     1       8.133  -1.446  13.027  1.00  0.00     0.192 C 
ATOM     26  H3  UNL     1       8.232  -3.446  13.012  1.00  0.00     0.186 HD
BRANCH  25  27
HETATM   27  C6  UNL     1       9.449  -1.313  12.448  1.00  0.00     0.216 C 
HETATM   28  O1  UNL     1      10.252  -2.266  12.489  1.00  0.00    -0.643 OA
HETATM   29  O2  UNL     1       9.840  -0.138  11.844  1.00  0.00    -0.643 OA
ENDBRANCH  25  27
ENDBRANCH  22  24
ENDBRANCH   6  22
TORSDOF 6
ENDMDL
