MODEL 1
REMARK VINA RESULT: -9.517341684      0.000      0.000
REMARK  3 active torsions:
REMARK  status: ('A' for Active; 'I' for Inactive)
REMARK    1  A    between atoms: C2_3  and  N2_4 
REMARK    2  A    between atoms: N2_4  and  N3_6 
REMARK    3  A    between atoms: N3_6  and  C3_8 
ROOT
HETATM    1  N2  UNL     1       3.647   0.025  13.527  1.00  0.00    -0.269 N 
ATOM      2  H2  UNL     1       3.934   0.182  14.493  1.00  0.00     0.189 HD
ENDROOT
BRANCH   1   3
HETATM    3  C2  UNL     1       4.114   0.878  12.493  1.00  0.00     0.154 A 
HETATM    4  C1  UNL     1       5.392   0.714  11.984  1.00  0.00     0.159 A 
HETATM    5  N1  UNL     1       6.230  -0.309  12.502  1.00  0.00    -0.092 NA
HETATM    6  C7  UNL     1       5.822   1.556  10.979  1.00  0.00     0.277 A 
HETATM    7  N8  UNL     1       5.034   2.530  10.482  1.00  0.00    -0.274 N 
HETATM    8  O4  UNL     1       6.975   1.446  10.485  1.00  0.00    -0.266 OA
HETATM    9  C6  UNL     1       3.794   2.668  10.994  1.00  0.00     0.328 A 
ATOM     10  H8  UNL     1       5.366   3.144   9.738  1.00  0.00     0.173 HD
HETATM   11  N7  UNL     1       3.368   1.848  11.976  1.00  0.00    -0.292 N 
HETATM   12  O3  UNL     1       3.064   3.577  10.525  1.00  0.00    -0.247 OA
ATOM     13  H7  UNL     1       2.424   1.979  12.341  1.00  0.00     0.172 HD
ENDBRANCH   1   3
BRANCH   1  14
HETATM   14  N3  UNL     1       2.799  -1.025  13.211  1.00  0.00    -0.130 N 
ATOM     15  H3  UNL     1       1.792  -0.871  13.151  1.00  0.00     0.205 HD
BRANCH  14  16
HETATM   16  C3  UNL     1       3.339  -2.310  12.974  1.00  0.00     0.705 A 
HETATM   17  N4  UNL     1       2.622  -3.293  12.371  1.00  0.00    -0.139 N 
HETATM   18  C4  UNL     1       3.142  -4.514  12.147  1.00  0.00     0.342 A 
ATOM     19  H4  UNL     1       1.663  -3.102  12.080  1.00  0.00     0.189 HD
HETATM   20  O1  UNL     1       2.455  -5.428  11.579  1.00  0.00    -0.246 OA
HETATM   21  N5  UNL     1       4.405  -4.782  12.526  1.00  0.00    -0.260 N 
HETATM   22  C5  UNL     1       5.153  -3.843  13.126  1.00  0.00     0.342 A 
ATOM     23  H5  UNL     1       4.797  -5.708  12.356  1.00  0.00     0.175 HD
HETATM   24  O2  UNL     1       6.332  -4.094  13.481  1.00  0.00    -0.246 OA
HETATM   25  N6  UNL     1       4.607  -2.634  13.336  1.00  0.00    -0.139 N 
ATOM     26  H6  UNL     1       5.175  -1.921  13.791  1.00  0.00     0.189 HD
ENDBRANCH  14  16
ENDBRANCH   1  14
TORSDOF 3
ENDMDL
MODEL 2
REMARK VINA RESULT: -9.484635754      0.030      1.812
REMARK  3 active torsions:
REMARK  status: ('A' for Active; 'I' for Inactive)
REMARK    1  A    between atoms: C2_3  and  N2_4 
REMARK    2  A    between atoms: N2_4  and  N3_6 
REMARK    3  A    between atoms: N3_6  and  C3_8 
ROOT
HETATM    1  N2  UNL     1       3.640   0.027  13.528  1.00  0.00    -0.269 N 
ATOM      2  H2  UNL     1       3.925   0.187  14.494  1.00  0.00     0.189 HD
ENDROOT
BRANCH   1   3
HETATM    3  C2  UNL     1       4.107   0.879  12.493  1.00  0.00     0.154 A 
HETATM    4  C1  UNL     1       5.385   0.715  11.985  1.00  0.00     0.159 A 
HETATM    5  N1  UNL     1       6.223  -0.307  12.504  1.00  0.00    -0.092 NA
HETATM    6  C7  UNL     1       5.815   1.556  10.979  1.00  0.00     0.277 A 
HETATM    7  N8  UNL     1       5.027   2.529  10.481  1.00  0.00    -0.274 N 
HETATM    8  O4  UNL     1       6.969   1.446  10.485  1.00  0.00    -0.266 OA
HETATM    9  C6  UNL     1       3.787   2.668  10.993  1.00  0.00     0.328 A 
ATOM     10  H8  UNL     1       5.360   3.143   9.737  1.00  0.00     0.173 HD
HETATM   11  N7  UNL     1       3.361   1.849  11.975  1.00  0.00    -0.292 N 
HETATM   12  O3  UNL     1       3.057   3.577  10.523  1.00  0.00    -0.247 OA
ATOM     13  H7  UNL     1       2.418   1.980  12.340  1.00  0.00     0.172 HD
ENDBRANCH   1   3
BRANCH   1  14
HETATM   14  N3  UNL     1       2.795  -1.026  13.212  1.00  0.00    -0.130 N 
ATOM     15  H3  UNL     1       1.788  -0.873  13.145  1.00  0.00     0.205 HD
BRANCH  14  16
HETATM   16  C3  UNL     1       3.337  -2.312  12.985  1.00  0.00     0.705 A 
HETATM   17  N4  UNL     1       4.599  -2.639  13.364  1.00  0.00    -0.139 N 
HETATM   18  C4  UNL     1       5.109  -3.865  13.144  1.00  0.00     0.342 A 
ATOM     19  H4  UNL     1       5.177  -1.937  13.827  1.00  0.00     0.189 HD
HETATM   20  O1  UNL     1       6.298  -4.158  13.506  1.00  0.00    -0.246 OA
HETATM   21  N5  UNL     1       4.361  -4.801  12.534  1.00  0.00    -0.260 N 
HETATM   22  C5  UNL     1       3.107  -4.524  12.140  1.00  0.00     0.342 A 
ATOM     23  H5  UNL     1       4.748  -5.730  12.368  1.00  0.00     0.175 HD
HETATM   24  O2  UNL     1       2.408  -5.399  11.569  1.00  0.00    -0.246 OA
HETATM   25  N6  UNL     1       2.626  -3.293  12.373  1.00  0.00    -0.139 N 
ATOM     26  H6  UNL     1       1.673  -3.083  12.074  1.00  0.00     0.189 HD
ENDBRANCH  14  16
ENDBRANCH   1  14
TORSDOF 3
ENDMDL
MODEL 3
REMARK VINA RESULT: -9.334649132      1.779      6.443
REMARK  3 active torsions:
REMARK  status: ('A' for Active; 'I' for Inactive)
REMARK    1  A    between atoms: C2_3  and  N2_4 
REMARK    2  A    between atoms: N2_4  and  N3_6 
REMARK    3  A    between atoms: N3_6  and  C3_8 
ROOT
HETATM    1  N2  UNL     1       5.464  -3.297  13.503  1.00  0.00    -0.269 N 
ATOM      2  H2  UNL     1       5.376  -3.294  14.519  1.00  0.00     0.189 HD
ENDROOT
BRANCH   1   3
HETATM    3  C2  UNL     1       4.683  -4.186  12.719  1.00  0.00     0.154 A 
HETATM    4  C1  UNL     1       3.319  -3.981  12.593  1.00  0.00     0.159 A 
HETATM    5  N1  UNL     1       2.708  -2.882  13.252  1.00  0.00    -0.092 NA
HETATM    6  C7  UNL     1       2.582  -4.859  11.824  1.00  0.00     0.277 A 
HETATM    7  N8  UNL     1       3.153  -5.906  11.196  1.00  0.00    -0.274 N 
HETATM    8  O4  UNL     1       1.339  -4.715  11.680  1.00  0.00    -0.266 OA
HETATM    9  C6  UNL     1       4.483  -6.082  11.334  1.00  0.00     0.328 A 
ATOM     10  H8  UNL     1       2.595  -6.546  10.631  1.00  0.00     0.173 HD
HETATM   11  N7  UNL     1       5.208  -5.228  12.084  1.00  0.00    -0.292 N 
HETATM   12  O3  UNL     1       5.010  -7.060  10.745  1.00  0.00    -0.247 OA
ATOM     13  H7  UNL     1       6.212  -5.390  12.167  1.00  0.00     0.172 HD
ENDBRANCH   1   3
BRANCH   1  14
HETATM   14  N3  UNL     1       6.348  -2.433  12.875  1.00  0.00    -0.130 N 
ATOM     15  H3  UNL     1       7.323  -2.703  12.743  1.00  0.00     0.205 HD
BRANCH  14  16
HETATM   16  C3  UNL     1       5.889  -1.176  12.420  1.00  0.00     0.705 A 
HETATM   17  N4  UNL     1       6.654  -0.367  11.642  1.00  0.00    -0.139 N 
HETATM   18  C4  UNL     1       6.210   0.828  11.212  1.00  0.00     0.342 A 
ATOM     19  H4  UNL     1       7.591  -0.673  11.378  1.00  0.00     0.189 HD
HETATM   20  O1  UNL     1       6.942   1.578  10.482  1.00  0.00    -0.246 OA
HETATM   21  N5  UNL     1       4.978   1.247  11.553  1.00  0.00    -0.260 N 
HETATM   22  C5  UNL     1       4.185   0.482  12.321  1.00  0.00     0.342 A 
ATOM     23  H5  UNL     1       4.643   2.152  11.226  1.00  0.00     0.175 HD
HETATM   24  O2  UNL     1       3.034   0.873  12.640  1.00  0.00    -0.246 OA
HETATM   25  N6  UNL     1       4.654  -0.705  12.734  1.00  0.00    -0.139 N 
ATOM     26  H6  UNL     1       4.052  -1.286  13.317  1.00  0.00     0.189 HD
ENDBRANCH  14  16
ENDBRANCH   1  14
TORSDOF 3
ENDMDL
MODEL 4
REMARK VINA RESULT: -9.306014841      1.771      6.292
REMARK  3 active torsions:
REMARK  status: ('A' for Active; 'I' for Inactive)
REMARK    1  A    between atoms: C2_3  and  N2_4 
REMARK    2  A    between atoms: N2_4  and  N3_6 
REMARK    3  A    between atoms: N3_6  and  C3_8 
ROOT
HETATM    1  N2  UNL     1       5.474  -3.288  13.494  1.00  0.00    -0.269 N 
ATOM      2  H2  UNL     1       5.395  -3.290  14.511  1.00  0.00     0.189 HD
ENDROOT
BRANCH   1   3
HETATM    3  C2  UNL     1       4.690  -4.178  12.713  1.00  0.00     0.154 A 
HETATM    4  C1  UNL     1       3.325  -3.976  12.595  1.00  0.00     0.159 A 
HETATM    5  N1  UNL     1       2.716  -2.879  13.259  1.00  0.00    -0.092 NA
HETATM    6  C7  UNL     1       2.586  -4.854  11.829  1.00  0.00     0.277 A 
HETATM    7  N8  UNL     1       3.156  -5.899  11.196  1.00  0.00    -0.274 N 
HETATM    8  O4  UNL     1       1.341  -4.713  11.692  1.00  0.00    -0.266 OA
HETATM    9  C6  UNL     1       4.487  -6.073  11.327  1.00  0.00     0.328 A 
ATOM     10  H8  UNL     1       2.595  -6.540  10.634  1.00  0.00     0.173 HD
HETATM   11  N7  UNL     1       5.214  -5.217  12.073  1.00  0.00    -0.292 N 
HETATM   12  O3  UNL     1       5.012  -7.048  10.732  1.00  0.00    -0.247 OA
ATOM     13  H7  UNL     1       6.219  -5.377  12.150  1.00  0.00     0.172 HD
ENDBRANCH   1   3
BRANCH   1  14
HETATM   14  N3  UNL     1       6.347  -2.417  12.862  1.00  0.00    -0.130 N 
ATOM     15  H3  UNL     1       7.323  -2.679  12.723  1.00  0.00     0.205 HD
BRANCH  14  16
HETATM   16  C3  UNL     1       5.875  -1.162  12.411  1.00  0.00     0.705 A 
HETATM   17  N4  UNL     1       4.643  -0.696  12.738  1.00  0.00    -0.139 N 
HETATM   18  C4  UNL     1       4.200   0.499  12.306  1.00  0.00     0.342 A 
ATOM     19  H4  UNL     1       4.036  -1.266  13.327  1.00  0.00     0.189 HD
HETATM   20  O1  UNL     1       3.038   0.924  12.622  1.00  0.00    -0.246 OA
HETATM   21  N5  UNL     1       4.988   1.263  11.528  1.00  0.00    -0.260 N 
HETATM   22  C5  UNL     1       6.215   0.844  11.177  1.00  0.00     0.342 A 
ATOM     23  H5  UNL     1       4.651   2.168  11.202  1.00  0.00     0.175 HD
HETATM   24  O2  UNL     1       6.951   1.558  10.450  1.00  0.00    -0.246 OA
HETATM   25  N6  UNL     1       6.629  -0.352  11.624  1.00  0.00    -0.139 N 
ATOM     26  H6  UNL     1       7.561  -0.669  11.358  1.00  0.00     0.189 HD
ENDBRANCH  14  16
ENDBRANCH   1  14
TORSDOF 3
ENDMDL
MODEL 5
REMARK VINA RESULT: -9.238736976      2.998      6.614
REMARK  3 active torsions:
REMARK  status: ('A' for Active; 'I' for Inactive)
REMARK    1  A    between atoms: C2_3  and  N2_4 
REMARK    2  A    between atoms: N2_4  and  N3_6 
REMARK    3  A    between atoms: N3_6  and  C3_8 
ROOT
HETATM    1  N2  UNL     1       5.580  -2.988  13.277  1.00  0.00    -0.269 N 
ATOM      2  H2  UNL     1       6.020  -3.212  14.170  1.00  0.00     0.189 HD
ENDROOT
BRANCH   1   3
HETATM    3  C2  UNL     1       4.757  -3.944  12.625  1.00  0.00     0.154 A 
HETATM    4  C1  UNL     1       3.382  -3.776  12.609  1.00  0.00     0.159 A 
HETATM    5  N1  UNL     1       2.802  -2.649  13.248  1.00  0.00    -0.092 NA
HETATM    6  C7  UNL     1       2.604  -4.719  11.968  1.00  0.00     0.277 A 
HETATM    7  N8  UNL     1       3.145  -5.793  11.360  1.00  0.00    -0.274 N 
HETATM    8  O4  UNL     1       1.349  -4.611  11.927  1.00  0.00    -0.266 OA
HETATM    9  C6  UNL     1       4.486  -5.932  11.390  1.00  0.00     0.328 A 
ATOM     10  H8  UNL     1       2.556  -6.481  10.890  1.00  0.00     0.173 HD
HETATM   11  N7  UNL     1       5.252  -5.014  12.014  1.00  0.00    -0.292 N 
HETATM   12  O3  UNL     1       4.985  -6.935  10.819  1.00  0.00    -0.247 OA
ATOM     13  H7  UNL     1       6.263  -5.149  12.017  1.00  0.00     0.172 HD
ENDBRANCH   1   3
BRANCH   1  14
HETATM   14  N3  UNL     1       5.779  -1.748  12.690  1.00  0.00    -0.130 N 
ATOM     15  H3  UNL     1       4.981  -1.166  12.435  1.00  0.00     0.205 HD
BRANCH  14  16
HETATM   16  C3  UNL     1       7.097  -1.297  12.446  1.00  0.00     0.705 A 
HETATM   17  N4  UNL     1       8.184  -2.063  12.719  1.00  0.00    -0.139 N 
HETATM   18  C4  UNL     1       9.435  -1.627  12.484  1.00  0.00     0.342 A 
ATOM     19  H4  UNL     1       8.049  -2.994  13.114  1.00  0.00     0.189 HD
HETATM   20  O1  UNL     1      10.448  -2.359  12.747  1.00  0.00    -0.246 OA
HETATM   21  N5  UNL     1       9.630  -0.402  11.965  1.00  0.00    -0.260 N 
HETATM   22  C5  UNL     1       8.586   0.393  11.678  1.00  0.00     0.342 A 
ATOM     23  H5  UNL     1      10.579  -0.073  11.787  1.00  0.00     0.175 HD
HETATM   24  O2  UNL     1       8.768   1.538  11.193  1.00  0.00    -0.246 OA
HETATM   25  N6  UNL     1       7.350  -0.069  11.923  1.00  0.00    -0.139 N 
ATOM     26  H6  UNL     1       6.558   0.534  11.704  1.00  0.00     0.189 HD
ENDBRANCH  14  16
ENDBRANCH   1  14
TORSDOF 3
ENDMDL
