MODEL 1
REMARK VINA RESULT: -8.826245687      0.000      0.000
REMARK  6 active torsions:
REMARK  status: ('A' for Active; 'I' for Inactive)
REMARK    1  A    between atoms: N1_1  and  C1_4 
REMARK    2  A    between atoms: C2_7  and  N3_8 
REMARK    3  A    between atoms: N3_8  and  N4_10 
REMARK    4  A    between atoms: C3_16  and  N7_17 
REMARK    5  A    between atoms: N7_17  and  C4_19 
REMARK    6  A    between atoms: C4_19  and  C5_20 
ROOT
HETATM    1  C1  UNL     1       4.874   2.321  11.029  1.00  0.00     0.705 A 
HETATM    2  N2  UNL     1       3.900   2.058  11.933  1.00  0.00    -0.018 N 
ATOM      3  H2  UNL     1       3.180   2.761  12.100  1.00  0.00     0.203 HD
HETATM    4  C2  UNL     1       3.850   0.907  12.614  1.00  0.00     0.747 A 
HETATM    5  N5  UNL     1       4.814   0.004  12.368  1.00  0.00     0.107 N 
HETATM    6  N6  UNL     1       5.021  -1.211  12.884  1.00  0.00    -0.095 N 
ATOM      7  H6  UNL     1       4.439  -1.663  13.589  1.00  0.00     0.207 HD
HETATM    8  C3  UNL     1       6.123  -1.741  12.321  1.00  0.00     0.709 A 
HETATM    9  N12 UNL     1       6.577  -0.821  11.455  1.00  0.00    -0.018 N 
ATOM     10  H12 UNL     1       7.407  -0.932  10.871  1.00  0.00     0.203 HD
HETATM   11  C6  UNL     1       5.788   0.267  11.462  1.00  0.00     0.748 A 
HETATM   12  N13 UNL     1       5.838   1.420  10.780  1.00  0.00    -0.019 N 
ATOM     13  H13 UNL     1       6.578   1.605  10.102  1.00  0.00     0.203 HD
ENDROOT
BRANCH   8  14
HETATM   14  N7  UNL     1       6.613  -2.905  12.590  1.00  0.00    -0.217 N 
ATOM     15  H7  UNL     1       7.478  -3.225  12.154  1.00  0.00     0.178 HD
BRANCH  14  16
HETATM   16  C4  UNL     1       5.900  -3.736  13.524  1.00  0.00     0.217 C 
BRANCH  16  17
HETATM   17  C5  UNL     1       5.317  -4.934  12.908  1.00  0.00     0.128 A 
HETATM   18  N8  UNL     1       5.014  -6.089  13.502  1.00  0.00    -0.269 N 
HETATM   19  N9  UNL     1       4.512  -6.881  12.572  1.00  0.00    -0.005 NA
ATOM     20  H8  UNL     1       5.144  -6.318  14.488  1.00  0.00     0.185 HD
HETATM   21  N10 UNL     1       4.496  -6.240  11.402  1.00  0.00    -0.225 N 
HETATM   22  N11 UNL     1       4.991  -5.047  11.623  1.00  0.00    -0.274 N 
ATOM     23  H10 UNL     1       4.163  -6.607  10.511  1.00  0.00     0.205 HD
ATOM     24  H11 UNL     1       5.110  -4.319  10.919  1.00  0.00     0.189 HD
ENDBRANCH  16  17
ENDBRANCH  14  16
ENDBRANCH   8  14
BRANCH   4  25
HETATM   25  N3  UNL     1       2.909   0.702  13.462  1.00  0.00    -0.136 N 
ATOM     26  H3  UNL     1       2.835  -0.198  13.933  1.00  0.00     0.205 HD
BRANCH  25  27
HETATM   27  N4  UNL     1       1.993   1.705  13.736  1.00  0.00    -0.331 N 
ATOM     28  H42 UNL     1       1.688   2.317  12.980  1.00  0.00     0.177 HD
ATOM     29  H41 UNL     1       1.633   1.823  14.684  1.00  0.00     0.177 HD
ENDBRANCH  25  27
ENDBRANCH   4  25
BRANCH   1  30
HETATM   30  N1  UNL     1       4.924   3.430  10.370  1.00  0.00    -0.234 N 
ATOM     31  H12 UNL     1       4.079   3.712   9.873  1.00  0.00     0.174 HD
ATOM     32  H11 UNL     1       5.762   4.009  10.340  1.00  0.00     0.174 HD
ENDBRANCH   1  30
TORSDOF 6
ENDMDL
MODEL 2
REMARK VINA RESULT: -8.516971006      1.540      2.374
REMARK  6 active torsions:
REMARK  status: ('A' for Active; 'I' for Inactive)
REMARK    1  A    between atoms: N1_1  and  C1_4 
REMARK    2  A    between atoms: C2_7  and  N3_8 
REMARK    3  A    between atoms: N3_8  and  N4_10 
REMARK    4  A    between atoms: C3_16  and  N7_17 
REMARK    5  A    between atoms: N7_17  and  C4_19 
REMARK    6  A    between atoms: C4_19  and  C5_20 
ROOT
HETATM    1  C1  UNL     1       7.190   1.580  10.994  1.00  0.00     0.705 A 
HETATM    2  N2  UNL     1       6.100   2.383  10.958  1.00  0.00    -0.018 N 
ATOM      3  H2  UNL     1       6.218   3.361  10.691  1.00  0.00     0.203 HD
HETATM    4  C2  UNL     1       4.874   1.938  11.260  1.00  0.00     0.747 A 
HETATM    5  N5  UNL     1       4.757   0.645  11.606  1.00  0.00     0.107 N 
HETATM    6  N6  UNL     1       3.683  -0.070  11.952  1.00  0.00    -0.095 N 
ATOM      7  H6  UNL     1       2.728   0.284  12.008  1.00  0.00     0.207 HD
HETATM    8  C3  UNL     1       4.066  -1.333  12.213  1.00  0.00     0.709 A 
HETATM    9  N12 UNL     1       5.395  -1.367  12.017  1.00  0.00    -0.018 N 
ATOM     10  H12 UNL     1       5.979  -2.195  12.138  1.00  0.00     0.203 HD
HETATM   11  C6  UNL     1       5.849  -0.159  11.641  1.00  0.00     0.748 A 
HETATM   12  N13 UNL     1       7.076   0.287  11.340  1.00  0.00    -0.019 N 
ATOM     13  H13 UNL     1       7.889  -0.329  11.372  1.00  0.00     0.203 HD
ENDROOT
BRANCH   8  14
HETATM   14  N7  UNL     1       3.282  -2.292  12.577  1.00  0.00    -0.217 N 
ATOM     15  H7  UNL     1       2.269  -2.208  12.482  1.00  0.00     0.178 HD
BRANCH  14  16
HETATM   16  C4  UNL     1       3.880  -3.482  13.122  1.00  0.00     0.217 C 
BRANCH  16  17
HETATM   17  C5  UNL     1       3.875  -4.614  12.188  1.00  0.00     0.128 A 
HETATM   18  N8  UNL     1       2.817  -5.197  11.622  1.00  0.00    -0.269 N 
HETATM   19  N9  UNL     1       3.277  -6.169  10.856  1.00  0.00    -0.005 NA
ATOM     20  H8  UNL     1       1.838  -4.940  11.755  1.00  0.00     0.185 HD
HETATM   21  N10 UNL     1       4.608  -6.207  10.933  1.00  0.00    -0.225 N 
HETATM   22  N11 UNL     1       4.961  -5.247  11.753  1.00  0.00    -0.274 N 
ATOM     23  H10 UNL     1       5.229  -6.855  10.449  1.00  0.00     0.205 HD
ATOM     24  H11 UNL     1       5.921  -5.021  12.017  1.00  0.00     0.189 HD
ENDBRANCH  16  17
ENDBRANCH  14  16
ENDBRANCH   8  14
BRANCH   4  25
HETATM   25  N3  UNL     1       3.871   2.736  11.212  1.00  0.00    -0.136 N 
ATOM     26  H3  UNL     1       3.051   2.558  11.790  1.00  0.00     0.205 HD
BRANCH  25  27
HETATM   27  N4  UNL     1       3.903   3.840  10.375  1.00  0.00    -0.331 N 
ATOM     28  H42 UNL     1       4.761   4.051   9.867  1.00  0.00     0.177 HD
ATOM     29  H41 UNL     1       3.075   4.428  10.274  1.00  0.00     0.177 HD
ENDBRANCH  25  27
ENDBRANCH   4  25
BRANCH   1  30
HETATM   30  N1  UNL     1       8.373   2.007  10.704  1.00  0.00    -0.234 N 
ATOM     31  H12 UNL     1       8.626   2.936  11.040  1.00  0.00     0.174 HD
ATOM     32  H11 UNL     1       9.037   1.452  10.164  1.00  0.00     0.174 HD
ENDBRANCH   1  30
TORSDOF 6
ENDMDL
MODEL 3
REMARK VINA RESULT: -8.436612617      1.257      2.623
REMARK  6 active torsions:
REMARK  status: ('A' for Active; 'I' for Inactive)
REMARK    1  A    between atoms: N1_1  and  C1_4 
REMARK    2  A    between atoms: C2_7  and  N3_8 
REMARK    3  A    between atoms: N3_8  and  N4_10 
REMARK    4  A    between atoms: C3_16  and  N7_17 
REMARK    5  A    between atoms: N7_17  and  C4_19 
REMARK    6  A    between atoms: C4_19  and  C5_20 
ROOT
HETATM    1  C1  UNL     1       3.979   1.871  11.868  1.00  0.00     0.705 A 
HETATM    2  N2  UNL     1       5.164   2.050  11.236  1.00  0.00    -0.018 N 
ATOM      3  H2  UNL     1       5.375   2.965  10.836  1.00  0.00     0.203 HD
HETATM    4  C2  UNL     1       6.067   1.069  11.119  1.00  0.00     0.747 A 
HETATM    5  N5  UNL     1       5.755  -0.121  11.659  1.00  0.00     0.107 N 
HETATM    6  N6  UNL     1       6.444  -1.265  11.700  1.00  0.00    -0.095 N 
ATOM      7  H6  UNL     1       7.370  -1.415  11.301  1.00  0.00     0.207 HD
HETATM    8  C3  UNL     1       5.715  -2.189  12.355  1.00  0.00     0.709 A 
HETATM    9  N12 UNL     1       4.572  -1.578  12.708  1.00  0.00    -0.018 N 
ATOM     10  H12 UNL     1       3.811  -2.023  13.222  1.00  0.00     0.203 HD
HETATM   11  C6  UNL     1       4.569  -0.300  12.292  1.00  0.00     0.748 A 
HETATM   12  N13 UNL     1       3.665   0.682  12.409  1.00  0.00    -0.019 N 
ATOM     13  H13 UNL     1       2.776   0.533  12.887  1.00  0.00     0.203 HD
ENDROOT
BRANCH   8  14
HETATM   14  N7  UNL     1       6.079  -3.408  12.576  1.00  0.00    -0.217 N 
ATOM     15  H7  UNL     1       7.013  -3.732  12.324  1.00  0.00     0.178 HD
BRANCH  14  16
HETATM   16  C4  UNL     1       5.125  -4.295  13.189  1.00  0.00     0.217 C 
BRANCH  16  17
HETATM   17  C5  UNL     1       4.309  -5.031  12.216  1.00  0.00     0.128 A 
HETATM   18  N8  UNL     1       4.691  -6.040  11.431  1.00  0.00    -0.269 N 
HETATM   19  N9  UNL     1       3.636  -6.396  10.720  1.00  0.00    -0.005 NA
ATOM     20  H8  UNL     1       5.621  -6.457  11.388  1.00  0.00     0.185 HD
HETATM   21  N10 UNL     1       2.598  -5.626  11.046  1.00  0.00    -0.225 N 
HETATM   22  N11 UNL     1       3.024  -4.793  11.965  1.00  0.00    -0.274 N 
ATOM     23  H10 UNL     1       1.656  -5.674  10.657  1.00  0.00     0.205 HD
ATOM     24  H11 UNL     1       2.458  -4.075  12.417  1.00  0.00     0.189 HD
ENDBRANCH  16  17
ENDBRANCH  14  16
ENDBRANCH   8  14
BRANCH   4  25
HETATM   25  N3  UNL     1       7.175   1.285  10.511  1.00  0.00    -0.136 N 
ATOM     26  H3  UNL     1       7.445   0.702   9.720  1.00  0.00     0.205 HD
BRANCH  25  27
HETATM   27  N4  UNL     1       8.007   2.312  10.930  1.00  0.00    -0.331 N 
ATOM     28  H42 UNL     1       7.736   2.868  11.741  1.00  0.00     0.177 HD
ATOM     29  H41 UNL     1       8.875   2.502  10.429  1.00  0.00     0.177 HD
ENDBRANCH  25  27
ENDBRANCH   4  25
BRANCH   1  30
HETATM   30  N1  UNL     1       3.107   2.815  11.982  1.00  0.00    -0.234 N 
ATOM     31  H12 UNL     1       3.294   3.537  12.677  1.00  0.00     0.174 HD
ATOM     32  H11 UNL     1       2.264   2.852  11.409  1.00  0.00     0.174 HD
ENDBRANCH   1  30
TORSDOF 6
ENDMDL
MODEL 4
REMARK VINA RESULT: -8.428821158      2.320      3.505
REMARK  6 active torsions:
REMARK  status: ('A' for Active; 'I' for Inactive)
REMARK    1  A    between atoms: N1_1  and  C1_4 
REMARK    2  A    between atoms: C2_7  and  N3_8 
REMARK    3  A    between atoms: N3_8  and  N4_10 
REMARK    4  A    between atoms: C3_16  and  N7_17 
REMARK    5  A    between atoms: N7_17  and  C4_19 
REMARK    6  A    between atoms: C4_19  and  C5_20 
ROOT
HETATM    1  C1  UNL     1       4.363   2.930  10.930  1.00  0.00     0.705 A 
HETATM    2  N2  UNL     1       3.503   2.512  11.889  1.00  0.00    -0.018 N 
ATOM      3  H2  UNL     1       2.740   3.130  12.170  1.00  0.00     0.203 HD
HETATM    4  C2  UNL     1       3.618   1.317  12.481  1.00  0.00     0.747 A 
HETATM    5  N5  UNL     1       4.633   0.531  12.085  1.00  0.00     0.107 N 
HETATM    6  N6  UNL     1       4.995  -0.691  12.485  1.00  0.00    -0.095 N 
ATOM      7  H6  UNL     1       4.522  -1.246  13.199  1.00  0.00     0.207 HD
HETATM    8  C3  UNL     1       6.085  -1.072  11.793  1.00  0.00     0.709 A 
HETATM    9  N12 UNL     1       6.374  -0.054  10.966  1.00  0.00    -0.018 N 
ATOM     10  H12 UNL     1       7.154  -0.044  10.309  1.00  0.00     0.203 HD
HETATM   11  C6  UNL     1       5.494   0.950  11.124  1.00  0.00     0.748 A 
HETATM   12  N13 UNL     1       5.379   2.146  10.533  1.00  0.00    -0.019 N 
ATOM     13  H13 UNL     1       6.034   2.449   9.812  1.00  0.00     0.203 HD
ENDROOT
BRANCH   8  14
HETATM   14  N7  UNL     1       6.700  -2.199  11.929  1.00  0.00    -0.217 N 
ATOM     15  H7  UNL     1       6.667  -2.908  11.195  1.00  0.00     0.178 HD
BRANCH  14  16
HETATM   16  C4  UNL     1       7.432  -2.424  13.147  1.00  0.00     0.217 C 
BRANCH  16  17
HETATM   17  C5  UNL     1       8.858  -2.094  13.036  1.00  0.00     0.128 A 
HETATM   18  N8  UNL     1       9.635  -1.524  13.959  1.00  0.00    -0.269 N 
HETATM   19  N9  UNL     1      10.842  -1.416  13.433  1.00  0.00    -0.005 NA
ATOM     20  H8  UNL     1       9.351  -1.229  14.894  1.00  0.00     0.185 HD
HETATM   21  N10 UNL     1      10.834  -1.908  12.194  1.00  0.00    -0.225 N 
HETATM   22  N11 UNL     1       9.612  -2.321  11.964  1.00  0.00    -0.274 N 
ATOM     23  H10 UNL     1      11.625  -1.954  11.551  1.00  0.00     0.205 HD
ATOM     24  H11 UNL     1       9.288  -2.750  11.096  1.00  0.00     0.189 HD
ENDBRANCH  16  17
ENDBRANCH  14  16
ENDBRANCH   8  14
BRANCH   4  25
HETATM   25  N3  UNL     1       2.780   0.964  13.385  1.00  0.00    -0.136 N 
ATOM     26  H3  UNL     1       2.871   0.055  13.837  1.00  0.00     0.205 HD
BRANCH  25  27
HETATM   27  N4  UNL     1       1.750   1.817  13.748  1.00  0.00    -0.331 N 
ATOM     28  H42 UNL     1       0.972   1.955  13.103  1.00  0.00     0.177 HD
ATOM     29  H41 UNL     1       1.777   2.297  14.648  1.00  0.00     0.177 HD
ENDBRANCH  25  27
ENDBRANCH   4  25
BRANCH   1  30
HETATM   30  N1  UNL     1       4.253   4.083  10.358  1.00  0.00    -0.234 N 
ATOM     31  H12 UNL     1       3.340   4.534  10.398  1.00  0.00     0.174 HD
ATOM     32  H11 UNL     1       5.035   4.534   9.885  1.00  0.00     0.174 HD
ENDBRANCH   1  30
TORSDOF 6
ENDMDL
MODEL 5
REMARK VINA RESULT: -8.398998051      1.059      2.488
REMARK  6 active torsions:
REMARK  status: ('A' for Active; 'I' for Inactive)
REMARK    1  A    between atoms: N1_1  and  C1_4 
REMARK    2  A    between atoms: C2_7  and  N3_8 
REMARK    3  A    between atoms: N3_8  and  N4_10 
REMARK    4  A    between atoms: C3_16  and  N7_17 
REMARK    5  A    between atoms: N7_17  and  C4_19 
REMARK    6  A    between atoms: C4_19  and  C5_20 
ROOT
HETATM    1  C1  UNL     1       4.294   2.025  11.453  1.00  0.00     0.705 A 
HETATM    2  N2  UNL     1       5.532   2.213  10.936  1.00  0.00    -0.018 N 
ATOM      3  H2  UNL     1       5.744   3.099  10.477  1.00  0.00     0.203 HD
HETATM    4  C2  UNL     1       6.485   1.276  11.007  1.00  0.00     0.747 A 
HETATM    5  N5  UNL     1       6.170   0.122  11.619  1.00  0.00     0.107 N 
HETATM    6  N6  UNL     1       6.900  -0.974  11.838  1.00  0.00    -0.095 N 
ATOM      7  H6  UNL     1       7.871  -1.108  11.555  1.00  0.00     0.207 HD
HETATM    8  C3  UNL     1       6.146  -1.876  12.495  1.00  0.00     0.709 A 
HETATM    9  N12 UNL     1       4.945  -1.300  12.668  1.00  0.00    -0.018 N 
ATOM     10  H12 UNL     1       4.153  -1.739  13.138  1.00  0.00     0.203 HD
HETATM   11  C6  UNL     1       4.931  -0.065  12.137  1.00  0.00     0.748 A 
HETATM   12  N13 UNL     1       3.976   0.872  12.066  1.00  0.00    -0.019 N 
ATOM     13  H13 UNL     1       3.047   0.717  12.459  1.00  0.00     0.203 HD
ENDROOT
BRANCH   8  14
HETATM   14  N7  UNL     1       6.538  -3.049  12.866  1.00  0.00    -0.217 N 
ATOM     15  H7  UNL     1       7.463  -3.398  12.615  1.00  0.00     0.178 HD
BRANCH  14  16
HETATM   16  C4  UNL     1       5.628  -3.847  13.645  1.00  0.00     0.217 C 
BRANCH  16  17
HETATM   17  C5  UNL     1       5.176  -5.057  12.948  1.00  0.00     0.128 A 
HETATM   18  N8  UNL     1       4.962  -6.266  13.471  1.00  0.00    -0.269 N 
HETATM   19  N9  UNL     1       4.564  -7.048  12.484  1.00  0.00    -0.005 NA
ATOM     20  H8  UNL     1       5.084  -6.535  14.448  1.00  0.00     0.185 HD
HETATM   21  N10 UNL     1       4.524  -6.349  11.349  1.00  0.00    -0.225 N 
HETATM   22  N11 UNL     1       4.901  -5.129  11.648  1.00  0.00    -0.274 N 
ATOM     23  H10 UNL     1       4.253  -6.695  10.429  1.00  0.00     0.205 HD
ATOM     24  H11 UNL     1       4.973  -4.356  10.987  1.00  0.00     0.189 HD
ENDBRANCH  16  17
ENDBRANCH  14  16
ENDBRANCH   8  14
BRANCH   4  25
HETATM   25  N3  UNL     1       7.643   1.499  10.502  1.00  0.00    -0.136 N 
ATOM     26  H3  UNL     1       8.021   0.868   9.797  1.00  0.00     0.205 HD
BRANCH  25  27
HETATM   27  N4  UNL     1       8.380   2.597  10.915  1.00  0.00    -0.331 N 
ATOM     28  H42 UNL     1       9.391   2.506  11.010  1.00  0.00     0.177 HD
ATOM     29  H41 UNL     1       7.911   3.480  11.119  1.00  0.00     0.177 HD
ENDBRANCH  25  27
ENDBRANCH   4  25
BRANCH   1  30
HETATM   30  N1  UNL     1       3.373   2.927  11.386  1.00  0.00    -0.234 N 
ATOM     31  H12 UNL     1       2.456   2.629  11.055  1.00  0.00     0.174 HD
ATOM     32  H11 UNL     1       3.539   3.898  11.650  1.00  0.00     0.174 HD
ENDBRANCH   1  30
TORSDOF 6
ENDMDL
