MODEL 1
REMARK VINA RESULT: -9.036915951      0.000      0.000
REMARK  6 active torsions:
REMARK  status: ('A' for Active; 'I' for Inactive)
REMARK    1  A    between atoms: N1_1  and  C1_4 
REMARK    2  A    between atoms: C2_10  and  N5_11 
REMARK    3  A    between atoms: C3_16  and  N7_17 
REMARK    4  A    between atoms: N7_17  and  C4_19 
REMARK    5  A    between atoms: C4_19  and  C5_20 
REMARK    6  A    between atoms: C5_20  and  N8_21 
ROOT
HETATM    1  C1  UNL     1       9.514  -1.408  12.488  1.00  0.00     0.706 A 
HETATM    2  N2  UNL     1       9.574  -0.196  11.880  1.00  0.00    -0.116 N 
ATOM      3  H2  UNL     1      10.478   0.246  11.710  1.00  0.00     0.207 HD
HETATM    4  N3  UNL     1       8.464   0.411  11.509  1.00  0.00    -0.192 N 
ATOM      5  H3  UNL     1       8.518   1.321  11.053  1.00  0.00     0.210 HD
HETATM    6  N4  UNL     1       7.273  -0.146  11.722  1.00  0.00     0.106 N 
HETATM    7  C2  UNL     1       6.140   0.472  11.345  1.00  0.00     0.728 A 
HETATM    8  N6  UNL     1       4.917  -0.089  11.559  1.00  0.00    -0.020 N 
ATOM      9  H6  UNL     1       4.059   0.382  11.273  1.00  0.00     0.203 HD
HETATM   10  C3  UNL     1       4.889  -1.288  12.162  1.00  0.00     0.707 A 
HETATM   11  N11 UNL     1       6.013  -1.900  12.535  1.00  0.00    -0.019 N 
ATOM     12  H11 UNL     1       5.958  -2.810  12.992  1.00  0.00     0.203 HD
HETATM   13  C7  UNL     1       7.211  -1.343  12.323  1.00  0.00     0.749 A 
HETATM   14  N12 UNL     1       8.345  -1.997  12.718  1.00  0.00    -0.018 N 
ATOM     15  H12 UNL     1       8.295  -2.907  13.175  1.00  0.00     0.203 HD
ENDROOT
BRANCH  10  16
HETATM   16  N7  UNL     1       3.761  -1.863  12.387  1.00  0.00    -0.224 N 
ATOM     17  H7  UNL     1       2.909  -1.478  11.980  1.00  0.00     0.177 HD
BRANCH  16  18
HETATM   18  C4  UNL     1       3.688  -3.050  13.211  1.00  0.00     0.157 C 
BRANCH  18  19
HETATM   19  C5  UNL     1       3.178  -4.172  12.334  1.00  0.00     0.142 C 
BRANCH  19  20
HETATM   20  N8  UNL     1       4.199  -5.142  12.022  1.00  0.00    -0.365 N 
HETATM   21  C6  UNL     1       3.952  -6.040  11.137  1.00  0.00     0.197 C 
HETATM   22  N9  UNL     1       2.698  -6.078  10.478  1.00  0.00    -0.067 NA
HETATM   23  N10 UNL     1       4.936  -7.010  10.810  1.00  0.00    -0.067 NA
ATOM     24  H8  UNL     1       5.101  -5.116  12.496  1.00  0.00     0.161 HD
ENDBRANCH  19  20
ENDBRANCH  18  19
ENDBRANCH  16  18
ENDBRANCH  10  16
BRANCH   7  25
HETATM   25  N5  UNL     1       6.223   1.622  10.769  1.00  0.00    -0.232 N 
ATOM     26  H52 UNL     1       7.044   1.847  10.206  1.00  0.00     0.174 HD
ATOM     27  H51 UNL     1       5.459   2.288  10.889  1.00  0.00     0.174 HD
ENDBRANCH   7  25
BRANCH   1  28
HETATM   28  N1  UNL     1      10.602  -2.018  12.859  1.00  0.00    -0.233 N 
ATOM     29  H12 UNL     1      11.277  -1.508  13.429  1.00  0.00     0.174 HD
ATOM     30  H11 UNL     1      10.775  -2.985  12.584  1.00  0.00     0.174 HD
ENDBRANCH   1  28
TORSDOF 6
ENDMDL
MODEL 2
REMARK VINA RESULT: -8.903703956      1.656      3.645
REMARK  6 active torsions:
REMARK  status: ('A' for Active; 'I' for Inactive)
REMARK    1  A    between atoms: N1_1  and  C1_4 
REMARK    2  A    between atoms: C2_10  and  N5_11 
REMARK    3  A    between atoms: C3_16  and  N7_17 
REMARK    4  A    between atoms: N7_17  and  C4_19 
REMARK    5  A    between atoms: C4_19  and  C5_20 
REMARK    6  A    between atoms: C5_20  and  N8_21 
ROOT
HETATM    1  C1  UNL     1       4.634   2.902  10.821  1.00  0.00     0.706 A 
HETATM    2  N2  UNL     1       5.947   2.614  10.628  1.00  0.00    -0.116 N 
ATOM      3  H2  UNL     1       6.558   3.294  10.176  1.00  0.00     0.207 HD
HETATM    4  N3  UNL     1       6.432   1.454  11.026  1.00  0.00    -0.192 N 
ATOM      5  H3  UNL     1       7.419   1.246  10.878  1.00  0.00     0.210 HD
HETATM    6  N4  UNL     1       5.652   0.550  11.618  1.00  0.00     0.106 N 
HETATM    7  C2  UNL     1       6.146  -0.633  12.023  1.00  0.00     0.728 A 
HETATM    8  N6  UNL     1       5.357  -1.564  12.629  1.00  0.00    -0.020 N 
ATOM      9  H6  UNL     1       5.732  -2.461  12.935  1.00  0.00     0.203 HD
HETATM   10  C3  UNL     1       4.063  -1.251  12.806  1.00  0.00     0.707 A 
HETATM   11  N11 UNL     1       3.576  -0.078  12.404  1.00  0.00    -0.019 N 
ATOM     12  H11 UNL     1       2.588   0.131  12.552  1.00  0.00     0.203 HD
HETATM   13  C7  UNL     1       4.355   0.832  11.809  1.00  0.00     0.749 A 
HETATM   14  N12 UNL     1       3.824   2.027  11.408  1.00  0.00    -0.018 N 
ATOM     15  H12 UNL     1       2.837   2.239  11.554  1.00  0.00     0.203 HD
ENDROOT
BRANCH  10  16
HETATM   16  N7  UNL     1       3.275  -2.093  13.373  1.00  0.00    -0.224 N 
ATOM     17  H7  UNL     1       2.926  -1.904  14.312  1.00  0.00     0.177 HD
BRANCH  16  18
HETATM   18  C4  UNL     1       2.877  -3.307  12.693  1.00  0.00     0.157 C 
BRANCH  18  19
HETATM   19  C5  UNL     1       3.952  -4.338  12.951  1.00  0.00     0.142 C 
BRANCH  19  20
HETATM   20  N8  UNL     1       4.286  -5.102  11.774  1.00  0.00    -0.365 N 
HETATM   21  C6  UNL     1       4.568  -6.348  11.903  1.00  0.00     0.197 C 
HETATM   22  N9  UNL     1       4.553  -6.964  13.180  1.00  0.00    -0.067 NA
HETATM   23  N10 UNL     1       4.901  -7.127  10.763  1.00  0.00    -0.067 NA
ATOM     24  H8  UNL     1       4.297  -4.660  10.855  1.00  0.00     0.161 HD
ENDBRANCH  19  20
ENDBRANCH  18  19
ENDBRANCH  16  18
ENDBRANCH  10  16
BRANCH   7  25
HETATM   25  N5  UNL     1       7.395  -0.883  11.830  1.00  0.00    -0.232 N 
ATOM     26  H52 UNL     1       7.713  -1.189  10.910  1.00  0.00     0.174 HD
ATOM     27  H51 UNL     1       8.045  -0.768  12.607  1.00  0.00     0.174 HD
ENDBRANCH   7  25
BRANCH   1  28
HETATM   28  N1  UNL     1       4.143   4.043  10.433  1.00  0.00    -0.233 N 
ATOM     29  H12 UNL     1       4.745   4.865  10.452  1.00  0.00     0.174 HD
ATOM     30  H11 UNL     1       3.175   4.111  10.119  1.00  0.00     0.174 HD
ENDBRANCH   1  28
TORSDOF 6
ENDMDL
MODEL 3
REMARK VINA RESULT: -8.610207467      1.710      3.850
REMARK  6 active torsions:
REMARK  status: ('A' for Active; 'I' for Inactive)
REMARK    1  A    between atoms: N1_1  and  C1_4 
REMARK    2  A    between atoms: C2_10  and  N5_11 
REMARK    3  A    between atoms: C3_16  and  N7_17 
REMARK    4  A    between atoms: N7_17  and  C4_19 
REMARK    5  A    between atoms: C4_19  and  C5_20 
REMARK    6  A    between atoms: C5_20  and  N8_21 
ROOT
HETATM    1  C1  UNL     1       3.115   1.904  11.932  1.00  0.00     0.706 A 
HETATM    2  N2  UNL     1       4.159   2.629  11.455  1.00  0.00    -0.116 N 
ATOM      3  H2  UNL     1       4.036   3.618  11.235  1.00  0.00     0.207 HD
HETATM    4  N3  UNL     1       5.333   2.055  11.277  1.00  0.00    -0.192 N 
ATOM      5  H3  UNL     1       6.112   2.607  10.920  1.00  0.00     0.210 HD
HETATM    6  N4  UNL     1       5.516   0.765  11.557  1.00  0.00     0.106 N 
HETATM    7  C2  UNL     1       6.712   0.179  11.376  1.00  0.00     0.728 A 
HETATM    8  N6  UNL     1       6.909  -1.140  11.658  1.00  0.00    -0.020 N 
ATOM      9  H6  UNL     1       7.816  -1.583  11.518  1.00  0.00     0.203 HD
HETATM   10  C3  UNL     1       5.858  -1.831  12.127  1.00  0.00     0.707 A 
HETATM   11  N11 UNL     1       4.673  -1.248  12.307  1.00  0.00    -0.019 N 
ATOM     12  H11 UNL     1       3.893  -1.800  12.665  1.00  0.00     0.203 HD
HETATM   13  C7  UNL     1       4.485   0.047  12.027  1.00  0.00     0.749 A 
HETATM   14  N12 UNL     1       3.257   0.615  12.223  1.00  0.00    -0.018 N 
ATOM     15  H12 UNL     1       2.475   0.067  12.580  1.00  0.00     0.203 HD
ENDROOT
BRANCH  10  16
HETATM   16  N7  UNL     1       5.990  -3.078  12.411  1.00  0.00    -0.224 N 
ATOM     17  H7  UNL     1       6.641  -3.651  11.875  1.00  0.00     0.177 HD
BRANCH  16  18
HETATM   18  C4  UNL     1       5.223  -3.677  13.482  1.00  0.00     0.157 C 
BRANCH  18  19
HETATM   19  C5  UNL     1       4.854  -5.075  13.040  1.00  0.00     0.142 C 
BRANCH  19  20
HETATM   20  N8  UNL     1       3.683  -5.101  12.197  1.00  0.00    -0.365 N 
HETATM   21  C6  UNL     1       3.642  -5.931  11.218  1.00  0.00     0.197 C 
HETATM   22  N9  UNL     1       4.727  -6.808  10.969  1.00  0.00    -0.067 NA
HETATM   23  N10 UNL     1       2.503  -5.980  10.371  1.00  0.00    -0.067 NA
ATOM     24  H8  UNL     1       2.902  -4.470  12.376  1.00  0.00     0.161 HD
ENDBRANCH  19  20
ENDBRANCH  18  19
ENDBRANCH  16  18
ENDBRANCH  10  16
BRANCH   7  25
HETATM   25  N5  UNL     1       7.688   0.888  10.923  1.00  0.00    -0.232 N 
ATOM     26  H52 UNL     1       7.494   1.760  10.431  1.00  0.00     0.174 HD
ATOM     27  H51 UNL     1       8.643   0.559  11.068  1.00  0.00     0.174 HD
ENDBRANCH   7  25
BRANCH   1  28
HETATM   28  N1  UNL     1       1.952   2.458  12.112  1.00  0.00    -0.233 N 
ATOM     29  H12 UNL     1       1.501   2.916  11.320  1.00  0.00     0.174 HD
ATOM     30  H11 UNL     1       1.502   2.435  13.027  1.00  0.00     0.174 HD
ENDBRANCH   1  28
TORSDOF 6
ENDMDL
MODEL 4
REMARK VINA RESULT: -8.568592115      1.142      3.221
REMARK  6 active torsions:
REMARK  status: ('A' for Active; 'I' for Inactive)
REMARK    1  A    between atoms: N1_1  and  C1_4 
REMARK    2  A    between atoms: C2_10  and  N5_11 
REMARK    3  A    between atoms: C3_16  and  N7_17 
REMARK    4  A    between atoms: N7_17  and  C4_19 
REMARK    5  A    between atoms: C4_19  and  C5_20 
REMARK    6  A    between atoms: C5_20  and  N8_21 
ROOT
HETATM    1  C1  UNL     1       5.186   2.507  10.784  1.00  0.00     0.706 A 
HETATM    2  N2  UNL     1       6.543   2.550  10.753  1.00  0.00    -0.116 N 
ATOM      3  H2  UNL     1       7.020   3.394  10.437  1.00  0.00     0.207 HD
HETATM    4  N3  UNL     1       7.244   1.498  11.132  1.00  0.00    -0.192 N 
ATOM      5  H3  UNL     1       8.262   1.539  11.106  1.00  0.00     0.210 HD
HETATM    6  N4  UNL     1       6.641   0.385  11.547  1.00  0.00     0.106 N 
HETATM    7  C2  UNL     1       7.355  -0.687  11.933  1.00  0.00     0.728 A 
HETATM    8  N6  UNL     1       6.749  -1.831  12.358  1.00  0.00    -0.020 N 
ATOM      9  H6  UNL     1       7.291  -2.644  12.649  1.00  0.00     0.203 HD
HETATM   10  C3  UNL     1       5.407  -1.844  12.378  1.00  0.00     0.707 A 
HETATM   11  N11 UNL     1       4.700  -0.779  11.995  1.00  0.00    -0.019 N 
ATOM     12  H11 UNL     1       3.682  -0.820  12.021  1.00  0.00     0.203 HD
HETATM   13  C7  UNL     1       5.301   0.341  11.578  1.00  0.00     0.749 A 
HETATM   14  N12 UNL     1       4.548   1.415  11.192  1.00  0.00    -0.018 N 
ATOM     15  H12 UNL     1       3.529   1.378  11.216  1.00  0.00     0.203 HD
ENDROOT
BRANCH  10  16
HETATM   16  N7  UNL     1       4.784  -2.897  12.771  1.00  0.00    -0.224 N 
ATOM     17  H7  UNL     1       5.314  -3.729  13.030  1.00  0.00     0.177 HD
BRANCH  16  18
HETATM   18  C4  UNL     1       3.339  -2.915  12.851  1.00  0.00     0.157 C 
BRANCH  18  19
HETATM   19  C5  UNL     1       2.881  -4.271  12.363  1.00  0.00     0.142 C 
BRANCH  19  20
HETATM   20  N8  UNL     1       3.979  -5.172  12.110  1.00  0.00    -0.365 N 
HETATM   21  C6  UNL     1       3.865  -6.040  11.171  1.00  0.00     0.197 C 
HETATM   22  N9  UNL     1       2.681  -6.115  10.396  1.00  0.00    -0.067 NA
HETATM   23  N10 UNL     1       4.928  -6.941  10.899  1.00  0.00    -0.067 NA
ATOM     24  H8  UNL     1       4.832  -5.119  12.667  1.00  0.00     0.161 HD
ENDBRANCH  19  20
ENDBRANCH  18  19
ENDBRANCH  16  18
ENDBRANCH  10  16
BRANCH   7  25
HETATM   25  N5  UNL     1       8.642  -0.622  11.895  1.00  0.00    -0.232 N 
ATOM     26  H52 UNL     1       9.195  -1.456  12.092  1.00  0.00     0.174 HD
ATOM     27  H51 UNL     1       9.082   0.269  11.666  1.00  0.00     0.174 HD
ENDBRANCH   7  25
BRANCH   1  28
HETATM   28  N1  UNL     1       4.483   3.537  10.413  1.00  0.00    -0.233 N 
ATOM     29  H12 UNL     1       4.438   3.765   9.420  1.00  0.00     0.174 HD
ATOM     30  H11 UNL     1       3.988   4.103  11.103  1.00  0.00     0.174 HD
ENDBRANCH   1  28
TORSDOF 6
ENDMDL
MODEL 5
REMARK VINA RESULT: -8.565226431      1.358      3.428
REMARK  6 active torsions:
REMARK  status: ('A' for Active; 'I' for Inactive)
REMARK    1  A    between atoms: N1_1  and  C1_4 
REMARK    2  A    between atoms: C2_10  and  N5_11 
REMARK    3  A    between atoms: C3_16  and  N7_17 
REMARK    4  A    between atoms: N7_17  and  C4_19 
REMARK    5  A    between atoms: C4_19  and  C5_20 
REMARK    6  A    between atoms: C5_20  and  N8_21 
ROOT
HETATM    1  C1  UNL     1       4.982   2.476  10.861  1.00  0.00     0.706 A 
HETATM    2  N2  UNL     1       6.336   2.547  10.796  1.00  0.00    -0.116 N 
ATOM      3  H2  UNL     1       6.788   3.404  10.479  1.00  0.00     0.207 HD
HETATM    4  N3  UNL     1       7.067   1.505  11.144  1.00  0.00    -0.192 N 
ATOM      5  H3  UNL     1       8.084   1.567  11.093  1.00  0.00     0.210 HD
HETATM    6  N4  UNL     1       6.498   0.375  11.560  1.00  0.00     0.106 N 
HETATM    7  C2  UNL     1       7.242  -0.687  11.914  1.00  0.00     0.728 A 
HETATM    8  N6  UNL     1       6.670  -1.848  12.340  1.00  0.00    -0.020 N 
ATOM      9  H6  UNL     1       7.236  -2.653  12.607  1.00  0.00     0.203 HD
HETATM   10  C3  UNL     1       5.329  -1.888  12.394  1.00  0.00     0.707 A 
HETATM   11  N11 UNL     1       4.593  -0.834  12.043  1.00  0.00    -0.019 N 
ATOM     12  H11 UNL     1       3.576  -0.895  12.094  1.00  0.00     0.203 HD
HETATM   13  C7  UNL     1       5.160   0.303  11.624  1.00  0.00     0.749 A 
HETATM   14  N12 UNL     1       4.376   1.366  11.271  1.00  0.00    -0.018 N 
ATOM     15  H12 UNL     1       3.359   1.309  11.321  1.00  0.00     0.203 HD
ENDROOT
BRANCH  10  16
HETATM   16  N7  UNL     1       4.738  -2.959  12.790  1.00  0.00    -0.224 N 
ATOM     17  H7  UNL     1       3.761  -3.116  12.543  1.00  0.00     0.177 HD
BRANCH  16  18
HETATM   18  C4  UNL     1       5.444  -3.943  13.581  1.00  0.00     0.157 C 
BRANCH  18  19
HETATM   19  C5  UNL     1       5.016  -5.306  13.084  1.00  0.00     0.142 C 
BRANCH  19  20
HETATM   20  N8  UNL     1       3.824  -5.254  12.272  1.00  0.00    -0.365 N 
HETATM   21  C6  UNL     1       3.746  -6.009  11.236  1.00  0.00     0.197 C 
HETATM   22  N9  UNL     1       4.812  -6.879  10.894  1.00  0.00    -0.067 NA
HETATM   23  N10 UNL     1       2.587  -5.980  10.417  1.00  0.00    -0.067 NA
ATOM     24  H8  UNL     1       3.057  -4.628  12.518  1.00  0.00     0.161 HD
ENDBRANCH  19  20
ENDBRANCH  18  19
ENDBRANCH  16  18
ENDBRANCH  10  16
BRANCH   7  25
HETATM   25  N5  UNL     1       8.526  -0.596  11.844  1.00  0.00    -0.232 N 
ATOM     26  H52 UNL     1       8.953   0.250  11.468  1.00  0.00     0.174 HD
ATOM     27  H51 UNL     1       9.092  -1.379  12.171  1.00  0.00     0.174 HD
ENDBRANCH   7  25
BRANCH   1  28
HETATM   28  N1  UNL     1       4.249   3.496  10.521  1.00  0.00    -0.233 N 
ATOM     29  H12 UNL     1       4.321   3.853   9.569  1.00  0.00     0.174 HD
ATOM     30  H11 UNL     1       3.617   3.929  11.195  1.00  0.00     0.174 HD
ENDBRANCH   1  28
TORSDOF 6
ENDMDL
