MODEL 1
REMARK VINA RESULT: -9.278750525      0.000      0.000
REMARK  5 active torsions:
REMARK  status: ('A' for Active; 'I' for Inactive)
REMARK    1  A    between atoms: N1_1  and  C1_4 
REMARK    2  A    between atoms: C2_7  and  C3_8 
REMARK       I    between atoms: C3_8  and  N3_10 
REMARK    3  A    between atoms: N3_10  and  C4_12 
REMARK    4  A    between atoms: C4_12  and  N4_13 
REMARK    5  A    between atoms: C7_23  and  N9_24 
ROOT
HETATM    1  C1  UNL     1       6.335   1.082  11.184  1.00  0.00     0.678 A 
HETATM    2  N2  UNL     1       6.422  -0.244  11.380  1.00  0.00    -0.184 N 
ATOM      3  H2  UNL     1       7.280  -0.734  11.127  1.00  0.00     0.184 HD
HETATM    4  C2  UNL     1       5.406  -0.927  11.901  1.00  0.00     0.144 A 
HETATM    5  C6  UNL     1       4.269  -0.220  12.229  1.00  0.00     0.123 A 
HETATM    6  N8  UNL     1       3.158  -0.913  12.788  1.00  0.00    -0.096 NA
HETATM    7  C7  UNL     1       4.180   1.145  12.026  1.00  0.00     0.141 A 
HETATM    8  N10 UNL     1       5.241   1.795  11.493  1.00  0.00    -0.175 N 
ATOM      9  H10 UNL     1       5.210   2.801  11.329  1.00  0.00     0.186 HD
ENDROOT
BRANCH   4  10
HETATM   10  C3  UNL     1       5.451  -2.368  12.135  1.00  0.00     0.272 C 
HETATM   11  O1  UNL     1       6.061  -3.105  11.327  1.00  0.00    -0.266 OA
HETATM   12  N3  UNL     1       4.820  -2.958  13.255  1.00  0.00    -0.338 N 
ATOM     13  H3  UNL     1       4.320  -2.370  13.920  1.00  0.00     0.164 HD
BRANCH  12  14
HETATM   14  C4  UNL     1       4.879  -4.390  13.465  1.00  0.00     0.280 C 
BRANCH  14  15
HETATM   15  N4  UNL     1       4.252  -5.109  12.376  1.00  0.00    -0.210 N 
HETATM   16  N5  UNL     1       4.728  -6.082  11.634  1.00  0.00    -0.218 N 
HETATM   17  N6  UNL     1       3.813  -6.453  10.743  1.00  0.00    -0.002 NA
ATOM     18  H5  UNL     1       5.657  -6.490  11.727  1.00  0.00     0.206 HD
HETATM   19  N7  UNL     1       2.722  -5.720  10.896  1.00  0.00    -0.233 N 
HETATM   20  C5  UNL     1       2.994  -4.883  11.912  1.00  0.00     0.356 A 
ATOM     21  H7  UNL     1       1.859  -5.778  10.357  1.00  0.00     0.189 HD
HETATM   22  O2  UNL     1       2.185  -4.019  12.356  1.00  0.00    -0.244 OA
ENDBRANCH  14  15
ENDBRANCH  12  14
ENDBRANCH   4  10
BRANCH   1  23
HETATM   23  N1  UNL     1       7.348   1.731  10.671  1.00  0.00    -0.234 N 
ATOM     24  H12 UNL     1       8.061   2.070  11.317  1.00  0.00     0.174 HD
ATOM     25  H11 UNL     1       7.398   1.878   9.663  1.00  0.00     0.174 HD
ENDBRANCH   1  23
BRANCH   7  26
HETATM   26  N9  UNL     1       3.098   1.793  12.341  1.00  0.00    -0.383 N 
ATOM     27  H92 UNL     1       2.231   1.633  11.830  1.00  0.00     0.157 HD
ATOM     28  H91 UNL     1       3.101   2.471  13.104  1.00  0.00     0.157 HD
ENDBRANCH   7  26
TORSDOF 5
ENDMDL
MODEL 2
REMARK VINA RESULT: -8.905843582      1.692      2.883
REMARK  5 active torsions:
REMARK  status: ('A' for Active; 'I' for Inactive)
REMARK    1  A    between atoms: N1_1  and  C1_4 
REMARK    2  A    between atoms: C2_7  and  C3_8 
REMARK       I    between atoms: C3_8  and  N3_10 
REMARK    3  A    between atoms: N3_10  and  C4_12 
REMARK    4  A    between atoms: C4_12  and  N4_13 
REMARK    5  A    between atoms: C7_23  and  N9_24 
ROOT
HETATM    1  C1  UNL     1       4.600   2.810  10.804  1.00  0.00     0.678 A 
HETATM    2  N2  UNL     1       3.858   1.875  11.419  1.00  0.00    -0.184 N 
ATOM      3  H2  UNL     1       2.858   2.028  11.545  1.00  0.00     0.184 HD
HETATM    4  C2  UNL     1       4.410   0.749  11.866  1.00  0.00     0.144 A 
HETATM    5  C6  UNL     1       5.766   0.587  11.671  1.00  0.00     0.123 A 
HETATM    6  N8  UNL     1       6.396  -0.603  12.134  1.00  0.00    -0.096 NA
HETATM    7  C7  UNL     1       6.528   1.551  11.038  1.00  0.00     0.141 A 
HETATM    8  N10 UNL     1       5.920   2.680  10.602  1.00  0.00    -0.175 N 
ATOM      9  H10 UNL     1       6.451   3.412  10.131  1.00  0.00     0.186 HD
ENDROOT
BRANCH   4  10
HETATM   10  C3  UNL     1       3.649  -0.299  12.540  1.00  0.00     0.272 C 
HETATM   11  O1  UNL     1       2.833   0.012  13.437  1.00  0.00    -0.266 OA
HETATM   12  N3  UNL     1       3.809  -1.664  12.205  1.00  0.00    -0.338 N 
ATOM     13  H3  UNL     1       4.470  -1.931  11.476  1.00  0.00     0.164 HD
BRANCH  12  14
HETATM   14  C4  UNL     1       3.042  -2.686  12.887  1.00  0.00     0.280 C 
BRANCH  14  15
HETATM   15  N4  UNL     1       3.489  -4.013  12.520  1.00  0.00    -0.210 N 
HETATM   16  N5  UNL     1       2.877  -4.935  11.813  1.00  0.00    -0.218 N 
HETATM   17  N6  UNL     1       3.651  -6.012  11.718  1.00  0.00    -0.002 NA
ATOM     18  H5  UNL     1       1.950  -4.839  11.400  1.00  0.00     0.206 HD
HETATM   19  N7  UNL     1       4.784  -5.802  12.367  1.00  0.00    -0.233 N 
HETATM   20  C5  UNL     1       4.685  -4.558  12.867  1.00  0.00     0.356 A 
ATOM     21  H7  UNL     1       5.567  -6.448  12.467  1.00  0.00     0.189 HD
HETATM   22  O2  UNL     1       5.583  -3.996  13.556  1.00  0.00    -0.244 OA
ENDBRANCH  14  15
ENDBRANCH  12  14
ENDBRANCH   4  10
BRANCH   1  23
HETATM   23  N1  UNL     1       4.033   3.909  10.373  1.00  0.00    -0.234 N 
ATOM     24  H12 UNL     1       3.908   4.004   9.366  1.00  0.00     0.174 HD
ATOM     25  H11 UNL     1       3.739   4.622  11.040  1.00  0.00     0.174 HD
ENDBRANCH   1  23
BRANCH   7  26
HETATM   26  N9  UNL     1       7.804   1.380  10.864  1.00  0.00    -0.383 N 
ATOM     27  H92 UNL     1       8.182   0.449  10.687  1.00  0.00     0.157 HD
ATOM     28  H91 UNL     1       8.447   2.172  10.903  1.00  0.00     0.157 HD
ENDBRANCH   7  26
TORSDOF 5
ENDMDL
MODEL 3
REMARK VINA RESULT: -8.721118400      1.661      2.849
REMARK  5 active torsions:
REMARK  status: ('A' for Active; 'I' for Inactive)
REMARK    1  A    between atoms: N1_1  and  C1_4 
REMARK    2  A    between atoms: C2_7  and  C3_8 
REMARK       I    between atoms: C3_8  and  N3_10 
REMARK    3  A    between atoms: N3_10  and  C4_12 
REMARK    4  A    between atoms: C4_12  and  N4_13 
REMARK    5  A    between atoms: C7_23  and  N9_24 
ROOT
HETATM    1  C1  UNL     1       4.587   2.905  10.772  1.00  0.00     0.678 A 
HETATM    2  N2  UNL     1       3.857   1.956  11.379  1.00  0.00    -0.184 N 
ATOM      3  H2  UNL     1       2.855   2.095  11.503  1.00  0.00     0.184 HD
HETATM    4  C2  UNL     1       4.424   0.836  11.822  1.00  0.00     0.144 A 
HETATM    5  C6  UNL     1       5.782   0.694  11.630  1.00  0.00     0.123 A 
HETATM    6  N8  UNL     1       6.428  -0.489  12.088  1.00  0.00    -0.096 NA
HETATM    7  C7  UNL     1       6.532   1.673  11.004  1.00  0.00     0.141 A 
HETATM    8  N10 UNL     1       5.909   2.795  10.572  1.00  0.00    -0.175 N 
ATOM      9  H10 UNL     1       6.431   3.537  10.107  1.00  0.00     0.186 HD
ENDROOT
BRANCH   4  10
HETATM   10  C3  UNL     1       3.675  -0.227  12.488  1.00  0.00     0.272 C 
HETATM   11  O1  UNL     1       2.898   0.062  13.426  1.00  0.00    -0.266 OA
HETATM   12  N3  UNL     1       3.806  -1.581  12.101  1.00  0.00    -0.338 N 
ATOM     13  H3  UNL     1       4.436  -1.829  11.339  1.00  0.00     0.164 HD
BRANCH  12  14
HETATM   14  C4  UNL     1       3.053  -2.617  12.777  1.00  0.00     0.280 C 
BRANCH  14  15
HETATM   15  N4  UNL     1       3.769  -3.875  12.773  1.00  0.00    -0.210 N 
HETATM   16  N5  UNL     1       4.896  -4.197  13.366  1.00  0.00    -0.218 N 
HETATM   17  N6  UNL     1       5.196  -5.464  13.097  1.00  0.00    -0.002 NA
ATOM     18  H5  UNL     1       5.455  -3.570  13.944  1.00  0.00     0.206 HD
HETATM   19  N7  UNL     1       4.261  -5.986  12.321  1.00  0.00    -0.233 N 
HETATM   20  C5  UNL     1       3.372  -4.999  12.119  1.00  0.00     0.356 A 
ATOM     21  H7  UNL     1       4.223  -6.936  11.954  1.00  0.00     0.189 HD
HETATM   22  O2  UNL     1       2.326  -5.117  11.419  1.00  0.00    -0.244 OA
ENDBRANCH  14  15
ENDBRANCH  12  14
ENDBRANCH   4  10
BRANCH   1  23
HETATM   23  N1  UNL     1       4.006   3.998  10.345  1.00  0.00    -0.234 N 
ATOM     24  H12 UNL     1       3.856   4.085   9.340  1.00  0.00     0.174 HD
ATOM     25  H11 UNL     1       3.725   4.716  11.013  1.00  0.00     0.174 HD
ENDBRANCH   1  23
BRANCH   7  26
HETATM   26  N9  UNL     1       7.811   1.521  10.833  1.00  0.00    -0.383 N 
ATOM     27  H92 UNL     1       8.214   1.536   9.896  1.00  0.00     0.157 HD
ATOM     28  H91 UNL     1       8.431   1.384  11.632  1.00  0.00     0.157 HD
ENDBRANCH   7  26
TORSDOF 5
ENDMDL
MODEL 4
REMARK VINA RESULT: -8.575266605      1.050      1.050
REMARK  5 active torsions:
REMARK  status: ('A' for Active; 'I' for Inactive)
REMARK    1  A    between atoms: N1_1  and  C1_4 
REMARK    2  A    between atoms: C2_7  and  C3_8 
REMARK       I    between atoms: C3_8  and  N3_10 
REMARK    3  A    between atoms: N3_10  and  C4_12 
REMARK    4  A    between atoms: C4_12  and  N4_13 
REMARK    5  A    between atoms: C7_23  and  N9_24 
ROOT
HETATM    1  C1  UNL     1       7.185   1.554  11.004  1.00  0.00     0.678 A 
HETATM    2  N2  UNL     1       7.260   0.301  11.483  1.00  0.00    -0.184 N 
ATOM      3  H2  UNL     1       8.155  -0.188  11.472  1.00  0.00     0.184 HD
HETATM    4  C2  UNL     1       6.184  -0.310  11.972  1.00  0.00     0.144 A 
HETATM    5  C6  UNL     1       4.998   0.393  11.967  1.00  0.00     0.123 A 
HETATM    6  N8  UNL     1       3.823  -0.224  12.481  1.00  0.00    -0.096 NA
HETATM    7  C7  UNL     1       4.922   1.682  11.473  1.00  0.00     0.141 A 
HETATM    8  N10 UNL     1       6.045   2.261  10.985  1.00  0.00    -0.175 N 
ATOM      9  H10 UNL     1       6.025   3.211  10.613  1.00  0.00     0.186 HD
ENDROOT
BRANCH   4  10
HETATM   10  C3  UNL     1       6.213  -1.670  12.505  1.00  0.00     0.272 C 
HETATM   11  O1  UNL     1       7.072  -1.978  13.362  1.00  0.00    -0.266 OA
HETATM   12  N3  UNL     1       5.293  -2.654  12.076  1.00  0.00    -0.338 N 
ATOM     13  H3  UNL     1       4.588  -2.416  11.378  1.00  0.00     0.164 HD
BRANCH  12  14
HETATM   14  C4  UNL     1       5.341  -3.996  12.618  1.00  0.00     0.280 C 
BRANCH  14  15
HETATM   15  N4  UNL     1       4.440  -4.882  11.912  1.00  0.00    -0.210 N 
HETATM   16  N5  UNL     1       4.706  -5.966  11.220  1.00  0.00    -0.218 N 
HETATM   17  N6  UNL     1       3.578  -6.476  10.736  1.00  0.00    -0.002 NA
ATOM     18  H5  UNL     1       5.637  -6.357  11.077  1.00  0.00     0.206 HD
HETATM   19  N7  UNL     1       2.556  -5.724  11.109  1.00  0.00    -0.233 N 
HETATM   20  C5  UNL     1       3.091  -4.731  11.841  1.00  0.00     0.356 A 
ATOM     21  H7  UNL     1       1.571  -5.867  10.889  1.00  0.00     0.189 HD
HETATM   22  O2  UNL     1       2.421  -3.803  12.377  1.00  0.00    -0.244 OA
ENDBRANCH  14  15
ENDBRANCH  12  14
ENDBRANCH   4  10
BRANCH   1  23
HETATM   23  N1  UNL     1       8.257   2.134  10.529  1.00  0.00    -0.234 N 
ATOM     24  H12 UNL     1       8.662   1.741   9.679  1.00  0.00     0.174 HD
ATOM     25  H11 UNL     1       8.650   2.944  11.008  1.00  0.00     0.174 HD
ENDBRANCH   1  23
BRANCH   7  26
HETATM   26  N9  UNL     1       3.794   2.328  11.477  1.00  0.00    -0.383 N 
ATOM     27  H92 UNL     1       3.152   2.252  10.688  1.00  0.00     0.157 HD
ATOM     28  H91 UNL     1       3.535   2.920  12.266  1.00  0.00     0.157 HD
ENDBRANCH   7  26
TORSDOF 5
ENDMDL
MODEL 5
REMARK VINA RESULT: -8.388147816      1.726      2.429
REMARK  5 active torsions:
REMARK  status: ('A' for Active; 'I' for Inactive)
REMARK    1  A    between atoms: N1_1  and  C1_4 
REMARK    2  A    between atoms: C2_7  and  C3_8 
REMARK       I    between atoms: C3_8  and  N3_10 
REMARK    3  A    between atoms: N3_10  and  C4_12 
REMARK    4  A    between atoms: C4_12  and  N4_13 
REMARK    5  A    between atoms: C7_23  and  N9_24 
ROOT
HETATM    1  C1  UNL     1       6.593   1.553  11.052  1.00  0.00     0.678 A 
HETATM    2  N2  UNL     1       5.882   0.594  11.666  1.00  0.00    -0.184 N 
ATOM      3  H2  UNL     1       6.350  -0.256  11.979  1.00  0.00     0.184 HD
HETATM    4  C2  UNL     1       4.575   0.737  11.872  1.00  0.00     0.144 A 
HETATM    5  C6  UNL     1       3.988   1.904  11.431  1.00  0.00     0.123 A 
HETATM    6  N8  UNL     1       2.592   2.097  11.631  1.00  0.00    -0.096 NA
HETATM    7  C7  UNL     1       4.721   2.891  10.798  1.00  0.00     0.141 A 
HETATM    8  N10 UNL     1       6.049   2.698  10.612  1.00  0.00    -0.175 N 
ATOM      9  H10 UNL     1       6.620   3.404  10.149  1.00  0.00     0.186 HD
ENDROOT
BRANCH   4  10
HETATM   10  C3  UNL     1       3.757  -0.276  12.535  1.00  0.00     0.272 C 
HETATM   11  O1  UNL     1       2.950   0.071  13.426  1.00  0.00    -0.266 OA
HETATM   12  N3  UNL     1       3.854  -1.645  12.195  1.00  0.00    -0.338 N 
ATOM     13  H3  UNL     1       4.508  -1.941  11.471  1.00  0.00     0.164 HD
BRANCH  12  14
HETATM   14  C4  UNL     1       3.033  -2.631  12.866  1.00  0.00     0.280 C 
BRANCH  14  15
HETATM   15  N4  UNL     1       3.471  -3.977  12.562  1.00  0.00    -0.210 N 
HETATM   16  N5  UNL     1       2.860  -4.922  11.885  1.00  0.00    -0.218 N 
HETATM   17  N6  UNL     1       3.624  -6.009  11.847  1.00  0.00    -0.002 NA
ATOM     18  H5  UNL     1       1.940  -4.834  11.454  1.00  0.00     0.206 HD
HETATM   19  N7  UNL     1       4.749  -5.784  12.504  1.00  0.00    -0.233 N 
HETATM   20  C5  UNL     1       4.656  -4.519  12.950  1.00  0.00     0.356 A 
ATOM     21  H7  UNL     1       5.524  -6.432  12.643  1.00  0.00     0.189 HD
HETATM   22  O2  UNL     1       5.550  -3.937  13.629  1.00  0.00    -0.244 OA
ENDBRANCH  14  15
ENDBRANCH  12  14
ENDBRANCH   4  10
BRANCH   1  23
HETATM   23  N1  UNL     1       7.878   1.389  10.861  1.00  0.00    -0.234 N 
ATOM     24  H12 UNL     1       8.226   0.431  10.833  1.00  0.00     0.174 HD
ATOM     25  H11 UNL     1       8.481   2.204  10.748  1.00  0.00     0.174 HD
ENDBRANCH   1  23
BRANCH   7  26
HETATM   26  N9  UNL     1       4.149   3.984  10.390  1.00  0.00    -0.383 N 
ATOM     27  H92 UNL     1       3.497   4.484  10.994  1.00  0.00     0.157 HD
ATOM     28  H91 UNL     1       4.343   4.357   9.460  1.00  0.00     0.157 HD
ENDBRANCH   7  26
TORSDOF 5
ENDMDL
