MODEL 1
REMARK VINA RESULT: -6.784280170      0.000      0.000
REMARK  9 active torsions:
REMARK  status: ('A' for Active; 'I' for Inactive)
REMARK    1  A    between atoms: C2_3  and  C3_4 
REMARK    2  A    between atoms: C8_11  and  O2_12 
REMARK    3  A    between atoms: O2_12  and  C9_13 
REMARK    4  A    between atoms: C10_16  and  C11_17 
REMARK    5  A    between atoms: C11_17  and  O3_18 
REMARK    6  A    between atoms: N3_24  and  C12_25 
REMARK    7  A    between atoms: N4_28  and  C15_29 
REMARK    8  A    between atoms: C16_30  and  O4_31 
REMARK    9  A    between atoms: C20_36  and  O5_37 
ROOT
HETATM    1  O1  UNL     1       3.107  31.039  57.417  1.00  0.00    -0.266 OA
HETATM    2  C1  UNL     1       4.040  30.485  56.773  1.00  0.00     0.276 A 
HETATM    3  C2  UNL     1       3.788  29.677  55.677  1.00  0.00     0.074 A 
HETATM    4  C10 UNL     1       4.792  29.064  54.961  1.00  0.00     0.067 A 
HETATM    5  N1  UNL     1       6.049  29.294  55.388  1.00  0.00    -0.287 N 
ATOM      6  H1  UNL     1       6.822  28.859  54.885  1.00  0.00     0.188 HD
HETATM    7  N2  UNL     1       6.323  30.063  56.433  1.00  0.00    -0.237 N 
ATOM      8  H2  UNL     1       7.293  30.206  56.717  1.00  0.00     0.208 HD
HETATM    9  N3  UNL     1       5.330  30.653  57.119  1.00  0.00    -0.237 N 
ENDROOT
BRANCH   9  10
HETATM   10  C12 UNL     1       5.699  31.480  58.250  1.00  0.00     0.116 C 
HETATM   11  C13 UNL     1       6.068  32.879  57.890  1.00  0.00     0.057 C 
HETATM   12  C14 UNL     1       7.193  33.438  58.769  1.00  0.00     0.275 C 
HETATM   13  N4  UNL     1       6.932  33.058  60.115  1.00  0.00     0.098 N 
HETATM   14  C21 UNL     1       7.106  31.629  60.261  1.00  0.00     0.275 C 
HETATM   15  C22 UNL     1       6.807  30.828  59.047  1.00  0.00     0.057 C 
BRANCH  13  16
HETATM   16  C15 UNL     1       7.784  33.678  61.106  1.00  0.00     0.279 C 
HETATM   17  C16 UNL     1       6.874  34.274  62.130  1.00  0.00     0.154 C 
HETATM   18  C17 UNL     1       7.515  35.286  63.043  1.00  0.00     0.034 C 
HETATM   19  C18 UNL     1       8.361  36.270  62.256  1.00  0.00     0.005 C 
HETATM   20  C19 UNL     1       9.440  35.450  61.606  1.00  0.00     0.034 C 
HETATM   21  C20 UNL     1       8.840  34.567  60.559  1.00  0.00     0.154 C 
BRANCH  17  22
HETATM   22  O4  UNL     1       5.735  34.824  61.495  1.00  0.00    -0.393 OA
ATOM     23  H4  UNL     1       5.307  35.439  62.079  1.00  0.00     0.210 HD
ENDBRANCH  17  22
BRANCH  21  24
HETATM   24  O5  UNL     1       9.906  33.734  60.133  1.00  0.00    -0.393 OA
ATOM     25  H5  UNL     1      10.662  34.294  60.001  1.00  0.00     0.210 HD
ENDBRANCH  21  24
ENDBRANCH  13  16
ENDBRANCH   9  10
BRANCH   3  26
HETATM   26  C3  UNL     1       2.434  29.452  55.247  1.00  0.00     0.037 A 
HETATM   27  C4  UNL     1       1.771  28.348  55.699  1.00  0.00     0.049 A 
HETATM   28 CL1  UNL     1       2.540  27.176  56.812  1.00  0.00    -0.083 Cl
HETATM   29  C5  UNL     1       0.470  28.082  55.319  1.00  0.00     0.048 A 
HETATM   30  C6  UNL     1      -0.158  28.959  54.466  1.00  0.00     0.038 A 
HETATM   31 CL2  UNL     1      -1.807  28.624  53.983  1.00  0.00    -0.084 Cl
HETATM   32  C7  UNL     1       0.533  30.089  54.008  1.00  0.00     0.061 A 
HETATM   33  C8  UNL     1       1.829  30.345  54.393  1.00  0.00     0.089 A 
BRANCH  33  34
HETATM   34  O2  UNL     1       2.525  31.480  53.934  1.00  0.00    -0.289 OA
BRANCH  34  35
HETATM   35  C9  UNL     1       2.453  32.764  54.437  1.00  0.00     0.505 C 
HETATM   36  F1  UNL     1       3.661  33.166  55.034  1.00  0.00    -0.184 F 
HETATM   37  F2  UNL     1       1.523  32.847  55.490  1.00  0.00    -0.184 F 
ENDBRANCH  34  35
ENDBRANCH  33  34
ENDBRANCH   3  26
BRANCH   4  38
HETATM   38  C11 UNL     1       4.569  28.187  53.778  1.00  0.00     0.223 C 
BRANCH  38  39
HETATM   39  O3  UNL     1       4.688  26.837  54.127  1.00  0.00    -0.395 OA
ATOM     40  H3  UNL     1       5.577  26.631  54.387  1.00  0.00     0.209 HD
ENDBRANCH  38  39
ENDBRANCH   4  38
TORSDOF 9
ENDMDL
MODEL 2
REMARK VINA RESULT: -6.643298299      3.308      9.043
REMARK  9 active torsions:
REMARK  status: ('A' for Active; 'I' for Inactive)
REMARK    1  A    between atoms: C2_3  and  C3_4 
REMARK    2  A    between atoms: C8_11  and  O2_12 
REMARK    3  A    between atoms: O2_12  and  C9_13 
REMARK    4  A    between atoms: C10_16  and  C11_17 
REMARK    5  A    between atoms: C11_17  and  O3_18 
REMARK    6  A    between atoms: N3_24  and  C12_25 
REMARK    7  A    between atoms: N4_28  and  C15_29 
REMARK    8  A    between atoms: C16_30  and  O4_31 
REMARK    9  A    between atoms: C20_36  and  O5_37 
ROOT
HETATM    1  O1  UNL     1       3.941  30.454  57.702  1.00  0.00    -0.266 OA
HETATM    2  C1  UNL     1       4.906  29.702  57.392  1.00  0.00     0.276 A 
HETATM    3  C2  UNL     1       6.112  29.750  58.070  1.00  0.00     0.074 A 
HETATM    4  C10 UNL     1       7.177  28.938  57.747  1.00  0.00     0.067 A 
HETATM    5  N1  UNL     1       6.981  28.085  56.723  1.00  0.00    -0.287 N 
ATOM      6  H1  UNL     1       7.745  27.465  56.451  1.00  0.00     0.188 HD
HETATM    7  N2  UNL     1       5.838  28.015  56.054  1.00  0.00    -0.237 N 
ATOM      8  H2  UNL     1       5.740  27.351  55.286  1.00  0.00     0.208 HD
HETATM    9  N3  UNL     1       4.810  28.815  56.384  1.00  0.00    -0.237 N 
ENDROOT
BRANCH   9  10
HETATM   10  C12 UNL     1       3.590  28.687  55.613  1.00  0.00     0.116 C 
HETATM   11  C13 UNL     1       2.538  27.859  56.268  1.00  0.00     0.057 C 
HETATM   12  C14 UNL     1       1.724  27.035  55.263  1.00  0.00     0.275 C 
HETATM   13  N4  UNL     1       1.433  27.865  54.144  1.00  0.00     0.098 N 
HETATM   14  C21 UNL     1       2.649  28.137  53.409  1.00  0.00     0.275 C 
HETATM   15  C22 UNL     1       3.889  28.165  54.226  1.00  0.00     0.057 C 
BRANCH  13  16
HETATM   16  C15 UNL     1       0.495  27.308  53.193  1.00  0.00     0.279 C 
HETATM   17  C16 UNL     1      -0.525  28.368  52.940  1.00  0.00     0.154 C 
HETATM   18  C17 UNL     1      -1.795  27.890  52.285  1.00  0.00     0.034 C 
HETATM   19  C18 UNL     1      -2.305  26.625  52.949  1.00  0.00     0.005 C 
HETATM   20  C19 UNL     1      -1.232  25.594  52.739  1.00  0.00     0.034 C 
HETATM   21  C20 UNL     1      -0.020  25.959  53.535  1.00  0.00     0.154 C 
BRANCH  17  22
HETATM   22  O4  UNL     1      -0.811  29.055  54.144  1.00  0.00    -0.393 OA
ATOM     23  H4  UNL     1      -1.151  28.446  54.788  1.00  0.00     0.210 HD
ENDBRANCH  17  22
BRANCH  21  24
HETATM   24  O5  UNL     1       0.969  25.022  53.140  1.00  0.00    -0.393 OA
ATOM     25  H5  UNL     1       1.363  24.681  53.934  1.00  0.00     0.210 HD
ENDBRANCH  21  24
ENDBRANCH  13  16
ENDBRANCH   9  10
BRANCH   3  26
HETATM   26  C3  UNL     1       6.288  30.673  59.159  1.00  0.00     0.037 A 
HETATM   27  C4  UNL     1       5.946  30.280  60.421  1.00  0.00     0.049 A 
HETATM   28 CL1  UNL     1       5.287  28.650  60.754  1.00  0.00    -0.083 Cl
HETATM   29  C5  UNL     1       6.094  31.124  61.504  1.00  0.00     0.048 A 
HETATM   30  C6  UNL     1       6.598  32.386  61.290  1.00  0.00     0.038 A 
HETATM   31 CL2  UNL     1       6.785  33.457  62.661  1.00  0.00    -0.084 Cl
HETATM   32  C7  UNL     1       6.945  32.778  59.990  1.00  0.00     0.061 A 
HETATM   33  C8  UNL     1       6.794  31.930  58.918  1.00  0.00     0.089 A 
BRANCH  33  34
HETATM   34  O2  UNL     1       7.143  32.321  57.611  1.00  0.00    -0.289 OA
BRANCH  34  35
HETATM   35  C9  UNL     1       6.658  33.404  56.906  1.00  0.00     0.505 C 
HETATM   36  F1  UNL     1       7.293  34.603  57.276  1.00  0.00    -0.184 F 
HETATM   37  F2  UNL     1       5.304  33.644  57.208  1.00  0.00    -0.184 F 
ENDBRANCH  34  35
ENDBRANCH  33  34
ENDBRANCH   3  26
BRANCH   4  38
HETATM   38  C11 UNL     1       8.491  28.955  58.446  1.00  0.00     0.223 C 
BRANCH  38  39
HETATM   39  O3  UNL     1       9.234  27.809  58.142  1.00  0.00    -0.395 OA
ATOM     40  H3  UNL     1      10.062  28.039  57.738  1.00  0.00     0.209 HD
ENDBRANCH  38  39
ENDBRANCH   4  38
TORSDOF 9
ENDMDL
MODEL 3
REMARK VINA RESULT: -6.456301176      2.270      3.463
REMARK  9 active torsions:
REMARK  status: ('A' for Active; 'I' for Inactive)
REMARK    1  A    between atoms: C2_3  and  C3_4 
REMARK    2  A    between atoms: C8_11  and  O2_12 
REMARK    3  A    between atoms: O2_12  and  C9_13 
REMARK    4  A    between atoms: C10_16  and  C11_17 
REMARK    5  A    between atoms: C11_17  and  O3_18 
REMARK    6  A    between atoms: N3_24  and  C12_25 
REMARK    7  A    between atoms: N4_28  and  C15_29 
REMARK    8  A    between atoms: C16_30  and  O4_31 
REMARK    9  A    between atoms: C20_36  and  O5_37 
ROOT
HETATM    1  O1  UNL     1       4.693  29.608  57.644  1.00  0.00    -0.266 OA
HETATM    2  C1  UNL     1       4.026  30.412  56.935  1.00  0.00     0.276 A 
HETATM    3  C2  UNL     1       3.030  29.972  56.079  1.00  0.00     0.074 A 
HETATM    4  C10 UNL     1       2.291  30.833  55.298  1.00  0.00     0.067 A 
HETATM    5  N1  UNL     1       2.592  32.141  55.411  1.00  0.00    -0.287 N 
ATOM      6  H1  UNL     1       2.069  32.812  54.849  1.00  0.00     0.188 HD
HETATM    7  N2  UNL     1       3.540  32.593  56.221  1.00  0.00    -0.237 N 
ATOM      8  H2  UNL     1       3.730  33.594  56.270  1.00  0.00     0.208 HD
HETATM    9  N3  UNL     1       4.250  31.738  56.976  1.00  0.00    -0.237 N 
ENDROOT
BRANCH   9  10
HETATM   10  C12 UNL     1       5.270  32.298  57.840  1.00  0.00     0.116 C 
HETATM   11  C13 UNL     1       4.866  32.410  59.270  1.00  0.00     0.057 C 
HETATM   12  C14 UNL     1       5.440  33.658  59.950  1.00  0.00     0.275 C 
HETATM   13  N4  UNL     1       6.797  33.797  59.545  1.00  0.00     0.098 N 
HETATM   14  C21 UNL     1       6.853  34.154  58.144  1.00  0.00     0.275 C 
HETATM   15  C22 UNL     1       5.736  33.637  57.314  1.00  0.00     0.057 C 
BRANCH  13  16
HETATM   16  C15 UNL     1       7.551  34.807  60.256  1.00  0.00     0.279 C 
HETATM   17  C16 UNL     1       8.988  34.570  59.925  1.00  0.00     0.154 C 
HETATM   18  C17 UNL     1       9.975  35.250  60.837  1.00  0.00     0.034 C 
HETATM   19  C18 UNL     1       9.591  35.057  62.292  1.00  0.00     0.005 C 
HETATM   20  C19 UNL     1       8.250  35.717  62.450  1.00  0.00     0.034 C 
HETATM   21  C20 UNL     1       7.216  34.944  61.696  1.00  0.00     0.154 C 
BRANCH  17  22
HETATM   22  O4  UNL     1       9.241  33.179  59.860  1.00  0.00    -0.393 OA
ATOM     23  H4  UNL     1       9.414  32.843  60.731  1.00  0.00     0.210 HD
ENDBRANCH  17  22
BRANCH  21  24
HETATM   24  O5  UNL     1       6.041  35.734  61.777  1.00  0.00    -0.393 OA
ATOM     25  H5  UNL     1       6.317  36.642  61.815  1.00  0.00     0.210 HD
ENDBRANCH  21  24
ENDBRANCH  13  16
ENDBRANCH   9  10
BRANCH   3  26
HETATM   26  C3  UNL     1       2.733  28.568  55.983  1.00  0.00     0.037 A 
HETATM   27  C4  UNL     1       1.871  28.011  56.883  1.00  0.00     0.049 A 
HETATM   28 CL1  UNL     1       1.102  28.981  58.176  1.00  0.00    -0.083 Cl
HETATM   29  C5  UNL     1       1.550  26.669  56.838  1.00  0.00     0.048 A 
HETATM   30  C6  UNL     1       2.119  25.889  55.859  1.00  0.00     0.038 A 
HETATM   31 CL2  UNL     1       1.714  24.187  55.801  1.00  0.00    -0.084 Cl
HETATM   32  C7  UNL     1       3.004  26.472  54.941  1.00  0.00     0.061 A 
HETATM   33  C8  UNL     1       3.317  27.810  54.994  1.00  0.00     0.089 A 
BRANCH  33  34
HETATM   34  O2  UNL     1       4.204  28.399  54.073  1.00  0.00    -0.289 OA
BRANCH  34  35
HETATM   35  C9  UNL     1       5.577  28.262  54.031  1.00  0.00     0.505 C 
HETATM   36  F1  UNL     1       5.968  26.990  53.576  1.00  0.00    -0.184 F 
HETATM   37  F2  UNL     1       6.136  28.335  55.321  1.00  0.00    -0.184 F 
ENDBRANCH  34  35
ENDBRANCH  33  34
ENDBRANCH   3  26
BRANCH   4  38
HETATM   38  C11 UNL     1       1.213  30.407  54.364  1.00  0.00     0.223 C 
BRANCH  38  39
HETATM   39  O3  UNL     1       1.718  30.204  53.075  1.00  0.00    -0.395 OA
ATOM     40  H3  UNL     1       1.101  30.503  52.418  1.00  0.00     0.209 HD
ENDBRANCH  38  39
ENDBRANCH   4  38
TORSDOF 9
ENDMDL
MODEL 4
REMARK VINA RESULT: -6.436951583      4.426      9.996
REMARK  9 active torsions:
REMARK  status: ('A' for Active; 'I' for Inactive)
REMARK    1  A    between atoms: C2_3  and  C3_4 
REMARK    2  A    between atoms: C8_11  and  O2_12 
REMARK    3  A    between atoms: O2_12  and  C9_13 
REMARK    4  A    between atoms: C10_16  and  C11_17 
REMARK    5  A    between atoms: C11_17  and  O3_18 
REMARK    6  A    between atoms: N3_24  and  C12_25 
REMARK    7  A    between atoms: N4_28  and  C15_29 
REMARK    8  A    between atoms: C16_30  and  O4_31 
REMARK    9  A    between atoms: C20_36  and  O5_37 
ROOT
HETATM    1  O1  UNL     1       3.297  28.887  57.090  1.00  0.00    -0.266 OA
HETATM    2  C1  UNL     1       4.169  28.459  56.285  1.00  0.00     0.276 A 
HETATM    3  C2  UNL     1       5.500  28.826  56.392  1.00  0.00     0.074 A 
HETATM    4  C10 UNL     1       6.467  28.370  55.523  1.00  0.00     0.067 A 
HETATM    5  N1  UNL     1       6.045  27.538  54.552  1.00  0.00    -0.287 N 
ATOM      6  H1  UNL     1       6.729  27.176  53.887  1.00  0.00     0.188 HD
HETATM    7  N2  UNL     1       4.778  27.168  54.423  1.00  0.00    -0.237 N 
ATOM      8  H2  UNL     1       4.508  26.535  53.669  1.00  0.00     0.208 HD
HETATM    9  N3  UNL     1       3.849  27.622  55.280  1.00  0.00    -0.237 N 
ENDROOT
BRANCH   9  10
HETATM   10  C12 UNL     1       2.483  27.179  55.083  1.00  0.00     0.116 C 
HETATM   11  C13 UNL     1       2.220  25.787  55.547  1.00  0.00     0.057 C 
HETATM   12  C14 UNL     1       1.219  25.046  54.653  1.00  0.00     0.275 C 
HETATM   13  N4  UNL     1       0.158  25.941  54.341  1.00  0.00     0.098 N 
HETATM   14  C21 UNL     1       0.644  26.984  53.463  1.00  0.00     0.275 C 
HETATM   15  C22 UNL     1       2.075  27.341  53.636  1.00  0.00     0.057 C 
BRANCH  13  16
HETATM   16  C15 UNL     1      -0.978  25.341  53.675  1.00  0.00     0.279 C 
HETATM   17  C16 UNL     1      -2.195  25.891  54.343  1.00  0.00     0.154 C 
HETATM   18  C17 UNL     1      -3.469  25.132  54.077  1.00  0.00     0.034 C 
HETATM   19  C18 UNL     1      -3.251  23.638  54.225  1.00  0.00     0.005 C 
HETATM   20  C19 UNL     1      -2.238  23.269  53.177  1.00  0.00     0.034 C 
HETATM   21  C20 UNL     1      -0.912  23.866  53.527  1.00  0.00     0.154 C 
BRANCH  17  22
HETATM   22  O4  UNL     1      -1.965  26.011  55.734  1.00  0.00    -0.393 OA
ATOM     23  H4  UNL     1      -2.283  26.851  56.042  1.00  0.00     0.210 HD
ENDBRANCH  17  22
BRANCH  21  24
HETATM   24  O5  UNL     1      -0.086  23.596  52.406  1.00  0.00    -0.393 OA
ATOM     25  H5  UNL     1      -0.481  22.871  51.936  1.00  0.00     0.210 HD
ENDBRANCH  21  24
ENDBRANCH  13  16
ENDBRANCH   9  10
BRANCH   3  26
HETATM   26  C3  UNL     1       5.918  29.716  57.442  1.00  0.00     0.037 A 
HETATM   27  C4  UNL     1       5.669  31.052  57.314  1.00  0.00     0.049 A 
HETATM   28 CL1  UNL     1       4.839  31.724  55.878  1.00  0.00    -0.083 Cl
HETATM   29  C5  UNL     1       6.048  31.952  58.291  1.00  0.00     0.048 A 
HETATM   30  C6  UNL     1       6.688  31.476  59.411  1.00  0.00     0.038 A 
HETATM   31 CL2  UNL     1       7.169  32.615  60.650  1.00  0.00    -0.084 Cl
HETATM   32  C7  UNL     1       6.938  30.102  59.531  1.00  0.00     0.061 A 
HETATM   33  C8  UNL     1       6.557  29.214  58.552  1.00  0.00     0.089 A 
BRANCH  33  34
HETATM   34  O2  UNL     1       6.806  27.833  58.670  1.00  0.00    -0.289 OA
BRANCH  34  35
HETATM   35  C9  UNL     1       8.028  27.217  58.852  1.00  0.00     0.505 C 
HETATM   36  F1  UNL     1       9.094  28.133  58.802  1.00  0.00    -0.184 F 
HETATM   37  F2  UNL     1       8.312  26.326  57.800  1.00  0.00    -0.184 F 
ENDBRANCH  34  35
ENDBRANCH  33  34
ENDBRANCH   3  26
BRANCH   4  38
HETATM   38  C11 UNL     1       7.908  28.737  55.599  1.00  0.00     0.223 C 
BRANCH  38  39
HETATM   39  O3  UNL     1       8.499  28.707  54.332  1.00  0.00    -0.395 OA
ATOM     40  H3  UNL     1       7.839  28.673  53.650  1.00  0.00     0.209 HD
ENDBRANCH  38  39
ENDBRANCH   4  38
TORSDOF 9
ENDMDL
MODEL 5
REMARK VINA RESULT: -6.423963201      3.742      9.567
REMARK  9 active torsions:
REMARK  status: ('A' for Active; 'I' for Inactive)
REMARK    1  A    between atoms: C2_3  and  C3_4 
REMARK    2  A    between atoms: C8_11  and  O2_12 
REMARK    3  A    between atoms: O2_12  and  C9_13 
REMARK    4  A    between atoms: C10_16  and  C11_17 
REMARK    5  A    between atoms: C11_17  and  O3_18 
REMARK    6  A    between atoms: N3_24  and  C12_25 
REMARK    7  A    between atoms: N4_28  and  C15_29 
REMARK    8  A    between atoms: C16_30  and  O4_31 
REMARK    9  A    between atoms: C20_36  and  O5_37 
ROOT
HETATM    1  O1  UNL     1       2.872  29.081  57.131  1.00  0.00    -0.266 OA
HETATM    2  C1  UNL     1       3.851  28.654  56.459  1.00  0.00     0.276 A 
HETATM    3  C2  UNL     1       5.154  29.004  56.771  1.00  0.00     0.074 A 
HETATM    4  C10 UNL     1       6.236  28.547  56.051  1.00  0.00     0.067 A 
HETATM    5  N1  UNL     1       5.957  27.733  55.015  1.00  0.00    -0.287 N 
ATOM      6  H1  UNL     1       6.730  27.373  54.456  1.00  0.00     0.188 HD
HETATM    7  N2  UNL     1       4.721  27.380  54.691  1.00  0.00    -0.237 N 
ATOM      8  H2  UNL     1       4.561  26.761  53.896  1.00  0.00     0.208 HD
HETATM    9  N3  UNL     1       3.677  27.834  55.406  1.00  0.00    -0.237 N 
ENDROOT
BRANCH   9  10
HETATM   10  C12 UNL     1       2.353  27.410  54.999  1.00  0.00     0.116 C 
HETATM   11  C13 UNL     1       2.017  26.009  55.379  1.00  0.00     0.057 C 
HETATM   12  C14 UNL     1       1.153  25.302  54.328  1.00  0.00     0.275 C 
HETATM   13  N4  UNL     1       0.155  26.216  53.890  1.00  0.00     0.098 N 
HETATM   14  C21 UNL     1       0.769  27.279  53.123  1.00  0.00     0.275 C 
HETATM   15  C22 UNL     1       2.161  27.617  53.513  1.00  0.00     0.057 C 
BRANCH  13  16
HETATM   16  C15 UNL     1      -0.876  25.646  53.049  1.00  0.00     0.279 C 
HETATM   17  C16 UNL     1      -2.106  26.461  53.280  1.00  0.00     0.154 C 
HETATM   18  C17 UNL     1      -3.389  25.830  52.807  1.00  0.00     0.034 C 
HETATM   19  C18 UNL     1      -3.468  24.376  53.235  1.00  0.00     0.005 C 
HETATM   20  C19 UNL     1      -2.313  23.690  52.561  1.00  0.00     0.034 C 
HETATM   21  C20 UNL     1      -1.027  24.173  53.152  1.00  0.00     0.154 C 
BRANCH  17  22
HETATM   22  O4  UNL     1      -2.196  26.815  54.647  1.00  0.00    -0.393 OA
ATOM     23  H4  UNL     1      -1.495  27.416  54.871  1.00  0.00     0.210 HD
ENDBRANCH  17  22
BRANCH  21  24
HETATM   24  O5  UNL     1      -0.016  23.593  52.343  1.00  0.00    -0.393 OA
ATOM     25  H5  UNL     1      -0.196  23.848  51.446  1.00  0.00     0.210 HD
ENDBRANCH  21  24
ENDBRANCH  13  16
ENDBRANCH   9  10
BRANCH   3  26
HETATM   26  C3  UNL     1       5.418  29.874  57.885  1.00  0.00     0.037 A 
HETATM   27  C4  UNL     1       5.665  29.325  59.110  1.00  0.00     0.049 A 
HETATM   28 CL1  UNL     1       5.669  27.553  59.366  1.00  0.00    -0.083 Cl
HETATM   29  C5  UNL     1       5.923  30.113  60.214  1.00  0.00     0.048 A 
HETATM   30  C6  UNL     1       5.930  31.480  60.061  1.00  0.00     0.038 A 
HETATM   31 CL2  UNL     1       6.258  32.480  61.459  1.00  0.00    -0.084 Cl
HETATM   32  C7  UNL     1       5.674  32.032  58.798  1.00  0.00     0.061 A 
HETATM   33  C8  UNL     1       5.418  31.238  57.704  1.00  0.00     0.089 A 
BRANCH  33  34
HETATM   34  O2  UNL     1       5.162  31.790  56.434  1.00  0.00    -0.289 OA
BRANCH  34  35
HETATM   35  C9  UNL     1       4.000  32.403  56.008  1.00  0.00     0.505 C 
HETATM   36  F1  UNL     1       2.951  32.247  56.932  1.00  0.00    -0.184 F 
HETATM   37  F2  UNL     1       3.501  31.794  54.841  1.00  0.00    -0.184 F 
ENDBRANCH  34  35
ENDBRANCH  33  34
ENDBRANCH   3  26
BRANCH   4  38
HETATM   38  C11 UNL     1       7.653  28.897  56.348  1.00  0.00     0.223 C 
BRANCH  38  39
HETATM   39  O3  UNL     1       8.446  28.788  55.201  1.00  0.00    -0.395 OA
ATOM     40  H3  UNL     1       9.327  29.100  55.367  1.00  0.00     0.209 HD
ENDBRANCH  38  39
ENDBRANCH   4  38
TORSDOF 9
ENDMDL
