MODEL 1
REMARK VINA RESULT: -9.856745256      0.000      0.000
REMARK  7 active torsions:
REMARK  status: ('A' for Active; 'I' for Inactive)
REMARK    1  A    between atoms: C2_2  and  C4_4 
REMARK    2  A    between atoms: N1_6  and  C6_7 
REMARK    3  A    between atoms: N4_15  and  C10_16 
REMARK    4  A    between atoms: C12_20  and  C13_21 
REMARK       I    between atoms: C13_21  and  N6_23 
REMARK    5  A    between atoms: N6_23  and  C14_25 
REMARK    6  A    between atoms: C14_25  and  C15_26 
REMARK    7  A    between atoms: N8_38  and  O3_39 
ROOT
HETATM    1  C6  UNL     1       6.697  27.911  54.393  1.00  0.00     0.690 A 
HETATM    2  N2  UNL     1       5.797  26.986  54.015  1.00  0.00    -0.201 N 
ATOM      3  H2  UNL     1       6.136  26.128  53.582  1.00  0.00     0.183 HD
HETATM    4  C7  UNL     1       4.472  27.139  54.180  1.00  0.00     0.120 A 
HETATM    5  C8  UNL     1       3.974  28.306  54.772  1.00  0.00     0.044 A 
HETATM    6  C9  UNL     1       4.900  29.241  55.153  1.00  0.00     0.150 A 
HETATM    7  N3  UNL     1       6.227  29.034  54.961  1.00  0.00    -0.175 N 
ATOM      8  H3  UNL     1       6.888  29.753  55.257  1.00  0.00     0.186 HD
HETATM    9  N4  UNL     1       4.241  30.385  55.732  1.00  0.00    -0.159 N 
HETATM   10  C16 UNL     1       2.841  30.245  55.441  1.00  0.00     0.149 C 
HETATM   11  C17 UNL     1       1.985  30.626  56.601  1.00  0.00     0.037 C 
HETATM   12  C18 UNL     1       2.629  28.798  55.110  1.00  0.00     0.166 C 
HETATM   13 CL2  UNL     1       1.899  27.862  56.433  1.00  0.00    -0.094 Cl
HETATM   14 CL3  UNL     1       1.546  28.705  53.678  1.00  0.00    -0.094 Cl
ENDROOT
BRANCH   9  15
HETATM   15  C10 UNL     1       4.891  31.424  56.444  1.00  0.00     0.687 A 
HETATM   16  N5  UNL     1       4.915  32.742  56.075  1.00  0.00    -0.199 N 
HETATM   17  C11 UNL     1       5.597  33.455  56.955  1.00  0.00     0.142 A 
ATOM     18  H5  UNL     1       4.470  33.120  55.239  1.00  0.00     0.183 HD
HETATM   19  C12 UNL     1       6.041  32.605  57.933  1.00  0.00     0.132 A 
HETATM   20  N7  UNL     1       5.591  31.378  57.588  1.00  0.00    -0.184 N 
ATOM     21  H7  UNL     1       5.760  30.529  58.126  1.00  0.00     0.184 HD
BRANCH  19  22
HETATM   22  C13 UNL     1       6.830  32.989  59.085  1.00  0.00     0.270 C 
HETATM   23  O1  UNL     1       7.236  32.082  59.855  1.00  0.00    -0.266 OA
HETATM   24  N6  UNL     1       7.142  34.346  59.349  1.00  0.00    -0.352 N 
ATOM     25  H6  UNL     1       6.812  35.080  58.723  1.00  0.00     0.162 HD
BRANCH  24  26
HETATM   26  C14 UNL     1       7.925  34.679  60.501  1.00  0.00     0.176 C 
BRANCH  26  27
HETATM   27  C15 UNL     1       9.388  34.919  60.119  1.00  0.00     0.283 C 
HETATM   28  F1  UNL     1      10.091  33.725  60.136  1.00  0.00    -0.231 F 
HETATM   29 CL1  UNL     1      10.059  36.080  61.279  1.00  0.00    -0.088 Cl
ENDBRANCH  26  27
ENDBRANCH  24  26
ENDBRANCH  19  22
ENDBRANCH   9  15
BRANCH   1  30
HETATM   30  N1  UNL     1       8.102  27.682  54.185  1.00  0.00    -0.129 N 
HETATM   31  C5  UNL     1       8.924  28.364  53.208  1.00  0.00     0.181 C 
HETATM   32  C4  UNL     1      10.324  27.989  53.555  1.00  0.00     0.142 C 
HETATM   33  N8  UNL     1      10.199  26.724  54.201  1.00  0.00    -0.203 N 
HETATM   34  C19 UNL     1       8.936  26.757  54.885  1.00  0.00     0.363 C 
HETATM   35  O2  UNL     1       8.599  26.103  55.912  1.00  0.00    -0.244 OA
BRANCH  32  36
HETATM   36  C2  UNL     1      11.139  27.943  52.285  1.00  0.00     0.004 C 
HETATM   37  C1  UNL     1      10.625  28.848  51.209  1.00  0.00     0.012 C 
HETATM   38  C3  UNL     1      12.595  28.187  52.512  1.00  0.00     0.012 C 
ENDBRANCH  32  36
BRANCH  33  39
HETATM   39  O3  UNL     1      11.003  25.645  54.249  1.00  0.00    -0.283 OA
ATOM     40  H3  UNL     1      11.838  25.485  54.673  1.00  0.00     0.245 HD
ENDBRANCH  33  39
ENDBRANCH   1  30
TORSDOF 7
ENDMDL
MODEL 2
REMARK VINA RESULT: -9.626840854      3.193      7.680
REMARK  7 active torsions:
REMARK  status: ('A' for Active; 'I' for Inactive)
REMARK    1  A    between atoms: C2_2  and  C4_4 
REMARK    2  A    between atoms: N1_6  and  C6_7 
REMARK    3  A    between atoms: N4_15  and  C10_16 
REMARK    4  A    between atoms: C12_20  and  C13_21 
REMARK       I    between atoms: C13_21  and  N6_23 
REMARK    5  A    between atoms: N6_23  and  C14_25 
REMARK    6  A    between atoms: C14_25  and  C15_26 
REMARK    7  A    between atoms: N8_38  and  O3_39 
ROOT
HETATM    1  C6  UNL     1       4.846  31.953  57.616  1.00  0.00     0.690 A 
HETATM    2  N2  UNL     1       3.572  32.187  57.253  1.00  0.00    -0.201 N 
ATOM      3  H2  UNL     1       3.124  33.043  57.578  1.00  0.00     0.183 HD
HETATM    4  C7  UNL     1       2.860  31.345  56.483  1.00  0.00     0.120 A 
HETATM    5  C8  UNL     1       3.447  30.161  56.020  1.00  0.00     0.044 A 
HETATM    6  C9  UNL     1       4.744  29.933  56.397  1.00  0.00     0.150 A 
HETATM    7  N3  UNL     1       5.414  30.818  57.177  1.00  0.00    -0.175 N 
ATOM      8  H3  UNL     1       6.380  30.615  57.438  1.00  0.00     0.186 HD
HETATM    9  N4  UNL     1       5.205  28.678  55.858  1.00  0.00    -0.159 N 
HETATM   10  C16 UNL     1       4.044  27.994  55.358  1.00  0.00     0.149 C 
HETATM   11  C17 UNL     1       4.307  27.319  54.055  1.00  0.00     0.037 C 
HETATM   12  C18 UNL     1       2.989  29.045  55.178  1.00  0.00     0.166 C 
HETATM   13 CL2  UNL     1       2.760  29.545  53.488  1.00  0.00    -0.094 Cl
HETATM   14 CL3  UNL     1       1.434  28.386  55.796  1.00  0.00    -0.094 Cl
ENDROOT
BRANCH   9  15
HETATM   15  C10 UNL     1       6.554  28.244  55.845  1.00  0.00     0.687 A 
HETATM   16  N5  UNL     1       7.266  27.842  56.942  1.00  0.00    -0.199 N 
HETATM   17  C11 UNL     1       8.492  27.491  56.593  1.00  0.00     0.142 A 
ATOM     18  H5  UNL     1       6.903  27.816  57.895  1.00  0.00     0.183 HD
HETATM   19  C12 UNL     1       8.609  27.660  55.238  1.00  0.00     0.132 A 
HETATM   20  N7  UNL     1       7.409  28.119  54.819  1.00  0.00    -0.184 N 
ATOM     21  H7  UNL     1       7.182  28.340  53.850  1.00  0.00     0.184 HD
BRANCH  19  22
HETATM   22  C13 UNL     1       9.798  27.389  54.458  1.00  0.00     0.270 C 
HETATM   23  O1  UNL     1      10.734  26.751  55.004  1.00  0.00    -0.266 OA
HETATM   24  N6  UNL     1       9.917  27.824  53.114  1.00  0.00    -0.352 N 
ATOM     25  H6  UNL     1       9.157  28.341  52.673  1.00  0.00     0.162 HD
BRANCH  24  26
HETATM   26  C14 UNL     1      11.112  27.533  52.381  1.00  0.00     0.176 C 
BRANCH  26  27
HETATM   27  C15 UNL     1      11.737  28.814  51.821  1.00  0.00     0.283 C 
HETATM   28  F1  UNL     1      11.403  28.967  50.485  1.00  0.00    -0.231 F 
HETATM   29 CL1  UNL     1      13.492  28.692  52.039  1.00  0.00    -0.088 Cl
ENDBRANCH  26  27
ENDBRANCH  24  26
ENDBRANCH  19  22
ENDBRANCH   9  15
BRANCH   1  30
HETATM   30  N1  UNL     1       5.547  32.897  58.444  1.00  0.00    -0.129 N 
HETATM   31  C5  UNL     1       6.986  32.971  58.594  1.00  0.00     0.181 C 
HETATM   32  C4  UNL     1       7.231  34.249  59.320  1.00  0.00     0.142 C 
HETATM   33  N8  UNL     1       6.032  34.469  60.060  1.00  0.00    -0.203 N 
HETATM   34  C19 UNL     1       4.973  33.919  59.260  1.00  0.00     0.363 C 
HETATM   35  O2  UNL     1       3.755  34.256  59.259  1.00  0.00    -0.244 OA
BRANCH  32  36
HETATM   36  C2  UNL     1       8.456  34.083  60.186  1.00  0.00     0.004 C 
HETATM   37  C1  UNL     1       9.193  32.802  59.944  1.00  0.00     0.012 C 
HETATM   38  C3  UNL     1       9.397  35.240  60.103  1.00  0.00     0.012 C 
ENDBRANCH  32  36
BRANCH  33  39
HETATM   39  O3  UNL     1       5.794  35.048  61.252  1.00  0.00    -0.283 OA
ATOM     40  H3  UNL     1       5.497  34.702  62.085  1.00  0.00     0.245 HD
ENDBRANCH  33  39
ENDBRANCH   1  30
TORSDOF 7
ENDMDL
MODEL 3
REMARK VINA RESULT: -9.476615366      0.926      1.191
REMARK  7 active torsions:
REMARK  status: ('A' for Active; 'I' for Inactive)
REMARK    1  A    between atoms: C2_2  and  C4_4 
REMARK    2  A    between atoms: N1_6  and  C6_7 
REMARK    3  A    between atoms: N4_15  and  C10_16 
REMARK    4  A    between atoms: C12_20  and  C13_21 
REMARK       I    between atoms: C13_21  and  N6_23 
REMARK    5  A    between atoms: N6_23  and  C14_25 
REMARK    6  A    between atoms: C14_25  and  C15_26 
REMARK    7  A    between atoms: N8_38  and  O3_39 
ROOT
HETATM    1  C6  UNL     1       6.774  27.806  54.556  1.00  0.00     0.690 A 
HETATM    2  N2  UNL     1       5.846  27.099  53.888  1.00  0.00    -0.201 N 
ATOM      3  H2  UNL     1       6.159  26.419  53.196  1.00  0.00     0.183 HD
HETATM    4  C7  UNL     1       4.524  27.245  54.087  1.00  0.00     0.120 A 
HETATM    5  C8  UNL     1       4.061  28.171  55.031  1.00  0.00     0.044 A 
HETATM    6  C9  UNL     1       5.015  28.885  55.706  1.00  0.00     0.150 A 
HETATM    7  N3  UNL     1       6.336  28.696  55.463  1.00  0.00    -0.175 N 
ATOM      8  H3  UNL     1       7.019  29.248  55.984  1.00  0.00     0.186 HD
HETATM    9  N4  UNL     1       4.390  29.800  56.628  1.00  0.00    -0.159 N 
HETATM   10  C16 UNL     1       2.991  29.825  56.299  1.00  0.00     0.149 C 
HETATM   11  C17 UNL     1       2.128  29.836  57.515  1.00  0.00     0.037 C 
HETATM   12  C18 UNL     1       2.730  28.580  55.506  1.00  0.00     0.166 C 
HETATM   13 CL2  UNL     1       1.938  27.290  56.439  1.00  0.00    -0.094 Cl
HETATM   14 CL3  UNL     1       1.672  29.013  54.117  1.00  0.00    -0.094 Cl
ENDROOT
BRANCH   9  15
HETATM   15  C10 UNL     1       5.065  30.515  57.648  1.00  0.00     0.687 A 
HETATM   16  N5  UNL     1       5.707  29.952  58.718  1.00  0.00    -0.199 N 
HETATM   17  C11 UNL     1       6.242  30.890  59.481  1.00  0.00     0.142 A 
ATOM     18  H5  UNL     1       5.765  28.950  58.901  1.00  0.00     0.183 HD
HETATM   19  C12 UNL     1       5.956  32.106  58.917  1.00  0.00     0.132 A 
HETATM   20  N7  UNL     1       5.240  31.836  57.803  1.00  0.00    -0.184 N 
ATOM     21  H7  UNL     1       4.878  32.544  57.164  1.00  0.00     0.184 HD
BRANCH  19  22
HETATM   22  C13 UNL     1       6.362  33.391  59.444  1.00  0.00     0.270 C 
HETATM   23  O1  UNL     1       5.485  34.284  59.571  1.00  0.00    -0.266 OA
HETATM   24  N6  UNL     1       7.706  33.651  59.810  1.00  0.00    -0.352 N 
ATOM     25  H6  UNL     1       8.416  32.926  59.707  1.00  0.00     0.162 HD
BRANCH  24  26
HETATM   26  C14 UNL     1       8.061  34.939  60.327  1.00  0.00     0.176 C 
BRANCH  26  27
HETATM   27  C15 UNL     1       9.569  35.180  60.208  1.00  0.00     0.283 C 
HETATM   28  F1  UNL     1      10.253  33.976  60.254  1.00  0.00    -0.231 F 
HETATM   29 CL1  UNL     1      10.045  36.245  61.543  1.00  0.00    -0.088 Cl
ENDBRANCH  26  27
ENDBRANCH  24  26
ENDBRANCH  19  22
ENDBRANCH   9  15
BRANCH   1  30
HETATM   30  N1  UNL     1       8.172  27.599  54.292  1.00  0.00    -0.129 N 
HETATM   31  C5  UNL     1       8.950  28.313  53.301  1.00  0.00     0.181 C 
HETATM   32  C4  UNL     1      10.365  27.946  53.588  1.00  0.00     0.142 C 
HETATM   33  N8  UNL     1      10.279  26.666  54.209  1.00  0.00    -0.203 N 
HETATM   34  C19 UNL     1       9.041  26.669  54.939  1.00  0.00     0.363 C 
HETATM   35  O2  UNL     1       8.750  25.988  55.963  1.00  0.00    -0.244 OA
BRANCH  32  36
HETATM   36  C2  UNL     1      11.133  27.939  52.288  1.00  0.00     0.004 C 
HETATM   37  C1  UNL     1      10.557  28.846  51.245  1.00  0.00     0.012 C 
HETATM   38  C3  UNL     1      12.591  28.218  52.464  1.00  0.00     0.012 C 
ENDBRANCH  32  36
BRANCH  33  39
HETATM   39  O3  UNL     1      11.096  25.596  54.203  1.00  0.00    -0.283 OA
ATOM     40  H3  UNL     1      11.907  25.406  54.659  1.00  0.00     0.245 HD
ENDBRANCH  33  39
ENDBRANCH   1  30
TORSDOF 7
ENDMDL
MODEL 4
REMARK VINA RESULT: -9.387258884      1.400      1.458
REMARK  7 active torsions:
REMARK  status: ('A' for Active; 'I' for Inactive)
REMARK    1  A    between atoms: C2_2  and  C4_4 
REMARK    2  A    between atoms: N1_6  and  C6_7 
REMARK    3  A    between atoms: N4_15  and  C10_16 
REMARK    4  A    between atoms: C12_20  and  C13_21 
REMARK       I    between atoms: C13_21  and  N6_23 
REMARK    5  A    between atoms: N6_23  and  C14_25 
REMARK    6  A    between atoms: C14_25  and  C15_26 
REMARK    7  A    between atoms: N8_38  and  O3_39 
ROOT
HETATM    1  C6  UNL     1       6.254  27.907  54.191  1.00  0.00     0.690 A 
HETATM    2  N2  UNL     1       5.450  26.852  53.974  1.00  0.00    -0.201 N 
ATOM      3  H2  UNL     1       5.874  25.967  53.698  1.00  0.00     0.183 HD
HETATM    4  C7  UNL     1       4.112  26.908  54.102  1.00  0.00     0.120 A 
HETATM    5  C8  UNL     1       3.499  28.108  54.480  1.00  0.00     0.044 A 
HETATM    6  C9  UNL     1       4.328  29.177  54.698  1.00  0.00     0.150 A 
HETATM    7  N3  UNL     1       5.672  29.063  54.553  1.00  0.00    -0.175 N 
ATOM      8  H3  UNL     1       6.259  29.880  54.724  1.00  0.00     0.186 HD
HETATM    9  N4  UNL     1       3.556  30.337  55.066  1.00  0.00    -0.159 N 
HETATM   10  C16 UNL     1       2.181  30.020  54.795  1.00  0.00     0.149 C 
HETATM   11  C17 UNL     1       1.269  30.514  55.866  1.00  0.00     0.037 C 
HETATM   12  C18 UNL     1       2.108  28.524  54.719  1.00  0.00     0.166 C 
HETATM   13 CL2  UNL     1       1.436  27.766  56.180  1.00  0.00    -0.094 Cl
HETATM   14 CL3  UNL     1       1.069  28.086  53.318  1.00  0.00    -0.094 Cl
ENDROOT
BRANCH   9  15
HETATM   15  C10 UNL     1       4.094  31.539  55.591  1.00  0.00     0.687 A 
HETATM   16  N5  UNL     1       3.567  32.788  55.407  1.00  0.00    -0.199 N 
HETATM   17  C11 UNL     1       4.299  33.695  56.032  1.00  0.00     0.142 A 
ATOM     18  H5  UNL     1       2.728  32.992  54.864  1.00  0.00     0.183 HD
HETATM   19  C12 UNL     1       5.338  33.046  56.648  1.00  0.00     0.132 A 
HETATM   20  N7  UNL     1       5.178  31.735  56.357  1.00  0.00    -0.184 N 
ATOM     21  H7  UNL     1       5.799  30.993  56.677  1.00  0.00     0.184 HD
BRANCH  19  22
HETATM   22  C13 UNL     1       6.372  33.678  57.439  1.00  0.00     0.270 C 
HETATM   23  O1  UNL     1       7.158  34.472  56.863  1.00  0.00    -0.266 OA
HETATM   24  N6  UNL     1       6.506  33.418  58.826  1.00  0.00    -0.352 N 
ATOM     25  H6  UNL     1       5.867  32.774  59.292  1.00  0.00     0.162 HD
BRANCH  24  26
HETATM   26  C14 UNL     1       7.544  34.066  59.569  1.00  0.00     0.176 C 
BRANCH  26  27
HETATM   27  C15 UNL     1       8.497  33.040  60.189  1.00  0.00     0.283 C 
HETATM   28  F1  UNL     1       9.810  33.460  60.052  1.00  0.00    -0.231 F 
HETATM   29 CL1  UNL     1       8.224  31.493  59.367  1.00  0.00    -0.088 Cl
ENDBRANCH  26  27
ENDBRANCH  24  26
ENDBRANCH  19  22
ENDBRANCH   9  15
BRANCH   1  30
HETATM   30  N1  UNL     1       7.678  27.777  54.034  1.00  0.00    -0.129 N 
HETATM   31  C5  UNL     1       8.471  28.435  53.016  1.00  0.00     0.181 C 
HETATM   32  C4  UNL     1       9.885  28.208  53.426  1.00  0.00     0.142 C 
HETATM   33  N8  UNL     1       9.843  27.000  54.182  1.00  0.00    -0.203 N 
HETATM   34  C19 UNL     1       8.563  26.990  54.833  1.00  0.00     0.363 C 
HETATM   35  O2  UNL     1       8.250  26.405  55.909  1.00  0.00    -0.244 OA
BRANCH  32  36
HETATM   36  C2  UNL     1      10.737  28.116  52.183  1.00  0.00     0.004 C 
HETATM   37  C1  UNL     1      10.363  29.107  51.124  1.00  0.00     0.012 C 
HETATM   38  C3  UNL     1      12.202  28.194  52.466  1.00  0.00     0.012 C 
ENDBRANCH  32  36
BRANCH  33  39
HETATM   39  O3  UNL     1      10.729  25.999  54.345  1.00  0.00    -0.283 OA
ATOM     40  H3  UNL     1      11.676  25.962  54.274  1.00  0.00     0.245 HD
ENDBRANCH  33  39
ENDBRANCH   1  30
TORSDOF 7
ENDMDL
MODEL 5
REMARK VINA RESULT: -9.050907666      4.151      7.795
REMARK  7 active torsions:
REMARK  status: ('A' for Active; 'I' for Inactive)
REMARK    1  A    between atoms: C2_2  and  C4_4 
REMARK    2  A    between atoms: N1_6  and  C6_7 
REMARK    3  A    between atoms: N4_15  and  C10_16 
REMARK    4  A    between atoms: C12_20  and  C13_21 
REMARK       I    between atoms: C13_21  and  N6_23 
REMARK    5  A    between atoms: N6_23  and  C14_25 
REMARK    6  A    between atoms: C14_25  and  C15_26 
REMARK    7  A    between atoms: N8_38  and  O3_39 
ROOT
HETATM    1  C6  UNL     1       3.063  29.064  55.728  1.00  0.00     0.690 A 
HETATM    2  N2  UNL     1       2.410  29.964  56.483  1.00  0.00    -0.201 N 
ATOM      3  H2  UNL     1       1.401  30.057  56.364  1.00  0.00     0.183 HD
HETATM    4  C7  UNL     1       3.021  30.748  57.388  1.00  0.00     0.120 A 
HETATM    5  C8  UNL     1       4.405  30.645  57.576  1.00  0.00     0.044 A 
HETATM    6  C9  UNL     1       5.060  29.724  56.802  1.00  0.00     0.150 A 
HETATM    7  N3  UNL     1       4.391  28.959  55.903  1.00  0.00    -0.175 N 
ATOM      8  H3  UNL     1       4.912  28.285  55.342  1.00  0.00     0.186 HD
HETATM    9  N4  UNL     1       6.471  29.741  57.098  1.00  0.00    -0.159 N 
HETATM   10  C16 UNL     1       6.711  30.913  57.895  1.00  0.00     0.149 C 
HETATM   11  C17 UNL     1       7.664  30.647  59.010  1.00  0.00     0.037 C 
HETATM   12  C18 UNL     1       5.378  31.312  58.454  1.00  0.00     0.166 C 
HETATM   13 CL2  UNL     1       5.151  30.856  60.157  1.00  0.00    -0.094 Cl
HETATM   14 CL3  UNL     1       5.228  33.100  58.316  1.00  0.00    -0.094 Cl
ENDROOT
BRANCH   9  15
HETATM   15  C10 UNL     1       7.405  28.767  56.664  1.00  0.00     0.687 A 
HETATM   16  N5  UNL     1       7.698  27.603  57.321  1.00  0.00    -0.199 N 
HETATM   17  C11 UNL     1       8.603  26.910  56.652  1.00  0.00     0.142 A 
ATOM     18  H5  UNL     1       7.276  27.311  58.203  1.00  0.00     0.183 HD
HETATM   19  C12 UNL     1       8.927  27.619  55.525  1.00  0.00     0.132 A 
HETATM   20  N7  UNL     1       8.177  28.742  55.567  1.00  0.00    -0.184 N 
ATOM     21  H7  UNL     1       8.195  29.475  54.859  1.00  0.00     0.184 HD
BRANCH  19  22
HETATM   22  C13 UNL     1       9.885  27.207  54.521  1.00  0.00     0.270 C 
HETATM   23  O1  UNL     1      10.463  26.100  54.671  1.00  0.00    -0.266 OA
HETATM   24  N6  UNL     1      10.174  28.019  53.396  1.00  0.00    -0.352 N 
ATOM     25  H6  UNL     1       9.704  28.916  53.276  1.00  0.00     0.162 HD
BRANCH  24  26
HETATM   26  C14 UNL     1      11.130  27.571  52.428  1.00  0.00     0.176 C 
BRANCH  26  27
HETATM   27  C15 UNL     1      11.887  28.753  51.818  1.00  0.00     0.283 C 
HETATM   28  F1  UNL     1      11.719  28.773  50.443  1.00  0.00    -0.231 F 
HETATM   29 CL1  UNL     1      13.596  28.576  52.257  1.00  0.00    -0.088 Cl
ENDBRANCH  26  27
ENDBRANCH  24  26
ENDBRANCH  19  22
ENDBRANCH   9  15
BRANCH   1  30
HETATM   30  N1  UNL     1       2.345  28.258  54.778  1.00  0.00    -0.129 N 
HETATM   31  C5  UNL     1       1.003  28.523  54.302  1.00  0.00     0.181 C 
HETATM   32  C4  UNL     1       0.810  27.587  53.158  1.00  0.00     0.142 C 
HETATM   33  N8  UNL     1       1.685  26.498  53.443  1.00  0.00    -0.203 N 
HETATM   34  C19 UNL     1       2.806  27.068  54.137  1.00  0.00     0.363 C 
HETATM   35  O2  UNL     1       3.988  26.622  54.188  1.00  0.00    -0.244 OA
BRANCH  32  36
HETATM   36  C2  UNL     1      -0.646  27.195  53.097  1.00  0.00     0.004 C 
HETATM   37  C1  UNL     1      -1.266  26.976  54.442  1.00  0.00     0.012 C 
HETATM   38  C3  UNL     1      -1.478  28.144  52.296  1.00  0.00     0.012 C 
ENDBRANCH  32  36
BRANCH  33  39
HETATM   39  O3  UNL     1       1.608  25.179  53.181  1.00  0.00    -0.283 OA
ATOM     40  H3  UNL     1       1.403  24.428  53.726  1.00  0.00     0.245 HD
ENDBRANCH  33  39
ENDBRANCH   1  30
TORSDOF 7
ENDMDL
