MODEL 1
REMARK VINA RESULT: -9.082384948      0.000      0.000
REMARK  8 active torsions:
REMARK  status: ('A' for Active; 'I' for Inactive)
REMARK    1  A    between atoms: N2_8  and  C7_9 
REMARK    2  A    between atoms: C8_12  and  N4_13 
REMARK    3  A    between atoms: C9_16  and  C10_17 
REMARK    4  A    between atoms: C11_20  and  C12_21 
REMARK    5  A    between atoms: C15_26  and  C16_27 
REMARK    6  A    between atoms: C18_29  and  O1_30 
REMARK    7  A    between atoms: O1_30  and  C19_31 
REMARK    8  A    between atoms: C23_41  and  C24_42 
ROOT
HETATM    1  C7  UNL     1       3.109  28.954  55.575  1.00  0.00     0.134 A 
HETATM    2  N3  UNL     1       2.867  29.584  56.740  1.00  0.00    -0.325 N 
ATOM      3  H3  UNL     1       1.930  29.533  57.139  1.00  0.00     0.169 HD
HETATM    4  C8  UNL     1       3.808  30.277  57.396  1.00  0.00     0.130 A 
HETATM    5  C9  UNL     1       5.082  30.376  56.901  1.00  0.00     0.106 A 
HETATM    6  N8  UNL     1       5.341  29.748  55.731  1.00  0.00    -0.347 N 
ATOM      7  H8  UNL     1       6.280  29.801  55.336  1.00  0.00     0.166 HD
HETATM    8  C23 UNL     1       4.386  29.048  55.071  1.00  0.00     0.119 A 
ENDROOT
BRANCH   5   9
HETATM    9  C10 UNL     1       6.126  31.132  57.609  1.00  0.00     0.092 A 
HETATM   10  N5  UNL     1       6.077  32.458  57.822  1.00  0.00    -0.342 N 
HETATM   11  C11 UNL     1       7.163  32.860  58.490  1.00  0.00     0.086 A 
ATOM     12  H5  UNL     1       5.319  33.070  57.518  1.00  0.00     0.167 HD
HETATM   13  N6  UNL     1       7.908  31.746  58.695  1.00  0.00    -0.343 N 
HETATM   14  C15 UNL     1       7.294  30.691  58.169  1.00  0.00     0.074 A 
ATOM     15  H6  UNL     1       8.805  31.721  59.180  1.00  0.00     0.167 HD
BRANCH  11  16
HETATM   16  C12 UNL     1       7.485  34.235  58.916  1.00  0.00     0.053 A 
HETATM   17  C13 UNL     1       7.249  34.589  60.349  1.00  0.00     0.013 A 
HETATM   18  C14 UNL     1       8.651  34.453  59.840  1.00  0.00     0.013 A 
ENDBRANCH  11  16
BRANCH  14  19
HETATM   19  C16 UNL     1       7.715  29.295  58.146  1.00  0.00     0.011 A 
HETATM   20  C17 UNL     1       8.524  28.860  57.100  1.00  0.00     0.058 A 
HETATM   21  C18 UNL     1       8.912  27.550  57.090  1.00  0.00     0.143 A 
HETATM   22  C20 UNL     1       8.478  26.734  58.120  1.00  0.00     0.280 A 
HETATM   23  O2  UNL     1       8.846  25.515  58.099  1.00  0.00    -0.265 OA
HETATM   24  N7  UNL     1       7.694  27.186  59.118  1.00  0.00    -0.326 N 
HETATM   25  C21 UNL     1       7.247  26.312  60.192  1.00  0.00     0.159 C 
HETATM   26  C22 UNL     1       7.297  28.480  59.150  1.00  0.00     0.107 A 
BRANCH  21  27
HETATM   27  O1  UNL     1       9.699  27.039  56.113  1.00  0.00    -0.284 OA
BRANCH  27  28
HETATM   28  C19 UNL     1       9.361  26.833  54.783  1.00  0.00     0.505 C 
HETATM   29  F1  UNL     1       9.789  27.951  54.053  1.00  0.00    -0.184 F 
HETATM   30  F2  UNL     1       7.977  26.774  54.650  1.00  0.00    -0.184 F 
ENDBRANCH  27  28
ENDBRANCH  21  27
ENDBRANCH  14  19
ENDBRANCH   5   9
BRANCH   4  31
HETATM   31  N4  UNL     1       3.514  30.854  58.499  1.00  0.00    -0.384 N 
ATOM     32  H42 UNL     1       2.537  30.916  58.788  1.00  0.00     0.157 HD
ATOM     33  H41 UNL     1       4.257  31.245  59.078  1.00  0.00     0.157 HD
ENDBRANCH   4  31
BRANCH   8  34
HETATM   34  C24 UNL     1       4.735  28.391  53.808  1.00  0.00     0.406 C 
HETATM   35  F3  UNL     1       5.994  28.846  53.402  1.00  0.00    -0.207 F 
HETATM   36  F4  UNL     1       4.904  27.021  54.033  1.00  0.00    -0.207 F 
ENDBRANCH   8  34
BRANCH   1  37
HETATM   37  N2  UNL     1       2.144  28.217  54.857  1.00  0.00    -0.358 N 
HETATM   38  C2  UNL     1       1.431  28.674  53.685  1.00  0.00     0.110 C 
HETATM   39  C1  UNL     1       0.484  29.812  53.988  1.00  0.00     0.034 C 
HETATM   40  C3  UNL     1       0.721  27.485  53.076  1.00  0.00     0.296 C 
HETATM   41  N1  UNL     1      -0.165  26.826  53.981  1.00  0.00     0.087 N 
HETATM   42  C4  UNL     1      -0.552  25.521  53.533  1.00  0.00     0.310 C 
HETATM   43  C5  UNL     1       0.331  26.708  55.331  1.00  0.00     0.291 C 
HETATM   44  C6  UNL     1       1.820  26.880  55.313  1.00  0.00     0.155 C 
ENDBRANCH   1  37
TORSDOF 8
ENDMDL
MODEL 2
REMARK VINA RESULT: -8.431475331      1.516      2.299
REMARK  8 active torsions:
REMARK  status: ('A' for Active; 'I' for Inactive)
REMARK    1  A    between atoms: N2_8  and  C7_9 
REMARK    2  A    between atoms: C8_12  and  N4_13 
REMARK    3  A    between atoms: C9_16  and  C10_17 
REMARK    4  A    between atoms: C11_20  and  C12_21 
REMARK    5  A    between atoms: C15_26  and  C16_27 
REMARK    6  A    between atoms: C18_29  and  O1_30 
REMARK    7  A    between atoms: O1_30  and  C19_31 
REMARK    8  A    between atoms: C23_41  and  C24_42 
ROOT
HETATM    1  C7  UNL     1       3.036  28.983  55.558  1.00  0.00     0.134 A 
HETATM    2  N3  UNL     1       2.815  29.629  56.717  1.00  0.00    -0.325 N 
ATOM      3  H3  UNL     1       1.883  29.587  57.131  1.00  0.00     0.169 HD
HETATM    4  C8  UNL     1       3.768  30.326  57.351  1.00  0.00     0.130 A 
HETATM    5  C9  UNL     1       5.034  30.414  56.835  1.00  0.00     0.106 A 
HETATM    6  N8  UNL     1       5.274  29.769  55.670  1.00  0.00    -0.347 N 
ATOM      7  H8  UNL     1       6.206  29.813  55.260  1.00  0.00     0.166 HD
HETATM    8  C23 UNL     1       4.306  29.065  55.033  1.00  0.00     0.119 A 
ENDROOT
BRANCH   5   9
HETATM    9  C10 UNL     1       6.092  31.174  57.518  1.00  0.00     0.092 A 
HETATM   10  N5  UNL     1       6.036  32.497  57.745  1.00  0.00    -0.342 N 
HETATM   11  C11 UNL     1       7.138  32.905  58.383  1.00  0.00     0.086 A 
ATOM     12  H5  UNL     1       5.262  33.103  57.471  1.00  0.00     0.167 HD
HETATM   13  N6  UNL     1       7.901  31.797  58.554  1.00  0.00    -0.343 N 
HETATM   14  C15 UNL     1       7.281  30.741  58.036  1.00  0.00     0.074 A 
ATOM     15  H6  UNL     1       8.813  31.777  59.010  1.00  0.00     0.167 HD
BRANCH  11  16
HETATM   16  C12 UNL     1       7.459  34.279  58.812  1.00  0.00     0.053 A 
HETATM   17  C13 UNL     1       7.214  34.632  60.244  1.00  0.00     0.013 A 
HETATM   18  C14 UNL     1       8.619  34.495  59.744  1.00  0.00     0.013 A 
ENDBRANCH  11  16
BRANCH  14  19
HETATM   19  C16 UNL     1       7.716  29.349  57.987  1.00  0.00     0.011 A 
HETATM   20  C17 UNL     1       7.646  28.588  59.149  1.00  0.00     0.058 A 
HETATM   21  C18 UNL     1       8.056  27.285  59.090  1.00  0.00     0.143 A 
HETATM   22  C20 UNL     1       8.515  26.802  57.878  1.00  0.00     0.280 A 
HETATM   23  O2  UNL     1       8.895  25.586  57.836  1.00  0.00    -0.265 OA
HETATM   24  N7  UNL     1       8.571  27.566  56.770  1.00  0.00    -0.326 N 
HETATM   25  C21 UNL     1       9.059  27.038  55.505  1.00  0.00     0.159 C 
HETATM   26  C22 UNL     1       8.171  28.858  56.804  1.00  0.00     0.107 A 
BRANCH  21  27
HETATM   27  O1  UNL     1       8.022  26.470  60.171  1.00  0.00    -0.284 OA
BRANCH  27  28
HETATM   28  C19 UNL     1       6.962  25.682  60.598  1.00  0.00     0.505 C 
HETATM   29  F1  UNL     1       7.338  24.340  60.447  1.00  0.00    -0.184 F 
HETATM   30  F2  UNL     1       5.860  25.885  59.774  1.00  0.00    -0.184 F 
ENDBRANCH  27  28
ENDBRANCH  21  27
ENDBRANCH  14  19
ENDBRANCH   5   9
BRANCH   4  31
HETATM   31  N4  UNL     1       3.492  30.918  58.450  1.00  0.00    -0.384 N 
ATOM     32  H42 UNL     1       2.754  30.549  59.049  1.00  0.00     0.157 HD
ATOM     33  H41 UNL     1       4.013  31.754  58.717  1.00  0.00     0.157 HD
ENDBRANCH   4  31
BRANCH   8  34
HETATM   34  C24 UNL     1       4.633  28.391  53.773  1.00  0.00     0.406 C 
HETATM   35  F3  UNL     1       5.911  28.793  53.372  1.00  0.00    -0.207 F 
HETATM   36  F4  UNL     1       4.746  27.015  54.004  1.00  0.00    -0.207 F 
ENDBRANCH   8  34
BRANCH   1  37
HETATM   37  N2  UNL     1       2.057  28.241  54.864  1.00  0.00    -0.358 N 
HETATM   38  C2  UNL     1       1.341  28.680  53.686  1.00  0.00     0.110 C 
HETATM   39  C1  UNL     1       0.409  29.835  53.970  1.00  0.00     0.034 C 
HETATM   40  C3  UNL     1       0.612  27.485  53.110  1.00  0.00     0.296 C 
HETATM   41  N1  UNL     1      -0.274  26.858  54.036  1.00  0.00     0.087 N 
HETATM   42  C4  UNL     1      -0.679  25.547  53.621  1.00  0.00     0.310 C 
HETATM   43  C5  UNL     1       0.231  26.764  55.385  1.00  0.00     0.291 C 
HETATM   44  C6  UNL     1       1.721  26.918  55.352  1.00  0.00     0.155 C 
ENDBRANCH   1  37
TORSDOF 8
ENDMDL
MODEL 3
REMARK VINA RESULT: -8.376183147      2.488      7.258
REMARK  8 active torsions:
REMARK  status: ('A' for Active; 'I' for Inactive)
REMARK    1  A    between atoms: N2_8  and  C7_9 
REMARK    2  A    between atoms: C8_12  and  N4_13 
REMARK    3  A    between atoms: C9_16  and  C10_17 
REMARK    4  A    between atoms: C11_20  and  C12_21 
REMARK    5  A    between atoms: C15_26  and  C16_27 
REMARK    6  A    between atoms: C18_29  and  O1_30 
REMARK    7  A    between atoms: O1_30  and  C19_31 
REMARK    8  A    between atoms: C23_41  and  C24_42 
ROOT
HETATM    1  C7  UNL     1       5.928  31.517  58.507  1.00  0.00     0.134 A 
HETATM    2  N3  UNL     1       5.776  30.198  58.726  1.00  0.00    -0.325 N 
ATOM      3  H3  UNL     1       6.001  29.825  59.648  1.00  0.00     0.169 HD
HETATM    4  C8  UNL     1       5.340  29.354  57.781  1.00  0.00     0.130 A 
HETATM    5  C9  UNL     1       5.025  29.805  56.526  1.00  0.00     0.106 A 
HETATM    6  N8  UNL     1       5.172  31.129  56.290  1.00  0.00    -0.347 N 
ATOM      7  H8  UNL     1       4.945  31.498  55.367  1.00  0.00     0.166 HD
HETATM    8  C23 UNL     1       5.613  31.979  57.250  1.00  0.00     0.119 A 
ENDROOT
BRANCH   5   9
HETATM    9  C10 UNL     1       4.545  28.893  55.477  1.00  0.00     0.092 A 
HETATM   10  N5  UNL     1       3.252  28.756  55.137  1.00  0.00    -0.342 N 
HETATM   11  C11 UNL     1       3.124  27.858  54.156  1.00  0.00     0.086 A 
ATOM     12  H5  UNL     1       2.479  29.265  55.567  1.00  0.00     0.167 HD
HETATM   13  N6  UNL     1       4.379  27.425  53.880  1.00  0.00    -0.343 N 
HETATM   14  C15 UNL     1       5.251  28.042  54.671  1.00  0.00     0.074 A 
ATOM     15  H6  UNL     1       4.618  26.729  53.173  1.00  0.00     0.167 HD
BRANCH  11  16
HETATM   16  C12 UNL     1       1.873  27.426  53.505  1.00  0.00     0.053 A 
HETATM   17  C13 UNL     1       1.555  25.964  53.516  1.00  0.00     0.013 A 
HETATM   18  C14 UNL     1       0.753  26.904  54.361  1.00  0.00     0.013 A 
ENDBRANCH  11  16
BRANCH  14  19
HETATM   19  C16 UNL     1       6.701  27.899  54.735  1.00  0.00     0.011 A 
HETATM   20  C17 UNL     1       7.277  27.479  55.931  1.00  0.00     0.058 A 
HETATM   21  C18 UNL     1       8.637  27.348  55.978  1.00  0.00     0.143 A 
HETATM   22  C20 UNL     1       9.359  27.640  54.835  1.00  0.00     0.280 A 
HETATM   23  O2  UNL     1      10.626  27.515  54.892  1.00  0.00    -0.265 OA
HETATM   24  N7  UNL     1       8.771  28.045  53.693  1.00  0.00    -0.326 N 
HETATM   25  C21 UNL     1       9.549  28.348  52.501  1.00  0.00     0.159 C 
HETATM   26  C22 UNL     1       7.426  28.182  53.622  1.00  0.00     0.107 A 
BRANCH  21  27
HETATM   27  O1  UNL     1       9.283  26.945  57.099  1.00  0.00    -0.284 OA
BRANCH  27  28
HETATM   28  C19 UNL     1       9.099  27.417  58.390  1.00  0.00     0.505 C 
HETATM   29  F1  UNL     1       8.049  26.688  58.968  1.00  0.00    -0.184 F 
HETATM   30  F2  UNL     1       8.692  28.747  58.356  1.00  0.00    -0.184 F 
ENDBRANCH  27  28
ENDBRANCH  21  27
ENDBRANCH  14  19
ENDBRANCH   5   9
BRANCH   4  31
HETATM   31  N4  UNL     1       5.218  28.111  58.052  1.00  0.00    -0.384 N 
ATOM     32  H42 UNL     1       5.642  27.737  58.902  1.00  0.00     0.157 HD
ATOM     33  H41 UNL     1       4.697  27.504  57.418  1.00  0.00     0.157 HD
ENDBRANCH   4  31
BRANCH   8  34
HETATM   34  C24 UNL     1       5.750  33.403  56.927  1.00  0.00     0.406 C 
HETATM   35  F3  UNL     1       7.048  33.630  56.458  1.00  0.00    -0.207 F 
HETATM   36  F4  UNL     1       4.918  33.711  55.844  1.00  0.00    -0.207 F 
ENDBRANCH   8  34
BRANCH   1  37
HETATM   37  N2  UNL     1       6.384  32.435  59.477  1.00  0.00    -0.358 N 
HETATM   38  C2  UNL     1       7.644  33.144  59.444  1.00  0.00     0.110 C 
HETATM   39  C1  UNL     1       8.832  32.224  59.608  1.00  0.00     0.034 C 
HETATM   40  C3  UNL     1       7.603  34.221  60.507  1.00  0.00     0.296 C 
HETATM   41  N1  UNL     1       7.340  33.718  61.816  1.00  0.00     0.087 N 
HETATM   42  C4  UNL     1       6.950  34.743  62.739  1.00  0.00     0.310 C 
HETATM   43  C5  UNL     1       6.354  32.666  61.872  1.00  0.00     0.291 C 
HETATM   44  C6  UNL     1       5.534  32.709  60.619  1.00  0.00     0.155 C 
ENDBRANCH   1  37
TORSDOF 8
ENDMDL
MODEL 4
REMARK VINA RESULT: -8.151605624      1.607      2.104
REMARK  8 active torsions:
REMARK  status: ('A' for Active; 'I' for Inactive)
REMARK    1  A    between atoms: N2_8  and  C7_9 
REMARK    2  A    between atoms: C8_12  and  N4_13 
REMARK    3  A    between atoms: C9_16  and  C10_17 
REMARK    4  A    between atoms: C11_20  and  C12_21 
REMARK    5  A    between atoms: C15_26  and  C16_27 
REMARK    6  A    between atoms: C18_29  and  O1_30 
REMARK    7  A    between atoms: O1_30  and  C19_31 
REMARK    8  A    between atoms: C23_41  and  C24_42 
ROOT
HETATM    1  C7  UNL     1       2.959  28.662  55.788  1.00  0.00     0.134 A 
HETATM    2  N3  UNL     1       3.563  29.792  55.375  1.00  0.00    -0.325 N 
ATOM      3  H3  UNL     1       3.366  30.138  54.436  1.00  0.00     0.169 HD
HETATM    4  C8  UNL     1       4.413  30.481  56.148  1.00  0.00     0.130 A 
HETATM    5  C9  UNL     1       4.712  30.058  57.416  1.00  0.00     0.106 A 
HETATM    6  N8  UNL     1       4.112  28.924  57.847  1.00  0.00    -0.347 N 
ATOM      7  H8  UNL     1       4.312  28.582  58.786  1.00  0.00     0.166 HD
HETATM    8  C23 UNL     1       3.252  28.230  57.061  1.00  0.00     0.119 A 
ENDROOT
BRANCH   5   9
HETATM    9  C10 UNL     1       5.642  30.802  58.278  1.00  0.00     0.092 A 
HETATM   10  N5  UNL     1       5.447  32.073  58.669  1.00  0.00    -0.342 N 
HETATM   11  C11 UNL     1       6.457  32.479  59.444  1.00  0.00     0.086 A 
ATOM     12  H5  UNL     1       4.642  32.645  58.412  1.00  0.00     0.167 HD
HETATM   13  N6  UNL     1       7.306  31.425  59.534  1.00  0.00    -0.343 N 
HETATM   14  C15 UNL     1       6.826  30.402  58.833  1.00  0.00     0.074 A 
ATOM     15  H6  UNL     1       8.181  31.419  60.058  1.00  0.00     0.167 HD
BRANCH  11  16
HETATM   16  C12 UNL     1       6.618  33.803  60.074  1.00  0.00     0.053 A 
HETATM   17  C13 UNL     1       7.588  33.919  61.206  1.00  0.00     0.013 A 
HETATM   18  C14 UNL     1       7.913  34.544  59.884  1.00  0.00     0.013 A 
ENDBRANCH  11  16
BRANCH  14  19
HETATM   19  C16 UNL     1       7.391  29.071  58.640  1.00  0.00     0.011 A 
HETATM   20  C17 UNL     1       8.229  28.855  57.550  1.00  0.00     0.058 A 
HETATM   21  C18 UNL     1       8.752  27.604  57.380  1.00  0.00     0.143 A 
HETATM   22  C20 UNL     1       8.418  26.628  58.301  1.00  0.00     0.280 A 
HETATM   23  O2  UNL     1       8.912  25.465  58.131  1.00  0.00    -0.265 OA
HETATM   24  N7  UNL     1       7.604  26.869  59.347  1.00  0.00    -0.326 N 
HETATM   25  C21 UNL     1       7.265  25.828  60.305  1.00  0.00     0.159 C 
HETATM   26  C22 UNL     1       7.074  28.100  59.536  1.00  0.00     0.107 A 
BRANCH  21  27
HETATM   27  O1  UNL     1       9.576  27.302  56.347  1.00  0.00    -0.284 OA
BRANCH  27  28
HETATM   28  C19 UNL     1       9.212  26.978  55.048  1.00  0.00     0.505 C 
HETATM   29  F1  UNL     1       9.398  28.117  54.253  1.00  0.00    -0.184 F 
HETATM   30  F2  UNL     1       7.856  26.671  54.999  1.00  0.00    -0.184 F 
ENDBRANCH  27  28
ENDBRANCH  21  27
ENDBRANCH  14  19
ENDBRANCH   5   9
BRANCH   4  31
HETATM   31  N4  UNL     1       4.955  31.547  55.696  1.00  0.00    -0.384 N 
ATOM     32  H42 UNL     1       4.484  32.079  54.963  1.00  0.00     0.157 HD
ATOM     33  H41 UNL     1       5.852  31.857  56.072  1.00  0.00     0.157 HD
ENDBRANCH   4  31
BRANCH   8  34
HETATM   34  C24 UNL     1       2.638  27.008  57.590  1.00  0.00     0.406 C 
HETATM   35  F3  UNL     1       3.363  26.595  58.712  1.00  0.00    -0.207 F 
HETATM   36  F4  UNL     1       1.361  27.310  58.079  1.00  0.00    -0.207 F 
ENDBRANCH   8  34
BRANCH   1  37
HETATM   37  N2  UNL     1       2.059  27.911  55.002  1.00  0.00    -0.358 N 
HETATM   38  C2  UNL     1       2.365  26.676  54.313  1.00  0.00     0.110 C 
HETATM   39  C1  UNL     1       3.349  26.871  53.183  1.00  0.00     0.034 C 
HETATM   40  C3  UNL     1       1.062  26.069  53.841  1.00  0.00     0.296 C 
HETATM   41  N1  UNL     1       0.300  26.939  53.005  1.00  0.00     0.087 N 
HETATM   42  C4  UNL     1      -1.062  26.518  52.857  1.00  0.00     0.310 C 
HETATM   43  C5  UNL     1       0.299  28.323  53.414  1.00  0.00     0.291 C 
HETATM   44  C6  UNL     1       0.702  28.397  54.856  1.00  0.00     0.155 C 
ENDBRANCH   1  37
TORSDOF 8
ENDMDL
MODEL 5
REMARK VINA RESULT: -8.084177711      3.297      5.305
REMARK  8 active torsions:
REMARK  status: ('A' for Active; 'I' for Inactive)
REMARK    1  A    between atoms: N2_8  and  C7_9 
REMARK    2  A    between atoms: C8_12  and  N4_13 
REMARK    3  A    between atoms: C9_16  and  C10_17 
REMARK    4  A    between atoms: C11_20  and  C12_21 
REMARK    5  A    between atoms: C15_26  and  C16_27 
REMARK    6  A    between atoms: C18_29  and  O1_30 
REMARK    7  A    between atoms: O1_30  and  C19_31 
REMARK    8  A    between atoms: C23_41  and  C24_42 
ROOT
HETATM    1  C7  UNL     1       4.789  26.079  60.243  1.00  0.00     0.134 A 
HETATM    2  N3  UNL     1       4.100  27.168  59.855  1.00  0.00    -0.325 N 
ATOM      3  H3  UNL     1       3.081  27.121  59.830  1.00  0.00     0.169 HD
HETATM    4  C8  UNL     1       4.698  28.314  59.500  1.00  0.00     0.130 A 
HETATM    5  C9  UNL     1       6.063  28.429  59.517  1.00  0.00     0.106 A 
HETATM    6  N8  UNL     1       6.770  27.342  59.905  1.00  0.00    -0.347 N 
ATOM      7  H8  UNL     1       7.789  27.394  59.929  1.00  0.00     0.166 HD
HETATM    8  C23 UNL     1       6.161  26.186  60.263  1.00  0.00     0.119 A 
ENDROOT
BRANCH   5   9
HETATM    9  C10 UNL     1       6.736  29.678  59.131  1.00  0.00     0.092 A 
HETATM   10  N5  UNL     1       7.009  30.677  59.988  1.00  0.00    -0.342 N 
HETATM   11  C11 UNL     1       7.623  31.678  59.350  1.00  0.00     0.086 A 
ATOM     12  H5  UNL     1       6.780  30.671  60.982  1.00  0.00     0.167 HD
HETATM   13  N6  UNL     1       7.733  31.286  58.057  1.00  0.00    -0.343 N 
HETATM   14  C15 UNL     1       7.202  30.077  57.908  1.00  0.00     0.074 A 
ATOM     15  H6  UNL     1       8.159  31.836  57.311  1.00  0.00     0.167 HD
BRANCH  11  16
HETATM   16  C12 UNL     1       8.087  32.951  59.934  1.00  0.00     0.053 A 
HETATM   17  C13 UNL     1       7.872  34.198  59.137  1.00  0.00     0.013 A 
HETATM   18  C14 UNL     1       7.065  33.961  60.376  1.00  0.00     0.013 A 
ENDBRANCH  11  16
BRANCH  14  19
HETATM   19  C16 UNL     1       7.092  29.259  56.705  1.00  0.00     0.011 A 
HETATM   20  C17 UNL     1       8.202  28.525  56.295  1.00  0.00     0.058 A 
HETATM   21  C18 UNL     1       8.086  27.763  55.167  1.00  0.00     0.143 A 
HETATM   22  C20 UNL     1       6.874  27.765  54.501  1.00  0.00     0.280 A 
HETATM   23  O2  UNL     1       6.779  27.051  53.450  1.00  0.00    -0.265 OA
HETATM   24  N7  UNL     1       5.818  28.487  54.924  1.00  0.00    -0.326 N 
HETATM   25  C21 UNL     1       4.552  28.476  54.207  1.00  0.00     0.159 C 
HETATM   26  C22 UNL     1       5.908  29.250  56.039  1.00  0.00     0.107 A 
BRANCH  21  27
HETATM   27  O1  UNL     1       9.113  27.017  54.694  1.00  0.00    -0.284 OA
BRANCH  27  28
HETATM   28  C19 UNL     1      10.313  27.475  54.169  1.00  0.00     0.505 C 
HETATM   29  F1  UNL     1      10.387  27.050  52.835  1.00  0.00    -0.184 F 
HETATM   30  F2  UNL     1      11.380  26.884  54.838  1.00  0.00    -0.184 F 
ENDBRANCH  27  28
ENDBRANCH  21  27
ENDBRANCH  14  19
ENDBRANCH   5   9
BRANCH   4  31
HETATM   31  N4  UNL     1       3.986  29.313  59.141  1.00  0.00    -0.384 N 
ATOM     32  H42 UNL     1       3.062  29.153  58.738  1.00  0.00     0.157 HD
ATOM     33  H41 UNL     1       4.348  30.260  59.260  1.00  0.00     0.157 HD
ENDBRANCH   4  31
BRANCH   8  34
HETATM   34  C24 UNL     1       6.987  25.046  60.673  1.00  0.00     0.406 C 
HETATM   35  F3  UNL     1       8.030  24.898  59.752  1.00  0.00    -0.207 F 
HETATM   36  F4  UNL     1       7.618  25.348  61.885  1.00  0.00    -0.207 F 
ENDBRANCH   8  34
BRANCH   1  37
HETATM   37  N2  UNL     1       4.193  24.858  60.622  1.00  0.00    -0.358 N 
HETATM   38  C2  UNL     1       3.925  23.739  59.745  1.00  0.00     0.110 C 
HETATM   39  C1  UNL     1       2.866  24.052  58.713  1.00  0.00     0.034 C 
HETATM   40  C3  UNL     1       3.554  22.550  60.604  1.00  0.00     0.296 C 
HETATM   41  N1  UNL     1       2.442  22.794  61.465  1.00  0.00     0.087 N 
HETATM   42  C4  UNL     1       2.321  21.822  62.510  1.00  0.00     0.310 C 
HETATM   43  C5  UNL     1       2.423  24.105  62.069  1.00  0.00     0.291 C 
HETATM   44  C6  UNL     1       3.806  24.682  62.008  1.00  0.00     0.155 C 
ENDBRANCH   1  37
TORSDOF 8
ENDMDL
