MODEL 1
REMARK VINA RESULT: -6.778388984      0.000      0.000
REMARK  9 active torsions:
REMARK  status: ('A' for Active; 'I' for Inactive)
REMARK    1  A    between atoms: C2_2  and  C3_3 
REMARK    2  A    between atoms: C2_2  and  C11_31 
REMARK       I    between atoms: C3_3  and  N1_5 
REMARK    3  A    between atoms: C4_6  and  O2_7 
REMARK    4  A    between atoms: C5_9  and  N2_10 
REMARK    5  A    between atoms: N2_10  and  N3_12 
REMARK    6  A    between atoms: N3_12  and  C6_14 
REMARK    7  A    between atoms: C7_17  and  N5_18 
REMARK    8  A    between atoms: C11_31  and  N9_32 
REMARK    9  A    between atoms: C11_31  and  O5_36 
ROOT
HETATM    1  C3  UNL     1      37.086   4.544  14.154  1.00  0.00     0.242 C 
HETATM    2  O1  UNL     1      35.823   4.581  14.415  1.00  0.00    -0.272 OA
HETATM    3  N1  UNL     1      37.572   3.316  13.635  1.00  0.00    -0.209 N 
HETATM    4  C4  UNL     1      36.708   2.265  13.500  1.00  0.00     0.188 A 
HETATM    5  C5  UNL     1      37.114   1.057  12.989  1.00  0.00     0.169 A 
HETATM    6  C8  UNL     1      38.416   0.849  12.586  1.00  0.00     0.283 A 
HETATM    7  O3  UNL     1      38.814  -0.246  12.115  1.00  0.00    -0.265 OA
HETATM    8  N8  UNL     1      39.247   1.892  12.727  1.00  0.00    -0.268 N 
HETATM    9  C9  UNL     1      40.643   1.727  12.316  1.00  0.00     0.164 C 
HETATM   10  C10 UNL     1      38.826   3.079  13.235  1.00  0.00     0.340 A 
HETATM   11  O4  UNL     1      39.685   3.980  13.318  1.00  0.00    -0.246 OA
ENDROOT
BRANCH   5  12
HETATM   12  N2  UNL     1      36.222  -0.043  12.844  1.00  0.00    -0.278 N 
ATOM     13  H2  UNL     1      35.363   0.065  12.305  1.00  0.00     0.188 HD
BRANCH  12  14
HETATM   14  N3  UNL     1      36.498  -1.177  13.394  1.00  0.00    -0.130 N 
ATOM     15  H3  UNL     1      36.986  -1.209  14.290  1.00  0.00     0.205 HD
BRANCH  14  16
HETATM   16  C6  UNL     1      36.112  -2.398  12.732  1.00  0.00     0.726 A 
HETATM   17  N4  UNL     1      36.233  -2.691  11.430  1.00  0.00    -0.019 N 
HETATM   18  C7  UNL     1      35.758  -3.923  11.209  1.00  0.00     0.705 A 
ATOM     19  H4  UNL     1      36.625  -2.072  10.720  1.00  0.00     0.203 HD
HETATM   20  N6  UNL     1      35.337  -4.398  12.393  1.00  0.00    -0.117 N 
HETATM   21  N7  UNL     1      35.552  -3.474  13.312  1.00  0.00    -0.116 N 
ATOM     22  H6  UNL     1      34.921  -5.315  12.555  1.00  0.00     0.206 HD
ATOM     23  H7  UNL     1      35.330  -3.562  14.303  1.00  0.00     0.206 HD
BRANCH  18  24
HETATM   24  N5  UNL     1      35.703  -4.568  10.067  1.00  0.00    -0.233 N 
ATOM     25  H52 UNL     1      34.900  -5.096   9.725  1.00  0.00     0.174 HD
ATOM     26  H51 UNL     1      36.432  -4.645   9.357  1.00  0.00     0.174 HD
ENDBRANCH  18  24
ENDBRANCH  14  16
ENDBRANCH  12  14
ENDBRANCH   5  12
BRANCH   4  27
HETATM   27  O2  UNL     1      35.385   2.425  13.892  1.00  0.00    -0.344 OA
ATOM     28  H2  UNL     1      35.086   2.004  14.689  1.00  0.00     0.219 HD
ENDBRANCH   4  27
BRANCH   1  29
HETATM   29  C2  UNL     1      37.818   5.766  14.436  1.00  0.00     0.131 C 
HETATM   30  C1  UNL     1      36.847   6.953  14.199  1.00  0.00     0.024 C 
BRANCH  29  31
HETATM   31  C11 UNL     1      38.322   5.882  15.864  1.00  0.00     0.328 C 
BRANCH  31  32
HETATM   32  N9  UNL     1      39.760   5.645  15.917  1.00  0.00    -0.052 N 
ATOM     33  H93 UNL     1      39.977   4.698  16.228  1.00  0.00     0.277 HD
ATOM     34  H92 UNL     1      40.171   5.595  14.985  1.00  0.00     0.277 HD
ATOM     35  H91 UNL     1      40.216   6.350  16.496  1.00  0.00     0.277 HD
ENDBRANCH  31  32
BRANCH  31  36
HETATM   36  O5  UNL     1      37.631   4.966  16.632  1.00  0.00    -0.369 OA
ATOM     37  H5  UNL     1      37.080   4.456  16.051  1.00  0.00     0.212 HD
ENDBRANCH  31  36
ENDBRANCH  29  31
ENDBRANCH   1  29
TORSDOF 9
ENDMDL
MODEL 2
REMARK VINA RESULT: -6.771259104      1.053      1.136
REMARK  9 active torsions:
REMARK  status: ('A' for Active; 'I' for Inactive)
REMARK    1  A    between atoms: C2_2  and  C3_3 
REMARK    2  A    between atoms: C2_2  and  C11_31 
REMARK       I    between atoms: C3_3  and  N1_5 
REMARK    3  A    between atoms: C4_6  and  O2_7 
REMARK    4  A    between atoms: C5_9  and  N2_10 
REMARK    5  A    between atoms: N2_10  and  N3_12 
REMARK    6  A    between atoms: N3_12  and  C6_14 
REMARK    7  A    between atoms: C7_17  and  N5_18 
REMARK    8  A    between atoms: C11_31  and  N9_32 
REMARK    9  A    between atoms: C11_31  and  O5_36 
ROOT
HETATM    1  C3  UNL     1      36.221   4.804  13.658  1.00  0.00     0.242 C 
HETATM    2  O1  UNL     1      35.019   4.449  13.964  1.00  0.00    -0.272 OA
HETATM    3  N1  UNL     1      37.125   3.746  13.380  1.00  0.00    -0.209 N 
HETATM    4  C4  UNL     1      36.692   2.456  13.504  1.00  0.00     0.188 A 
HETATM    5  C5  UNL     1      37.514   1.389  13.233  1.00  0.00     0.169 A 
HETATM    6  C8  UNL     1      38.817   1.574  12.822  1.00  0.00     0.283 A 
HETATM    7  O3  UNL     1      39.590   0.616  12.567  1.00  0.00    -0.265 OA
HETATM    8  N8  UNL     1      39.222   2.847  12.707  1.00  0.00    -0.268 N 
HETATM    9  C9  UNL     1      40.597   3.101  12.275  1.00  0.00     0.164 C 
HETATM   10  C10 UNL     1      38.393   3.888  12.980  1.00  0.00     0.340 A 
HETATM   11  O4  UNL     1      38.876   5.029  12.836  1.00  0.00    -0.246 OA
ENDROOT
BRANCH   5  12
HETATM   12  N2  UNL     1      37.073   0.042  13.358  1.00  0.00    -0.278 N 
ATOM     13  H2  UNL     1      37.613  -0.621  13.915  1.00  0.00     0.188 HD
BRANCH  12  14
HETATM   14  N3  UNL     1      35.991  -0.344  12.769  1.00  0.00    -0.130 N 
ATOM     15  H3  UNL     1      35.255   0.329  12.554  1.00  0.00     0.205 HD
BRANCH  14  16
HETATM   16  C6  UNL     1      35.833  -1.733  12.418  1.00  0.00     0.726 A 
HETATM   17  N4  UNL     1      35.893  -2.274  11.194  1.00  0.00    -0.019 N 
HETATM   18  C7  UNL     1      35.693  -3.595  11.285  1.00  0.00     0.705 A 
ATOM     19  H4  UNL     1      36.065  -1.761  10.329  1.00  0.00     0.203 HD
HETATM   20  N6  UNL     1      35.505  -3.873  12.586  1.00  0.00    -0.117 N 
HETATM   21  N7  UNL     1      35.591  -2.745  13.268  1.00  0.00    -0.116 N 
ATOM     22  H6  UNL     1      35.327  -4.797  12.980  1.00  0.00     0.206 HD
ATOM     23  H7  UNL     1      35.489  -2.656  14.279  1.00  0.00     0.206 HD
BRANCH  18  24
HETATM   24  N5  UNL     1      35.678  -4.473  10.309  1.00  0.00    -0.233 N 
ATOM     25  H52 UNL     1      36.101  -4.344   9.390  1.00  0.00     0.174 HD
ATOM     26  H51 UNL     1      35.254  -5.401  10.311  1.00  0.00     0.174 HD
ENDBRANCH  18  24
ENDBRANCH  14  16
ENDBRANCH  12  14
ENDBRANCH   5  12
BRANCH   4  27
HETATM   27  O2  UNL     1      35.387   2.218  13.914  1.00  0.00    -0.344 OA
ATOM     28  H2  UNL     1      35.032   1.340  13.838  1.00  0.00     0.219 HD
ENDBRANCH   4  27
BRANCH   1  29
HETATM   29  C2  UNL     1      36.465   6.235  13.649  1.00  0.00     0.131 C 
HETATM   30  C1  UNL     1      35.120   6.934  13.317  1.00  0.00     0.024 C 
BRANCH  29  31
HETATM   31  C11 UNL     1      36.944   6.801  14.976  1.00  0.00     0.328 C 
BRANCH  31  32
HETATM   32  N9  UNL     1      38.383   7.032  14.941  1.00  0.00    -0.052 N 
ATOM     33  H93 UNL     1      38.873   6.482  15.646  1.00  0.00     0.277 HD
ATOM     34  H92 UNL     1      38.812   6.628  14.109  1.00  0.00     0.277 HD
ATOM     35  H91 UNL     1      38.586   8.028  15.028  1.00  0.00     0.277 HD
ENDBRANCH  31  32
BRANCH  31  36
HETATM   36  O5  UNL     1      36.601   5.902  15.966  1.00  0.00    -0.369 OA
ATOM     37  H5  UNL     1      35.748   5.545  15.752  1.00  0.00     0.212 HD
ENDBRANCH  31  36
ENDBRANCH  29  31
ENDBRANCH   1  29
TORSDOF 9
ENDMDL
MODEL 3
REMARK VINA RESULT: -6.632368866      1.282      1.585
REMARK  9 active torsions:
REMARK  status: ('A' for Active; 'I' for Inactive)
REMARK    1  A    between atoms: C2_2  and  C3_3 
REMARK    2  A    between atoms: C2_2  and  C11_31 
REMARK       I    between atoms: C3_3  and  N1_5 
REMARK    3  A    between atoms: C4_6  and  O2_7 
REMARK    4  A    between atoms: C5_9  and  N2_10 
REMARK    5  A    between atoms: N2_10  and  N3_12 
REMARK    6  A    between atoms: N3_12  and  C6_14 
REMARK    7  A    between atoms: C7_17  and  N5_18 
REMARK    8  A    between atoms: C11_31  and  N9_32 
REMARK    9  A    between atoms: C11_31  and  O5_36 
ROOT
HETATM    1  C3  UNL     1      36.280   5.009  13.784  1.00  0.00     0.242 C 
HETATM    2  O1  UNL     1      35.071   4.662  14.071  1.00  0.00    -0.272 OA
HETATM    3  N1  UNL     1      37.165   3.949  13.456  1.00  0.00    -0.209 N 
HETATM    4  C4  UNL     1      36.708   2.662  13.516  1.00  0.00     0.188 A 
HETATM    5  C5  UNL     1      37.510   1.595  13.194  1.00  0.00     0.169 A 
HETATM    6  C8  UNL     1      38.817   1.775  12.794  1.00  0.00     0.283 A 
HETATM    7  O3  UNL     1      39.573   0.817  12.494  1.00  0.00    -0.265 OA
HETATM    8  N8  UNL     1      39.246   3.045  12.742  1.00  0.00    -0.268 N 
HETATM    9  C9  UNL     1      40.627   3.294  12.325  1.00  0.00     0.164 C 
HETATM   10  C10 UNL     1      38.436   4.087  13.065  1.00  0.00     0.340 A 
HETATM   11  O4  UNL     1      38.941   5.224  12.978  1.00  0.00    -0.246 OA
ENDROOT
BRANCH   5  12
HETATM   12  N2  UNL     1      37.044   0.252  13.253  1.00  0.00    -0.278 N 
ATOM     13  H2  UNL     1      37.220  -0.312  14.084  1.00  0.00     0.188 HD
BRANCH  12  14
HETATM   14  N3  UNL     1      36.399  -0.254  12.256  1.00  0.00    -0.130 N 
ATOM     15  H3  UNL     1      36.246   0.295  11.410  1.00  0.00     0.205 HD
BRANCH  14  16
HETATM   16  C6  UNL     1      35.897  -1.603  12.349  1.00  0.00     0.726 A 
HETATM   17  N4  UNL     1      35.806  -2.363  13.448  1.00  0.00    -0.019 N 
HETATM   18  C7  UNL     1      35.289  -3.553  13.121  1.00  0.00     0.705 A 
ATOM     19  H4  UNL     1      36.086  -2.079  14.387  1.00  0.00     0.203 HD
HETATM   20  N6  UNL     1      35.058  -3.528  11.797  1.00  0.00    -0.117 N 
HETATM   21  N7  UNL     1      35.426  -2.347  11.334  1.00  0.00    -0.116 N 
ATOM     22  H6  UNL     1      34.665  -4.291  11.244  1.00  0.00     0.206 HD
ATOM     23  H7  UNL     1      35.364  -2.048  10.360  1.00  0.00     0.206 HD
BRANCH  18  24
HETATM   24  N5  UNL     1      35.043  -4.568  13.916  1.00  0.00    -0.233 N 
ATOM     25  H52 UNL     1      34.988  -4.522  14.934  1.00  0.00     0.174 HD
ATOM     26  H51 UNL     1      34.872  -5.540  13.655  1.00  0.00     0.174 HD
ENDBRANCH  18  24
ENDBRANCH  14  16
ENDBRANCH  12  14
ENDBRANCH   5  12
BRANCH   4  27
HETATM   27  O2  UNL     1      35.398   2.430  13.913  1.00  0.00    -0.344 OA
ATOM     28  H2  UNL     1      35.235   2.066  14.775  1.00  0.00     0.219 HD
ENDBRANCH   4  27
BRANCH   1  29
HETATM   29  C2  UNL     1      36.551   6.434  13.846  1.00  0.00     0.131 C 
HETATM   30  C1  UNL     1      35.237   7.173  13.477  1.00  0.00     0.024 C 
BRANCH  29  31
HETATM   31  C11 UNL     1      36.973   6.936  15.216  1.00  0.00     0.328 C 
BRANCH  31  32
HETATM   32  N9  UNL     1      38.421   7.091  15.277  1.00  0.00    -0.052 N 
ATOM     33  H93 UNL     1      38.866   6.312  15.763  1.00  0.00     0.277 HD
ATOM     34  H92 UNL     1      38.855   6.967  14.363  1.00  0.00     0.277 HD
ATOM     35  H91 UNL     1      38.666   7.989  15.696  1.00  0.00     0.277 HD
ENDBRANCH  31  32
BRANCH  31  36
HETATM   36  O5  UNL     1      36.522   6.030  16.155  1.00  0.00    -0.369 OA
ATOM     37  H5  UNL     1      36.583   5.162  15.775  1.00  0.00     0.212 HD
ENDBRANCH  31  36
ENDBRANCH  29  31
ENDBRANCH   1  29
TORSDOF 9
ENDMDL
MODEL 4
REMARK VINA RESULT: -6.604917042      1.939      3.919
REMARK  9 active torsions:
REMARK  status: ('A' for Active; 'I' for Inactive)
REMARK    1  A    between atoms: C2_2  and  C3_3 
REMARK    2  A    between atoms: C2_2  and  C11_31 
REMARK       I    between atoms: C3_3  and  N1_5 
REMARK    3  A    between atoms: C4_6  and  O2_7 
REMARK    4  A    between atoms: C5_9  and  N2_10 
REMARK    5  A    between atoms: N2_10  and  N3_12 
REMARK    6  A    between atoms: N3_12  and  C6_14 
REMARK    7  A    between atoms: C7_17  and  N5_18 
REMARK    8  A    between atoms: C11_31  and  N9_32 
REMARK    9  A    between atoms: C11_31  and  O5_36 
ROOT
HETATM    1  C3  UNL     1      40.541   3.203  12.117  1.00  0.00     0.242 C 
HETATM    2  O1  UNL     1      41.195   2.105  11.936  1.00  0.00    -0.272 OA
HETATM    3  N1  UNL     1      39.214   3.058  12.597  1.00  0.00    -0.209 N 
HETATM    4  C4  UNL     1      38.710   1.801  12.781  1.00  0.00     0.188 A 
HETATM    5  C5  UNL     1      37.439   1.595  13.259  1.00  0.00     0.169 A 
HETATM    6  C8  UNL     1      36.612   2.652  13.577  1.00  0.00     0.283 A 
HETATM    7  O3  UNL     1      35.445   2.492  14.016  1.00  0.00    -0.265 OA
HETATM    8  N8  UNL     1      37.126   3.876  13.389  1.00  0.00    -0.268 N 
HETATM    9  C9  UNL     1      36.291   5.035  13.710  1.00  0.00     0.164 C 
HETATM   10  C10 UNL     1      38.386   4.059  12.915  1.00  0.00     0.340 A 
HETATM   11  O4  UNL     1      38.759   5.241  12.783  1.00  0.00    -0.246 OA
ENDROOT
BRANCH   5  12
HETATM   12  N2  UNL     1      36.904   0.291  13.454  1.00  0.00    -0.278 N 
ATOM     13  H2  UNL     1      37.292  -0.316  14.176  1.00  0.00     0.188 HD
BRANCH  12  14
HETATM   14  N3  UNL     1      35.929  -0.126  12.719  1.00  0.00    -0.130 N 
ATOM     15  H3  UNL     1      35.238   0.533  12.359  1.00  0.00     0.205 HD
BRANCH  14  16
HETATM   16  C6  UNL     1      35.824  -1.531  12.411  1.00  0.00     0.726 A 
HETATM   17  N4  UNL     1      35.838  -2.100  11.198  1.00  0.00    -0.019 N 
HETATM   18  C7  UNL     1      35.716  -3.427  11.332  1.00  0.00     0.705 A 
ATOM     19  H4  UNL     1      35.928  -1.602  10.313  1.00  0.00     0.203 HD
HETATM   20  N6  UNL     1      35.624  -3.680  12.649  1.00  0.00    -0.117 N 
HETATM   21  N7  UNL     1      35.691  -2.531  13.298  1.00  0.00    -0.116 N 
ATOM     22  H6  UNL     1      35.521  -4.601  13.075  1.00  0.00     0.206 HD
ATOM     23  H7  UNL     1      35.647  -2.421  14.311  1.00  0.00     0.206 HD
BRANCH  18  24
HETATM   24  N5  UNL     1      35.688  -4.331  10.380  1.00  0.00    -0.233 N 
ATOM     25  H52 UNL     1      35.645  -4.135   9.381  1.00  0.00     0.174 HD
ATOM     26  H51 UNL     1      35.704  -5.346  10.483  1.00  0.00     0.174 HD
ENDBRANCH  18  24
ENDBRANCH  14  16
ENDBRANCH  12  14
ENDBRANCH   5  12
BRANCH   4  27
HETATM   27  O2  UNL     1      39.504   0.704  12.475  1.00  0.00    -0.344 OA
ATOM     28  H2  UNL     1      39.088  -0.128  12.280  1.00  0.00     0.219 HD
ENDBRANCH   4  27
BRANCH   1  29
HETATM   29  C2  UNL     1      41.265   4.420  11.795  1.00  0.00     0.131 C 
HETATM   30  C1  UNL     1      42.729   4.229  12.272  1.00  0.00     0.024 C 
BRANCH  29  31
HETATM   31  C11 UNL     1      41.320   4.747  10.313  1.00  0.00     0.328 C 
BRANCH  31  32
HETATM   32  N9  UNL     1      39.995   5.102   9.820  1.00  0.00    -0.052 N 
ATOM     33  H93 UNL     1      39.566   4.337   9.298  1.00  0.00     0.277 HD
ATOM     34  H92 UNL     1      39.314   5.169  10.576  1.00  0.00     0.277 HD
ATOM     35  H91 UNL     1      40.038   5.960   9.270  1.00  0.00     0.277 HD
ENDBRANCH  31  32
BRANCH  31  36
HETATM   36  O5  UNL     1      41.824   3.642   9.655  1.00  0.00    -0.369 OA
ATOM     37  H5  UNL     1      42.771   3.680   9.707  1.00  0.00     0.212 HD
ENDBRANCH  31  36
ENDBRANCH  29  31
ENDBRANCH   1  29
TORSDOF 9
ENDMDL
MODEL 5
REMARK VINA RESULT: -6.580006085      5.444      8.470
REMARK  9 active torsions:
REMARK  status: ('A' for Active; 'I' for Inactive)
REMARK    1  A    between atoms: C2_2  and  C3_3 
REMARK    2  A    between atoms: C2_2  and  C11_31 
REMARK       I    between atoms: C3_3  and  N1_5 
REMARK    3  A    between atoms: C4_6  and  O2_7 
REMARK    4  A    between atoms: C5_9  and  N2_10 
REMARK    5  A    between atoms: N2_10  and  N3_12 
REMARK    6  A    between atoms: N3_12  and  C6_14 
REMARK    7  A    between atoms: C7_17  and  N5_18 
REMARK    8  A    between atoms: C11_31  and  N9_32 
REMARK    9  A    between atoms: C11_31  and  O5_36 
ROOT
HETATM    1  C3  UNL     1      37.878   5.139  15.855  1.00  0.00     0.242 C 
HETATM    2  O1  UNL     1      38.350   4.002  16.241  1.00  0.00    -0.272 OA
HETATM    3  N1  UNL     1      37.521   6.041  16.890  1.00  0.00    -0.209 N 
HETATM    4  C4  UNL     1      37.646   5.641  18.190  1.00  0.00     0.188 A 
HETATM    5  C5  UNL     1      37.333   6.474  19.236  1.00  0.00     0.169 A 
HETATM    6  C8  UNL     1      36.877   7.757  19.020  1.00  0.00     0.283 A 
HETATM    7  O3  UNL     1      36.584   8.541  19.958  1.00  0.00    -0.265 OA
HETATM    8  N8  UNL     1      36.762   8.131  17.737  1.00  0.00    -0.268 N 
HETATM    9  C9  UNL     1      36.283   9.484  17.449  1.00  0.00     0.164 C 
HETATM   10  C10 UNL     1      37.077   7.291  16.716  1.00  0.00     0.340 A 
HETATM   11  O4  UNL     1      36.934   7.746  15.564  1.00  0.00    -0.246 OA
ENDROOT
BRANCH   5  12
HETATM   12  N2  UNL     1      37.459   6.067  20.594  1.00  0.00    -0.278 N 
ATOM     13  H2  UNL     1      38.382   6.004  21.023  1.00  0.00     0.188 HD
BRANCH  12  14
HETATM   14  N3  UNL     1      36.407   5.777  21.283  1.00  0.00    -0.130 N 
ATOM     15  H3  UNL     1      35.705   6.491  21.477  1.00  0.00     0.205 HD
BRANCH  14  16
HETATM   16  C6  UNL     1      36.233   4.433  21.779  1.00  0.00     0.726 A 
HETATM   17  N4  UNL     1      36.580   3.292  21.170  1.00  0.00    -0.019 N 
HETATM   18  C7  UNL     1      36.252   2.257  21.953  1.00  0.00     0.705 A 
ATOM     19  H4  UNL     1      37.024   3.221  20.255  1.00  0.00     0.203 HD
HETATM   20  N6  UNL     1      35.693   2.769  23.063  1.00  0.00    -0.117 N 
HETATM   21  N7  UNL     1      35.684   4.085  22.954  1.00  0.00    -0.116 N 
ATOM     22  H6  UNL     1      35.336   2.232  23.855  1.00  0.00     0.206 HD
ATOM     23  H7  UNL     1      35.318   4.734  23.651  1.00  0.00     0.206 HD
BRANCH  18  24
HETATM   24  N5  UNL     1      36.430   0.978  21.711  1.00  0.00    -0.233 N 
ATOM     25  H52 UNL     1      36.926   0.592  20.908  1.00  0.00     0.174 HD
ATOM     26  H51 UNL     1      36.110   0.187  22.270  1.00  0.00     0.174 HD
ENDBRANCH  18  24
ENDBRANCH  14  16
ENDBRANCH  12  14
ENDBRANCH   5  12
BRANCH   4  27
HETATM   27  O2  UNL     1      38.100   4.357  18.460  1.00  0.00    -0.344 OA
ATOM     28  H2  UNL     1      37.494   3.628  18.390  1.00  0.00     0.219 HD
ENDBRANCH   4  27
BRANCH   1  29
HETATM   29  C2  UNL     1      37.780   5.318  14.417  1.00  0.00     0.131 C 
HETATM   30  C1  UNL     1      38.992   4.591  13.775  1.00  0.00     0.024 C 
BRANCH  29  31
HETATM   31  C11 UNL     1      36.528   4.728  13.793  1.00  0.00     0.328 C 
BRANCH  31  32
HETATM   32  N9  UNL     1      35.382   5.598  14.030  1.00  0.00    -0.052 N 
ATOM     33  H93 UNL     1      35.485   6.134  14.892  1.00  0.00     0.277 HD
ATOM     34  H92 UNL     1      35.354   6.377  13.371  1.00  0.00     0.277 HD
ATOM     35  H91 UNL     1      34.517   5.059  14.018  1.00  0.00     0.277 HD
ENDBRANCH  31  32
BRANCH  31  36
HETATM   36  O5  UNL     1      36.331   3.476  14.341  1.00  0.00    -0.369 OA
ATOM     37  H5  UNL     1      35.456   3.453  14.708  1.00  0.00     0.212 HD
ENDBRANCH  31  36
ENDBRANCH  29  31
ENDBRANCH   1  29
TORSDOF 9
ENDMDL
