MODEL 1
REMARK VINA RESULT: -6.498982798      0.000      0.000
REMARK  7 active torsions:
REMARK  status: ('A' for Active; 'I' for Inactive)
REMARK    1  A    between atoms: C3_3  and  N1_4 
REMARK    2  A    between atoms: N1_4  and  C4_6 
REMARK    3  A    between atoms: C6_15  and  N5_16 
REMARK    4  A    between atoms: C7_21  and  N7_22 
REMARK    5  A    between atoms: N10_30  and  C10_31 
REMARK    6  A    between atoms: C10_31  and  C11_32 
REMARK    7  A    between atoms: C11_32  and  O3_34 
ROOT
HETATM    1  C4  UNL     1      37.682  -0.506  13.620  1.00  0.00     0.356 C 
HETATM    2  N2  UNL     1      37.810  -0.649  15.038  1.00  0.00    -0.234 N 
ATOM      3  H2  UNL     1      37.758   0.153  15.665  1.00  0.00     0.194 HD
HETATM    4  O1  UNL     1      37.999  -1.868  15.487  1.00  0.00    -0.143 OA
HETATM    5  N3  UNL     1      36.848  -2.544  15.269  1.00  0.00    -0.070 N 
ATOM      6  H3  UNL     1      36.308  -2.996  16.007  1.00  0.00     0.215 HD
HETATM    7  C5  UNL     1      36.466  -2.554  13.875  1.00  0.00     0.738 A 
HETATM    8  N4  UNL     1      35.719  -3.557  13.412  1.00  0.00    -0.019 N 
ATOM      9  H4  UNL     1      35.404  -4.292  14.045  1.00  0.00     0.203 HD
HETATM   10  C6  UNL     1      35.377  -3.599  12.101  1.00  0.00     0.705 A 
HETATM   11  N6  UNL     1      35.809  -2.616  11.299  1.00  0.00    -0.022 N 
ATOM     12  H6  UNL     1      35.559  -2.637  10.310  1.00  0.00     0.203 HD
HETATM   13  C7  UNL     1      36.562  -1.604  11.759  1.00  0.00     0.710 A 
HETATM   14  N8  UNL     1      36.888  -1.580  13.056  1.00  0.00     0.030 N 
ENDROOT
BRANCH   1  15
HETATM   15  N1  UNL     1      37.189   0.796  13.248  1.00  0.00    -0.334 N 
ATOM     16  H1  UNL     1      36.188   0.833  13.056  1.00  0.00     0.165 HD
BRANCH  15  17
HETATM   17  C3  UNL     1      37.847   2.001  13.107  1.00  0.00     0.133 A 
HETATM   18  C2  UNL     1      39.139   2.288  12.787  1.00  0.00     0.056 A 
HETATM   19  C1  UNL     1      40.255   1.371  12.484  1.00  0.00     0.072 C 
HETATM   20  N10 UNL     1      39.317   3.651  12.774  1.00  0.00    -0.297 N 
HETATM   21  C9  UNL     1      38.138   4.202  13.086  1.00  0.00     0.330 A 
HETATM   22  N9  UNL     1      37.253   3.226  13.287  1.00  0.00    -0.288 N 
HETATM   23  O2  UNL     1      37.952   5.439  13.162  1.00  0.00    -0.246 OA
HETATM   24  C8  UNL     1      35.860   3.496  13.645  1.00  0.00     0.163 C 
BRANCH  20  25
HETATM   25  C10 UNL     1      40.533   4.351  12.486  1.00  0.00     0.165 C 
BRANCH  25  26
HETATM   26  C11 UNL     1      40.633   4.862  11.072  1.00  0.00     0.132 C 
HETATM   27  C12 UNL     1      41.573   4.053  10.225  1.00  0.00     0.041 C 
BRANCH  26  28
HETATM   28  O3  UNL     1      39.366   4.769  10.505  1.00  0.00    -0.394 OA
ATOM     29  H3  UNL     1      39.314   5.423   9.817  1.00  0.00     0.210 HD
ENDBRANCH  26  28
ENDBRANCH  25  26
ENDBRANCH  20  25
ENDBRANCH  15  17
ENDBRANCH   1  15
BRANCH  13  30
HETATM   30  N7  UNL     1      36.962  -0.690  10.911  1.00  0.00    -0.233 N 
ATOM     31  H72 UNL     1      37.938  -0.401  10.830  1.00  0.00     0.174 HD
ATOM     32  H71 UNL     1      36.269  -0.263  10.296  1.00  0.00     0.174 HD
ENDBRANCH  13  30
BRANCH  10  33
HETATM   33  N5  UNL     1      34.659  -4.568  11.675  1.00  0.00    -0.234 N 
ATOM     34  H52 UNL     1      34.896  -5.545  11.852  1.00  0.00     0.174 HD
ATOM     35  H51 UNL     1      33.817  -4.364  11.137  1.00  0.00     0.174 HD
ENDBRANCH  10  33
TORSDOF 7
ENDMDL
MODEL 2
REMARK VINA RESULT: -6.258297794      1.950      2.780
REMARK  7 active torsions:
REMARK  status: ('A' for Active; 'I' for Inactive)
REMARK    1  A    between atoms: C3_3  and  N1_4 
REMARK    2  A    between atoms: N1_4  and  C4_6 
REMARK    3  A    between atoms: C6_15  and  N5_16 
REMARK    4  A    between atoms: C7_21  and  N7_22 
REMARK    5  A    between atoms: N10_30  and  C10_31 
REMARK    6  A    between atoms: C10_31  and  C11_32 
REMARK    7  A    between atoms: C11_32  and  O3_34 
ROOT
HETATM    1  C4  UNL     1      39.234  -0.518  13.509  1.00  0.00     0.356 C 
HETATM    2  N2  UNL     1      39.679  -0.161  14.821  1.00  0.00    -0.234 N 
ATOM      3  H2  UNL     1      39.920   0.800  15.063  1.00  0.00     0.194 HD
HETATM    4  O1  UNL     1      39.761  -1.136  15.696  1.00  0.00    -0.143 OA
HETATM    5  N3  UNL     1      38.493  -1.529  15.957  1.00  0.00    -0.070 N 
ATOM      6  H3  UNL     1      38.082  -1.528  16.891  1.00  0.00     0.215 HD
HETATM    7  C5  UNL     1      37.787  -1.950  14.769  1.00  0.00     0.738 A 
HETATM    8  N4  UNL     1      36.788  -2.827  14.883  1.00  0.00    -0.019 N 
ATOM      9  H4  UNL     1      36.517  -3.175  15.803  1.00  0.00     0.203 HD
HETATM   10  C6  UNL     1      36.134  -3.258  13.777  1.00  0.00     0.705 A 
HETATM   11  N6  UNL     1      36.518  -2.780  12.584  1.00  0.00    -0.022 N 
ATOM     12  H6  UNL     1      36.034  -3.097  11.745  1.00  0.00     0.203 HD
HETATM   13  C7  UNL     1      37.522  -1.897  12.465  1.00  0.00     0.710 A 
HETATM   14  N8  UNL     1      38.155  -1.484  13.568  1.00  0.00     0.030 N 
ENDROOT
BRANCH   1  15
HETATM   15  N1  UNL     1      38.896   0.637  12.717  1.00  0.00    -0.334 N 
ATOM     16  H1  UNL     1      39.160   0.571  11.734  1.00  0.00     0.165 HD
BRANCH  15  17
HETATM   17  C3  UNL     1      38.273   1.818  13.067  1.00  0.00     0.133 A 
HETATM   18  C2  UNL     1      38.772   3.064  13.295  1.00  0.00     0.056 A 
HETATM   19  C1  UNL     1      40.167   3.540  13.233  1.00  0.00     0.072 C 
HETATM   20  N10 UNL     1      37.744   3.917  13.622  1.00  0.00    -0.297 N 
HETATM   21  C9  UNL     1      36.616   3.198  13.595  1.00  0.00     0.330 A 
HETATM   22  N9  UNL     1      36.919   1.943  13.265  1.00  0.00    -0.288 N 
HETATM   23  O2  UNL     1      35.486   3.677  13.848  1.00  0.00    -0.246 OA
HETATM   24  C8  UNL     1      35.902   0.898  13.148  1.00  0.00     0.163 C 
BRANCH  20  25
HETATM   25  C10 UNL     1      37.858   5.310  13.936  1.00  0.00     0.165 C 
BRANCH  25  26
HETATM   26  C11 UNL     1      37.808   5.618  15.410  1.00  0.00     0.132 C 
HETATM   27  C12 UNL     1      38.677   6.781  15.793  1.00  0.00     0.041 C 
BRANCH  26  28
HETATM   28  O3  UNL     1      36.493   5.950  15.723  1.00  0.00    -0.394 OA
ATOM     29  H3  UNL     1      36.409   5.923  16.669  1.00  0.00     0.210 HD
ENDBRANCH  26  28
ENDBRANCH  25  26
ENDBRANCH  20  25
ENDBRANCH  15  17
ENDBRANCH   1  15
BRANCH  13  30
HETATM   30  N7  UNL     1      37.853  -1.490  11.264  1.00  0.00    -0.233 N 
ATOM     31  H72 UNL     1      37.482  -0.635  10.849  1.00  0.00     0.174 HD
ATOM     32  H71 UNL     1      38.521  -2.048  10.731  1.00  0.00     0.174 HD
ENDBRANCH  13  30
BRANCH  10  33
HETATM   33  N5  UNL     1      35.179  -4.099  13.905  1.00  0.00    -0.234 N 
ATOM     34  H52 UNL     1      34.205  -3.853  13.726  1.00  0.00     0.174 HD
ATOM     35  H51 UNL     1      35.392  -5.053  14.196  1.00  0.00     0.174 HD
ENDBRANCH  10  33
TORSDOF 7
ENDMDL
MODEL 3
REMARK VINA RESULT: -6.101639851      1.414      2.791
REMARK  7 active torsions:
REMARK  status: ('A' for Active; 'I' for Inactive)
REMARK    1  A    between atoms: C3_3  and  N1_4 
REMARK    2  A    between atoms: N1_4  and  C4_6 
REMARK    3  A    between atoms: C6_15  and  N5_16 
REMARK    4  A    between atoms: C7_21  and  N7_22 
REMARK    5  A    between atoms: N10_30  and  C10_31 
REMARK    6  A    between atoms: C10_31  and  C11_32 
REMARK    7  A    between atoms: C11_32  and  O3_34 
ROOT
HETATM    1  C4  UNL     1      37.793  -0.444  13.238  1.00  0.00     0.356 C 
HETATM    2  N2  UNL     1      38.014  -0.468  14.651  1.00  0.00    -0.234 N 
ATOM      3  H2  UNL     1      38.024   0.386  15.207  1.00  0.00     0.194 HD
HETATM    4  O1  UNL     1      38.204  -1.649  15.192  1.00  0.00    -0.143 OA
HETATM    5  N3  UNL     1      37.025  -2.307  15.110  1.00  0.00    -0.070 N 
ATOM      6  H3  UNL     1      36.526  -2.678  15.919  1.00  0.00     0.215 HD
HETATM    7  C5  UNL     1      36.549  -2.425  13.750  1.00  0.00     0.738 A 
HETATM    8  N4  UNL     1      35.747  -3.441  13.428  1.00  0.00    -0.019 N 
ATOM      9  H4  UNL     1      35.459  -4.110  14.142  1.00  0.00     0.203 HD
HETATM   10  C6  UNL     1      35.316  -3.587  12.151  1.00  0.00     0.705 A 
HETATM   11  N6  UNL     1      35.716  -2.689  11.239  1.00  0.00    -0.022 N 
ATOM     12  H6  UNL     1      35.398  -2.788  10.275  1.00  0.00     0.203 HD
HETATM   13  C7  UNL     1      36.522  -1.664  11.558  1.00  0.00     0.710 A 
HETATM   14  N8  UNL     1      36.936  -1.538  12.824  1.00  0.00     0.030 N 
ENDROOT
BRANCH   1  15
HETATM   15  N1  UNL     1      37.307   0.835  12.786  1.00  0.00    -0.334 N 
ATOM     16  H1  UNL     1      36.479   0.790  12.192  1.00  0.00     0.165 HD
BRANCH  15  17
HETATM   17  C3  UNL     1      37.776   2.112  13.022  1.00  0.00     0.133 A 
HETATM   18  C2  UNL     1      37.134   3.248  13.411  1.00  0.00     0.056 A 
HETATM   19  C1  UNL     1      35.704   3.461  13.706  1.00  0.00     0.072 C 
HETATM   20  N10 UNL     1      38.041   4.276  13.509  1.00  0.00    -0.297 N 
HETATM   21  C9  UNL     1      39.238   3.776  13.182  1.00  0.00     0.330 A 
HETATM   22  N9  UNL     1      39.092   2.483  12.890  1.00  0.00    -0.288 N 
HETATM   23  O2  UNL     1      40.291   4.454  13.170  1.00  0.00    -0.246 OA
HETATM   24  C8  UNL     1      40.219   1.640  12.491  1.00  0.00     0.163 C 
BRANCH  20  25
HETATM   25  C10 UNL     1      37.759   5.629  13.886  1.00  0.00     0.165 C 
BRANCH  25  26
HETATM   26  C11 UNL     1      37.873   5.896  15.365  1.00  0.00     0.132 C 
HETATM   27  C12 UNL     1      38.754   7.070  15.679  1.00  0.00     0.041 C 
BRANCH  26  28
HETATM   28  O3  UNL     1      36.596   6.186  15.837  1.00  0.00    -0.394 OA
ATOM     29  H3  UNL     1      36.227   5.379  16.175  1.00  0.00     0.210 HD
ENDBRANCH  26  28
ENDBRANCH  25  26
ENDBRANCH  20  25
ENDBRANCH  15  17
ENDBRANCH   1  15
BRANCH  13  30
HETATM   30  N7  UNL     1      36.885  -0.839  10.608  1.00  0.00    -0.233 N 
ATOM     31  H72 UNL     1      36.656  -0.993   9.626  1.00  0.00     0.174 HD
ATOM     32  H71 UNL     1      37.406  -0.001  10.867  1.00  0.00     0.174 HD
ENDBRANCH  13  30
BRANCH  10  33
HETATM   33  N5  UNL     1      34.548  -4.567  11.860  1.00  0.00    -0.234 N 
ATOM     34  H52 UNL     1      34.879  -5.531  11.827  1.00  0.00     0.174 HD
ATOM     35  H51 UNL     1      33.566  -4.384  11.651  1.00  0.00     0.174 HD
ENDBRANCH  10  33
TORSDOF 7
ENDMDL
MODEL 4
REMARK VINA RESULT: -6.040497195      2.466      3.223
REMARK  7 active torsions:
REMARK  status: ('A' for Active; 'I' for Inactive)
REMARK    1  A    between atoms: C3_3  and  N1_4 
REMARK    2  A    between atoms: N1_4  and  C4_6 
REMARK    3  A    between atoms: C6_15  and  N5_16 
REMARK    4  A    between atoms: C7_21  and  N7_22 
REMARK    5  A    between atoms: N10_30  and  C10_31 
REMARK    6  A    between atoms: C10_31  and  C11_32 
REMARK    7  A    between atoms: C11_32  and  O3_34 
ROOT
HETATM    1  C4  UNL     1      39.149  -0.977  14.062  1.00  0.00     0.356 C 
HETATM    2  N2  UNL     1      38.867  -1.058  15.462  1.00  0.00    -0.234 N 
ATOM      3  H2  UNL     1      39.122  -0.309  16.105  1.00  0.00     0.194 HD
HETATM    4  O1  UNL     1      38.265  -2.149  15.874  1.00  0.00    -0.143 OA
HETATM    5  N3  UNL     1      37.012  -2.115  15.366  1.00  0.00    -0.070 N 
ATOM      6  H3  UNL     1      36.168  -2.149  15.938  1.00  0.00     0.215 HD
HETATM    7  C5  UNL     1      37.000  -2.024  13.923  1.00  0.00     0.738 A 
HETATM    8  N4  UNL     1      35.951  -2.499  13.250  1.00  0.00    -0.019 N 
ATOM      9  H4  UNL     1      35.161  -2.900  13.755  1.00  0.00     0.203 HD
HETATM   10  C6  UNL     1      35.936  -2.451  11.896  1.00  0.00     0.705 A 
HETATM   11  N6  UNL     1      36.993  -1.918  11.266  1.00  0.00    -0.022 N 
ATOM     12  H6  UNL     1      36.992  -1.876  10.248  1.00  0.00     0.203 HD
HETATM   13  C7  UNL     1      38.051  -1.438  11.939  1.00  0.00     0.710 A 
HETATM   14  N8  UNL     1      38.046  -1.494  13.275  1.00  0.00     0.030 N 
ENDROOT
BRANCH   1  15
HETATM   15  N1  UNL     1      39.533   0.353  13.661  1.00  0.00    -0.334 N 
ATOM     16  H1  UNL     1      40.109   0.395  12.821  1.00  0.00     0.165 HD
BRANCH  15  17
HETATM   17  C3  UNL     1      39.249   1.581  14.225  1.00  0.00     0.133 A 
HETATM   18  C2  UNL     1      39.937   2.337  15.125  1.00  0.00     0.056 A 
HETATM   19  C1  UNL     1      41.230   2.065  15.782  1.00  0.00     0.072 C 
HETATM   20  N10 UNL     1      39.238   3.492  15.383  1.00  0.00    -0.297 N 
HETATM   21  C9  UNL     1      38.122   3.447  14.646  1.00  0.00     0.330 A 
HETATM   22  N9  UNL     1      38.118   2.310  13.950  1.00  0.00    -0.288 N 
HETATM   23  O2  UNL     1      37.256   4.352  14.647  1.00  0.00    -0.246 OA
HETATM   24  C8  UNL     1      37.029   1.954  13.041  1.00  0.00     0.163 C 
BRANCH  20  25
HETATM   25  C10 UNL     1      39.626   4.543  16.276  1.00  0.00     0.165 C 
BRANCH  25  26
HETATM   26  C11 UNL     1      39.077   4.403  17.672  1.00  0.00     0.132 C 
HETATM   27  C12 UNL     1      39.895   5.135  18.696  1.00  0.00     0.041 C 
BRANCH  26  28
HETATM   28  O3  UNL     1      37.800   4.958  17.675  1.00  0.00    -0.394 OA
ATOM     29  H3  UNL     1      37.783   5.630  18.347  1.00  0.00     0.210 HD
ENDBRANCH  26  28
ENDBRANCH  25  26
ENDBRANCH  20  25
ENDBRANCH  15  17
ENDBRANCH   1  15
BRANCH  13  30
HETATM   30  N7  UNL     1      39.054  -0.950  11.253  1.00  0.00    -0.233 N 
ATOM     31  H72 UNL     1      39.290   0.043  11.251  1.00  0.00     0.174 HD
ATOM     32  H71 UNL     1      39.631  -1.595  10.713  1.00  0.00     0.174 HD
ENDBRANCH  13  30
BRANCH  10  33
HETATM   33  N5  UNL     1      34.921  -2.911  11.267  1.00  0.00    -0.234 N 
ATOM     34  H52 UNL     1      34.397  -3.724  11.593  1.00  0.00     0.174 HD
ATOM     35  H51 UNL     1      34.621  -2.454  10.407  1.00  0.00     0.174 HD
ENDBRANCH  10  33
TORSDOF 7
ENDMDL
MODEL 5
REMARK VINA RESULT: -5.993716237      2.156      2.935
REMARK  7 active torsions:
REMARK  status: ('A' for Active; 'I' for Inactive)
REMARK    1  A    between atoms: C3_3  and  N1_4 
REMARK    2  A    between atoms: N1_4  and  C4_6 
REMARK    3  A    between atoms: C6_15  and  N5_16 
REMARK    4  A    between atoms: C7_21  and  N7_22 
REMARK    5  A    between atoms: N10_30  and  C10_31 
REMARK    6  A    between atoms: C10_31  and  C11_32 
REMARK    7  A    between atoms: C11_32  and  O3_34 
ROOT
HETATM    1  C4  UNL     1      39.178  -0.871  14.027  1.00  0.00     0.356 C 
HETATM    2  N2  UNL     1      38.900  -0.924  15.429  1.00  0.00    -0.234 N 
ATOM      3  H2  UNL     1      39.150  -0.159  16.055  1.00  0.00     0.194 HD
HETATM    4  O1  UNL     1      38.307  -2.010  15.867  1.00  0.00    -0.143 OA
HETATM    5  N3  UNL     1      37.052  -1.997  15.361  1.00  0.00    -0.070 N 
ATOM      6  H3  UNL     1      36.210  -2.025  15.936  1.00  0.00     0.215 HD
HETATM    7  C5  UNL     1      37.036  -1.938  13.917  1.00  0.00     0.738 A 
HETATM    8  N4  UNL     1      35.990  -2.436  13.257  1.00  0.00    -0.019 N 
ATOM      9  H4  UNL     1      35.204  -2.831  13.773  1.00  0.00     0.203 HD
HETATM   10  C6  UNL     1      35.971  -2.418  11.903  1.00  0.00     0.705 A 
HETATM   11  N6  UNL     1      37.022  -1.891  11.259  1.00  0.00    -0.022 N 
ATOM     12  H6  UNL     1      37.019  -1.872  10.239  1.00  0.00     0.203 HD
HETATM   13  C7  UNL     1      38.078  -1.388  11.918  1.00  0.00     0.710 A 
HETATM   14  N8  UNL     1      38.077  -1.415  13.255  1.00  0.00     0.030 N 
ENDROOT
BRANCH   1  15
HETATM   15  N1  UNL     1      39.550   0.453  13.596  1.00  0.00    -0.334 N 
ATOM     16  H1  UNL     1      40.111   0.481  12.745  1.00  0.00     0.165 HD
BRANCH  15  17
HETATM   17  C3  UNL     1      39.273   1.689  14.143  1.00  0.00     0.133 A 
HETATM   18  C2  UNL     1      38.199   2.514  14.002  1.00  0.00     0.056 A 
HETATM   19  C1  UNL     1      36.973   2.329  13.201  1.00  0.00     0.072 C 
HETATM   20  N10 UNL     1      38.390   3.649  14.755  1.00  0.00    -0.297 N 
HETATM   21  C9  UNL     1      39.578   3.523  15.357  1.00  0.00     0.330 A 
HETATM   22  N9  UNL     1      40.114   2.356  14.999  1.00  0.00    -0.288 N 
HETATM   23  O2  UNL     1      40.060   4.390  16.122  1.00  0.00    -0.246 OA
HETATM   24  C8  UNL     1      41.420   1.914  15.489  1.00  0.00     0.163 C 
BRANCH  20  25
HETATM   25  C10 UNL     1      37.491   4.758  14.869  1.00  0.00     0.165 C 
BRANCH  25  26
HETATM   26  C11 UNL     1      37.729   5.854  13.862  1.00  0.00     0.132 C 
HETATM   27  C12 UNL     1      36.684   6.930  13.914  1.00  0.00     0.041 C 
BRANCH  26  28
HETATM   28  O3  UNL     1      38.955   6.439  14.164  1.00  0.00    -0.394 OA
ATOM     29  H3  UNL     1      38.965   7.302  13.765  1.00  0.00     0.210 HD
ENDBRANCH  26  28
ENDBRANCH  25  26
ENDBRANCH  20  25
ENDBRANCH  15  17
ENDBRANCH   1  15
BRANCH  13  30
HETATM   30  N7  UNL     1      39.076  -0.907  11.219  1.00  0.00    -0.233 N 
ATOM     31  H72 UNL     1      39.038  -0.798  10.205  1.00  0.00     0.174 HD
ATOM     32  H71 UNL     1      39.919  -0.617  11.715  1.00  0.00     0.174 HD
ENDBRANCH  13  30
BRANCH  10  33
HETATM   33  N5  UNL     1      34.958  -2.900  11.286  1.00  0.00    -0.234 N 
ATOM     34  H52 UNL     1      34.470  -3.737  11.606  1.00  0.00     0.174 HD
ATOM     35  H51 UNL     1      34.623  -2.436  10.443  1.00  0.00     0.174 HD
ENDBRANCH  10  33
TORSDOF 7
ENDMDL
