MODEL 1
REMARK VINA RESULT: -7.657918887      0.000      0.000
REMARK  11 active torsions:
REMARK  status: ('A' for Active; 'I' for Inactive)
REMARK    1  A    between atoms: C1_4  and  N2_5 
REMARK    2  A    between atoms: C1_4  and  C12_19 
REMARK    3  A    between atoms: N2_5  and  C2_7 
REMARK    4  A    between atoms: C2_7  and  C3_8 
REMARK    5  A    between atoms: C2_7  and  C4_10 
REMARK    6  A    between atoms: C4_10  and  C5_11 
REMARK    7  A    between atoms: C5_11  and  C6_12 
REMARK    8  A    between atoms: C6_12  and  C7_13 
REMARK    9  A    between atoms: C7_13  and  N3_14 
REMARK   10  A    between atoms: C15_23  and  O1_24 
REMARK   11  A    between atoms: C17_28  and  O2_29 
ROOT
HETATM    1  N1  UNL     1      16.325 -12.576  18.481  1.00  0.00    -0.385 N 
ATOM      2  H11 UNL     1      15.486 -12.899  18.000  1.00  0.00     0.157 HD
ATOM      3  H12 UNL     1      17.196 -12.349  18.001  1.00  0.00     0.157 HD
HETATM    4  C1  UNL     1      16.318 -12.434  19.784  1.00  0.00     0.108 C 
ENDROOT
BRANCH   4   5
HETATM    5  N2  UNL     1      17.486 -11.985  20.454  1.00  0.00    -0.369 N 
ATOM      6  H2  UNL     1      17.550 -11.001  20.716  1.00  0.00     0.161 HD
BRANCH   5   7
HETATM    7  C2  UNL     1      18.587 -12.861  20.780  1.00  0.00     0.111 C 
BRANCH   7   8
HETATM    8  C3  UNL     1      19.614 -12.923  19.650  1.00  0.00     0.247 C 
HETATM    9  F1  UNL     1      20.860 -12.730  20.174  1.00  0.00    -0.253 F 
ENDBRANCH   7   8
BRANCH   7  10
HETATM   10  C4  UNL     1      18.130 -14.268  21.082  1.00  0.00     0.028 C 
BRANCH  10  11
HETATM   11  C5  UNL     1      18.354 -14.572  22.510  1.00  0.00     0.004 C 
BRANCH  11  12
HETATM   12  C6  UNL     1      19.541 -15.437  22.802  1.00  0.00     0.030 C 
BRANCH  12  13
HETATM   13  C7  UNL     1      20.784 -14.685  23.144  1.00  0.00     0.272 C 
BRANCH  13  14
HETATM   14  N3  UNL     1      21.449 -15.120  24.327  1.00  0.00     0.088 N 
HETATM   15  C8  UNL     1      20.467 -15.735  25.200  1.00  0.00     0.272 C 
HETATM   16  C9  UNL     1      20.086 -14.730  26.233  1.00  0.00     0.032 C 
HETATM   17  C10 UNL     1      20.946 -13.514  25.949  1.00  0.00     0.032 C 
HETATM   18  C11 UNL     1      22.048 -14.107  25.114  1.00  0.00     0.272 C 
ENDBRANCH  13  14
ENDBRANCH  12  13
ENDBRANCH  11  12
ENDBRANCH  10  11
ENDBRANCH   7  10
ENDBRANCH   5   7
ENDBRANCH   4   5
BRANCH   4  19
HETATM   19  C12 UNL     1      15.066 -12.759  20.475  1.00  0.00     0.043 A 
HETATM   20  C13 UNL     1      14.674 -14.063  20.660  1.00  0.00     0.040 A 
HETATM   21  C14 UNL     1      13.508 -14.430  21.301  1.00  0.00     0.046 A 
HETATM   22 BR1  UNL     1      13.126 -16.284  21.466  1.00  0.00    -0.048 Br
HETATM   23  C15 UNL     1      12.707 -13.434  21.774  1.00  0.00     0.103 A 
HETATM   24  C16 UNL     1      13.083 -12.123  21.599  1.00  0.00     0.079 A 
HETATM   25 BR2  UNL     1      11.919 -10.752  22.285  1.00  0.00    -0.045 Br
HETATM   26  C17 UNL     1      14.250 -11.761  20.957  1.00  0.00     0.099 A 
BRANCH  23  27
HETATM   27  O1  UNL     1      11.529 -13.784  22.423  1.00  0.00    -0.358 OA
ATOM     28  H1  UNL     1      11.550 -13.905  23.365  1.00  0.00     0.217 HD
ENDBRANCH  23  27
BRANCH  26  29
HETATM   29  O2  UNL     1      14.547 -10.426  20.826  1.00  0.00    -0.358 OA
ATOM     30  H2  UNL     1      13.957  -9.804  20.415  1.00  0.00     0.217 HD
ENDBRANCH  26  29
ENDBRANCH   4  19
TORSDOF 11
ENDMDL
MODEL 2
REMARK VINA RESULT: -7.531412000      1.023      2.114
REMARK  11 active torsions:
REMARK  status: ('A' for Active; 'I' for Inactive)
REMARK    1  A    between atoms: C1_4  and  N2_5 
REMARK    2  A    between atoms: C1_4  and  C12_19 
REMARK    3  A    between atoms: N2_5  and  C2_7 
REMARK    4  A    between atoms: C2_7  and  C3_8 
REMARK    5  A    between atoms: C2_7  and  C4_10 
REMARK    6  A    between atoms: C4_10  and  C5_11 
REMARK    7  A    between atoms: C5_11  and  C6_12 
REMARK    8  A    between atoms: C6_12  and  C7_13 
REMARK    9  A    between atoms: C7_13  and  N3_14 
REMARK   10  A    between atoms: C15_23  and  O1_24 
REMARK   11  A    between atoms: C17_28  and  O2_29 
ROOT
HETATM    1  N1  UNL     1      16.262 -12.440  18.682  1.00  0.00    -0.385 N 
ATOM      2  H11 UNL     1      15.423 -12.732  18.179  1.00  0.00     0.157 HD
ATOM      3  H12 UNL     1      17.138 -12.197  18.218  1.00  0.00     0.157 HD
HETATM    4  C1  UNL     1      16.248 -12.366  19.990  1.00  0.00     0.108 C 
ENDROOT
BRANCH   4   5
HETATM    5  N2  UNL     1      17.415 -11.961  20.688  1.00  0.00    -0.369 N 
ATOM      6  H2  UNL     1      17.479 -10.997  21.014  1.00  0.00     0.161 HD
BRANCH   5   7
HETATM    7  C2  UNL     1      18.516 -12.856  20.957  1.00  0.00     0.111 C 
BRANCH   7   8
HETATM    8  C3  UNL     1      19.561 -12.818  19.842  1.00  0.00     0.247 C 
HETATM    9  F1  UNL     1      20.310 -13.959  19.899  1.00  0.00    -0.253 F 
ENDBRANCH   7   8
BRANCH   7  10
HETATM   10  C4  UNL     1      18.063 -14.286  21.133  1.00  0.00     0.028 C 
BRANCH  10  11
HETATM   11  C5  UNL     1      18.153 -14.669  22.557  1.00  0.00     0.004 C 
BRANCH  11  12
HETATM   12  C6  UNL     1      19.353 -15.485  22.926  1.00  0.00     0.030 C 
BRANCH  12  13
HETATM   13  C7  UNL     1      20.581 -14.685  23.211  1.00  0.00     0.272 C 
BRANCH  13  14
HETATM   14  N3  UNL     1      21.335 -15.115  24.341  1.00  0.00     0.088 N 
HETATM   15  C8  UNL     1      20.418 -15.686  25.308  1.00  0.00     0.272 C 
HETATM   16  C9  UNL     1      20.153 -14.652  26.349  1.00  0.00     0.032 C 
HETATM   17  C10 UNL     1      21.016 -13.466  25.966  1.00  0.00     0.032 C 
HETATM   18  C11 UNL     1      22.025 -14.104  25.052  1.00  0.00     0.272 C 
ENDBRANCH  13  14
ENDBRANCH  12  13
ENDBRANCH  11  12
ENDBRANCH  10  11
ENDBRANCH   7  10
ENDBRANCH   5   7
ENDBRANCH   4   5
BRANCH   4  19
HETATM   19  C12 UNL     1      14.990 -12.716  20.656  1.00  0.00     0.043 A 
HETATM   20  C13 UNL     1      14.274 -11.778  21.360  1.00  0.00     0.040 A 
HETATM   21  C14 UNL     1      13.085 -12.047  22.007  1.00  0.00     0.046 A 
HETATM   22 BR1  UNL     1      12.230 -10.625  22.933  1.00  0.00    -0.048 Br
HETATM   23  C15 UNL     1      12.602 -13.319  21.938  1.00  0.00     0.103 A 
HETATM   24  C16 UNL     1      13.305 -14.272  21.238  1.00  0.00     0.079 A 
HETATM   25 BR2  UNL     1      12.583 -16.055  21.169  1.00  0.00    -0.045 Br
HETATM   26  C17 UNL     1      14.493 -13.998  20.593  1.00  0.00     0.099 A 
BRANCH  23  27
HETATM   27  O1  UNL     1      11.405 -13.610  22.583  1.00  0.00    -0.358 OA
ATOM     28  H1  UNL     1      11.010 -14.462  22.440  1.00  0.00     0.217 HD
ENDBRANCH  23  27
BRANCH  26  29
HETATM   29  O2  UNL     1      15.129 -15.012  19.917  1.00  0.00    -0.358 OA
ATOM     30  H2  UNL     1      14.776 -15.891  19.855  1.00  0.00     0.217 HD
ENDBRANCH  26  29
ENDBRANCH   4  19
TORSDOF 11
ENDMDL
MODEL 3
REMARK VINA RESULT: -7.433770829      0.974      1.067
REMARK  11 active torsions:
REMARK  status: ('A' for Active; 'I' for Inactive)
REMARK    1  A    between atoms: C1_4  and  N2_5 
REMARK    2  A    between atoms: C1_4  and  C12_19 
REMARK    3  A    between atoms: N2_5  and  C2_7 
REMARK    4  A    between atoms: C2_7  and  C3_8 
REMARK    5  A    between atoms: C2_7  and  C4_10 
REMARK    6  A    between atoms: C4_10  and  C5_11 
REMARK    7  A    between atoms: C5_11  and  C6_12 
REMARK    8  A    between atoms: C6_12  and  C7_13 
REMARK    9  A    between atoms: C7_13  and  N3_14 
REMARK   10  A    between atoms: C15_23  and  O1_24 
REMARK   11  A    between atoms: C17_28  and  O2_29 
ROOT
HETATM    1  N1  UNL     1      16.540 -12.348  18.565  1.00  0.00    -0.385 N 
ATOM      2  H11 UNL     1      15.817 -12.782  17.989  1.00  0.00     0.157 HD
ATOM      3  H12 UNL     1      17.299 -11.784  18.182  1.00  0.00     0.157 HD
HETATM    4  C1  UNL     1      16.522 -12.506  19.866  1.00  0.00     0.108 C 
ENDROOT
BRANCH   4   5
HETATM    5  N2  UNL     1      17.526 -11.903  20.666  1.00  0.00    -0.369 N 
ATOM      6  H2  UNL     1      17.383 -10.946  20.990  1.00  0.00     0.161 HD
BRANCH   5   7
HETATM    7  C2  UNL     1      18.743 -12.585  21.041  1.00  0.00     0.111 C 
BRANCH   7   8
HETATM    8  C3  UNL     1      19.538 -13.038  19.817  1.00  0.00     0.247 C 
HETATM    9  F1  UNL     1      20.807 -12.541  19.905  1.00  0.00    -0.253 F 
ENDBRANCH   7   8
BRANCH   7  10
HETATM   10  C4  UNL     1      18.478 -13.793  21.907  1.00  0.00     0.028 C 
BRANCH  10  11
HETATM   11  C5  UNL     1      19.239 -14.953  21.399  1.00  0.00     0.004 C 
BRANCH  11  12
HETATM   12  C6  UNL     1      20.157 -15.600  22.389  1.00  0.00     0.030 C 
BRANCH  12  13
HETATM   13  C7  UNL     1      21.054 -14.651  23.112  1.00  0.00     0.272 C 
BRANCH  13  14
HETATM   14  N3  UNL     1      21.565 -15.128  24.354  1.00  0.00     0.088 N 
HETATM   15  C8  UNL     1      20.479 -15.757  25.081  1.00  0.00     0.272 C 
HETATM   16  C9  UNL     1      19.980 -14.779  26.089  1.00  0.00     0.032 C 
HETATM   17  C10 UNL     1      20.878 -13.565  25.950  1.00  0.00     0.032 C 
HETATM   18  C11 UNL     1      22.070 -14.145  25.239  1.00  0.00     0.272 C 
ENDBRANCH  13  14
ENDBRANCH  12  13
ENDBRANCH  11  12
ENDBRANCH  10  11
ENDBRANCH   7  10
ENDBRANCH   5   7
ENDBRANCH   4   5
BRANCH   4  19
HETATM   19  C12 UNL     1      15.431 -13.317  20.416  1.00  0.00     0.043 A 
HETATM   20  C13 UNL     1      15.390 -14.677  20.224  1.00  0.00     0.040 A 
HETATM   21  C14 UNL     1      14.391 -15.492  20.716  1.00  0.00     0.046 A 
HETATM   22 BR1  UNL     1      14.497 -17.354  20.352  1.00  0.00    -0.048 Br
HETATM   23  C15 UNL     1      13.392 -14.904  21.432  1.00  0.00     0.103 A 
HETATM   24  C16 UNL     1      13.416 -13.544  21.634  1.00  0.00     0.079 A 
HETATM   25 BR2  UNL     1      11.983 -12.759  22.653  1.00  0.00    -0.045 Br
HETATM   26  C17 UNL     1      14.417 -12.733  21.141  1.00  0.00     0.099 A 
BRANCH  23  27
HETATM   27  O1  UNL     1      12.376 -15.708  21.936  1.00  0.00    -0.358 OA
ATOM     28  H1  UNL     1      11.518 -15.660  21.531  1.00  0.00     0.217 HD
ENDBRANCH  23  27
BRANCH  26  29
HETATM   29  O2  UNL     1      14.361 -11.383  21.392  1.00  0.00    -0.358 OA
ATOM     30  H2  UNL     1      13.687 -10.986  21.930  1.00  0.00     0.217 HD
ENDBRANCH  26  29
ENDBRANCH   4  19
TORSDOF 11
ENDMDL
MODEL 4
REMARK VINA RESULT: -7.134603701      2.552      3.039
REMARK  11 active torsions:
REMARK  status: ('A' for Active; 'I' for Inactive)
REMARK    1  A    between atoms: C1_4  and  N2_5 
REMARK    2  A    between atoms: C1_4  and  C12_19 
REMARK    3  A    between atoms: N2_5  and  C2_7 
REMARK    4  A    between atoms: C2_7  and  C3_8 
REMARK    5  A    between atoms: C2_7  and  C4_10 
REMARK    6  A    between atoms: C4_10  and  C5_11 
REMARK    7  A    between atoms: C5_11  and  C6_12 
REMARK    8  A    between atoms: C6_12  and  C7_13 
REMARK    9  A    between atoms: C7_13  and  N3_14 
REMARK   10  A    between atoms: C15_23  and  O1_24 
REMARK   11  A    between atoms: C17_28  and  O2_29 
ROOT
HETATM    1  N1  UNL     1      15.005 -12.144  21.441  1.00  0.00    -0.385 N 
ATOM      2  H11 UNL     1      14.074 -12.553  21.355  1.00  0.00     0.157 HD
ATOM      3  H12 UNL     1      15.266 -11.492  22.181  1.00  0.00     0.157 HD
HETATM    4  C1  UNL     1      15.937 -12.451  20.572  1.00  0.00     0.108 C 
ENDROOT
BRANCH   4   5
HETATM    5  N2  UNL     1      17.231 -11.882  20.693  1.00  0.00    -0.369 N 
ATOM      6  H2  UNL     1      17.346 -10.887  20.500  1.00  0.00     0.161 HD
BRANCH   5   7
HETATM    7  C2  UNL     1      18.392 -12.651  21.076  1.00  0.00     0.111 C 
BRANCH   7   8
HETATM    8  C3  UNL     1      19.239 -13.039  19.865  1.00  0.00     0.247 C 
HETATM    9  F1  UNL     1      20.457 -12.429  19.963  1.00  0.00    -0.253 F 
ENDBRANCH   7   8
BRANCH   7  10
HETATM   10  C4  UNL     1      18.023 -13.912  21.821  1.00  0.00     0.028 C 
BRANCH  10  11
HETATM   11  C5  UNL     1      18.935 -15.008  21.435  1.00  0.00     0.004 C 
BRANCH  11  12
HETATM   12  C6  UNL     1      19.754 -15.583  22.549  1.00  0.00     0.030 C 
BRANCH  12  13
HETATM   13  C7  UNL     1      20.778 -14.651  23.108  1.00  0.00     0.272 C 
BRANCH  13  14
HETATM   14  N3  UNL     1      21.431 -15.106  24.290  1.00  0.00     0.088 N 
HETATM   15  C8  UNL     1      20.440 -15.736  25.141  1.00  0.00     0.272 C 
HETATM   16  C9  UNL     1      20.046 -14.750  26.187  1.00  0.00     0.032 C 
HETATM   17  C10 UNL     1      20.908 -13.529  25.934  1.00  0.00     0.032 C 
HETATM   18  C11 UNL     1      22.020 -14.106  25.101  1.00  0.00     0.272 C 
ENDBRANCH  13  14
ENDBRANCH  12  13
ENDBRANCH  11  12
ENDBRANCH  10  11
ENDBRANCH   7  10
ENDBRANCH   5   7
ENDBRANCH   4   5
BRANCH   4  19
HETATM   19  C12 UNL     1      15.563 -13.389  19.509  1.00  0.00     0.043 A 
HETATM   20  C13 UNL     1      14.958 -14.587  19.799  1.00  0.00     0.040 A 
HETATM   21  C14 UNL     1      14.584 -15.509  18.842  1.00  0.00     0.046 A 
HETATM   22 BR1  UNL     1      13.757 -17.117  19.426  1.00  0.00    -0.048 Br
HETATM   23  C15 UNL     1      14.833 -15.203  17.538  1.00  0.00     0.103 A 
HETATM   24  C16 UNL     1      15.438 -14.007  17.229  1.00  0.00     0.079 A 
HETATM   25 BR2  UNL     1      15.769 -13.619  15.372  1.00  0.00    -0.045 Br
HETATM   26  C17 UNL     1      15.810 -13.089  18.188  1.00  0.00     0.099 A 
BRANCH  23  27
HETATM   27  O1  UNL     1      14.463 -16.119  16.560  1.00  0.00    -0.358 OA
ATOM     28  H1  UNL     1      14.175 -15.788  15.717  1.00  0.00     0.217 HD
ENDBRANCH  23  27
BRANCH  26  29
HETATM   29  O2  UNL     1      16.410 -11.919  17.788  1.00  0.00    -0.358 OA
ATOM     30  H2  UNL     1      16.811 -11.811  16.934  1.00  0.00     0.217 HD
ENDBRANCH  26  29
ENDBRANCH   4  19
TORSDOF 11
ENDMDL
MODEL 5
REMARK VINA RESULT: -7.103761496      3.896      6.994
REMARK  11 active torsions:
REMARK  status: ('A' for Active; 'I' for Inactive)
REMARK    1  A    between atoms: C1_4  and  N2_5 
REMARK    2  A    between atoms: C1_4  and  C12_19 
REMARK    3  A    between atoms: N2_5  and  C2_7 
REMARK    4  A    between atoms: C2_7  and  C3_8 
REMARK    5  A    between atoms: C2_7  and  C4_10 
REMARK    6  A    between atoms: C4_10  and  C5_11 
REMARK    7  A    between atoms: C5_11  and  C6_12 
REMARK    8  A    between atoms: C6_12  and  C7_13 
REMARK    9  A    between atoms: C7_13  and  N3_14 
REMARK   10  A    between atoms: C15_23  and  O1_24 
REMARK   11  A    between atoms: C17_28  and  O2_29 
ROOT
HETATM    1  N1  UNL     1      15.108 -11.200  20.625  1.00  0.00    -0.385 N 
ATOM      2  H11 UNL     1      15.712 -10.732  21.302  1.00  0.00     0.157 HD
ATOM      3  H12 UNL     1      14.213 -10.821  20.316  1.00  0.00     0.157 HD
HETATM    4  C1  UNL     1      15.471 -12.349  20.109  1.00  0.00     0.108 C 
ENDROOT
BRANCH   4   5
HETATM    5  N2  UNL     1      14.631 -12.999  19.169  1.00  0.00    -0.369 N 
ATOM      6  H2  UNL     1      13.867 -12.469  18.749  1.00  0.00     0.161 HD
BRANCH   5   7
HETATM    7  C2  UNL     1      14.810 -14.378  18.780  1.00  0.00     0.111 C 
BRANCH   7   8
HETATM    8  C3  UNL     1      14.949 -14.526  17.266  1.00  0.00     0.247 C 
HETATM    9  F1  UNL     1      14.304 -15.663  16.871  1.00  0.00    -0.253 F 
ENDBRANCH   7   8
BRANCH   7  10
HETATM   10  C4  UNL     1      13.670 -15.255  19.239  1.00  0.00     0.028 C 
BRANCH  10  11
HETATM   11  C5  UNL     1      12.643 -14.432  19.911  1.00  0.00     0.004 C 
BRANCH  11  12
HETATM   12  C6  UNL     1      12.517 -14.646  21.388  1.00  0.00     0.030 C 
BRANCH  12  13
HETATM   13  C7  UNL     1      12.619 -13.400  22.204  1.00  0.00     0.272 C 
BRANCH  13  14
HETATM   14  N3  UNL     1      11.465 -12.564  22.182  1.00  0.00     0.088 N 
HETATM   15  C8  UNL     1      11.851 -11.271  21.651  1.00  0.00     0.272 C 
HETATM   16  C9  UNL     1      12.040 -10.345  22.803  1.00  0.00     0.032 C 
HETATM   17  C10 UNL     1      11.684 -11.156  24.034  1.00  0.00     0.032 C 
HETATM   18  C11 UNL     1      10.879 -12.278  23.438  1.00  0.00     0.272 C 
ENDBRANCH  13  14
ENDBRANCH  12  13
ENDBRANCH  11  12
ENDBRANCH  10  11
ENDBRANCH   7  10
ENDBRANCH   5   7
ENDBRANCH   4   5
BRANCH   4  19
HETATM   19  C12 UNL     1      16.758 -12.893  20.553  1.00  0.00     0.043 A 
HETATM   20  C13 UNL     1      17.908 -12.677  19.833  1.00  0.00     0.040 A 
HETATM   21  C14 UNL     1      19.146 -13.163  20.201  1.00  0.00     0.046 A 
HETATM   22 BR1  UNL     1      20.630 -12.765  19.082  1.00  0.00    -0.048 Br
HETATM   23  C15 UNL     1      19.222 -13.899  21.345  1.00  0.00     0.103 A 
HETATM   24  C16 UNL     1      18.081 -14.125  22.079  1.00  0.00     0.079 A 
HETATM   25 BR2  UNL     1      18.238 -15.169  23.689  1.00  0.00    -0.045 Br
HETATM   26  C17 UNL     1      16.845 -13.637  21.708  1.00  0.00     0.099 A 
BRANCH  23  27
HETATM   27  O1  UNL     1      20.461 -14.397  21.732  1.00  0.00    -0.358 OA
ATOM     28  H1  UNL     1      21.000 -14.826  21.078  1.00  0.00     0.217 HD
ENDBRANCH  23  27
BRANCH  26  29
HETATM   29  O2  UNL     1      15.758 -13.913  22.502  1.00  0.00    -0.358 OA
ATOM     30  H2  UNL     1      15.836 -14.296  23.368  1.00  0.00     0.217 HD
ENDBRANCH  26  29
ENDBRANCH   4  19
TORSDOF 11
ENDMDL
