MODEL 1
REMARK VINA RESULT: -9.180980513      0.000      0.000
REMARK  10 active torsions:
REMARK  status: ('A' for Active; 'I' for Inactive)
REMARK    1  A    between atoms: C6_6  and  N1_7 
REMARK       I    between atoms: N1_7  and  C7_9 
REMARK       I    between atoms: C7_9  and  N2_10 
REMARK       I    between atoms: C7_9  and  N3_17 
REMARK    2  A    between atoms: N2_10  and  C8_12 
REMARK    3  A    between atoms: C8_12  and  C9_13 
REMARK    4  A    between atoms: N3_17  and  C10_19 
REMARK    5  A    between atoms: C10_19  and  C11_20 
REMARK    6  A    between atoms: C11_20  and  C12_21 
REMARK    7  A    between atoms: C12_21  and  C13_22 
REMARK    8  A    between atoms: C13_22  and  C14_23 
REMARK    9  A    between atoms: C14_23  and  N4_24 
REMARK   10  A    between atoms: N4_24  and  C15_26 
ROOT
HETATM    1  N1  UNL     1      17.794 -15.642  22.533  1.00  0.00    -0.222 N 
ATOM      2  H1  UNL     1      17.077 -16.368  22.523  1.00  0.00     0.178 HD
HETATM    3  C7  UNL     1      17.704 -14.654  21.525  1.00  0.00     0.670 C 
HETATM    4  N2  UNL     1      18.738 -14.009  21.200  1.00  0.00    -0.218 N 
ATOM      5  H2  UNL     1      19.590 -14.256  21.704  1.00  0.00     0.178 HD
HETATM    6  N3  UNL     1      16.447 -14.409  20.905  1.00  0.00    -0.227 N 
ATOM      7  H3  UNL     1      16.256 -13.477  20.538  1.00  0.00     0.177 HD
ENDROOT
BRANCH   1   8
HETATM    8  C6  UNL     1      18.780 -15.732  23.563  1.00  0.00     0.099 C 
HETATM    9  C5  UNL     1      19.988 -14.945  23.231  1.00  0.00     0.026 C 
HETATM   10  C4  UNL     1      20.479 -14.055  24.352  1.00  0.00     0.011 C 
HETATM   11  C2  UNL     1      20.474 -14.854  25.636  1.00  0.00    -0.048 C 
HETATM   12  C1  UNL     1      21.401 -16.031  25.582  1.00  0.00     0.015 C 
HETATM   13  C3  UNL     1      21.017 -13.915  26.721  1.00  0.00     0.015 C 
HETATM   14  C18 UNL     1      19.095 -15.268  26.012  1.00  0.00     0.011 C 
HETATM   15  C17 UNL     1      18.131 -15.346  24.864  1.00  0.00     0.026 C 
ENDBRANCH   1   8
BRANCH   4  16
HETATM   16  C8  UNL     1      18.874 -12.987  20.227  1.00  0.00     0.255 C 
BRANCH  16  17
HETATM   17  C9  UNL     1      20.191 -13.001  19.489  1.00  0.00     0.403 C 
HETATM   18  F1  UNL     1      20.074 -12.682  18.170  1.00  0.00    -0.169 F 
HETATM   19  F2  UNL     1      20.701 -14.289  19.563  1.00  0.00    -0.169 F 
HETATM   20  F3  UNL     1      21.107 -12.162  20.074  1.00  0.00    -0.169 F 
ENDBRANCH  16  17
ENDBRANCH   4  16
BRANCH   6  21
HETATM   21  C10 UNL     1      15.427 -15.430  20.776  1.00  0.00     0.138 C 
BRANCH  21  22
HETATM   22  C11 UNL     1      15.101 -15.742  19.349  1.00  0.00     0.020 C 
BRANCH  22  23
HETATM   23  C12 UNL     1      13.929 -14.916  18.899  1.00  0.00     0.003 C 
BRANCH  23  24
HETATM   24  C13 UNL     1      12.841 -14.983  19.922  1.00  0.00     0.020 C 
BRANCH  24  25
HETATM   25  C14 UNL     1      12.396 -13.632  20.430  1.00  0.00     0.121 C 
BRANCH  25  26
HETATM   26  N4  UNL     1      11.881 -13.850  21.791  1.00  0.00    -0.369 N 
ATOM     27  H4  UNL     1      11.695 -14.784  22.157  1.00  0.00     0.161 HD
BRANCH  26  28
HETATM   28  C15 UNL     1      11.675 -12.765  22.506  1.00  0.00     0.161 A 
HETATM   29  N5  UNL     1      10.733 -12.571  23.439  1.00  0.00    -0.279 N 
HETATM   30  N6  UNL     1      10.690 -11.447  24.030  1.00  0.00    -0.286 N 
ATOM     31  H5  UNL     1      10.067 -13.308  23.669  1.00  0.00     0.189 HD
HETATM   32  C16 UNL     1      11.558 -10.497  23.724  1.00  0.00     0.139 A 
ATOM     33  H6  UNL     1       9.982 -11.276  24.745  1.00  0.00     0.188 HD
HETATM   34 BR1  UNL     1      11.710  -8.722  24.459  1.00  0.00    -0.021 Br
HETATM   35  S1  UNL     1      12.491 -11.265  22.518  1.00  0.00    -0.026 SA
ENDBRANCH  26  28
ENDBRANCH  25  26
ENDBRANCH  24  25
ENDBRANCH  23  24
ENDBRANCH  22  23
ENDBRANCH  21  22
ENDBRANCH   6  21
TORSDOF 10
ENDMDL
MODEL 2
REMARK VINA RESULT: -9.166551840      1.550      1.898
REMARK  10 active torsions:
REMARK  status: ('A' for Active; 'I' for Inactive)
REMARK    1  A    between atoms: C6_6  and  N1_7 
REMARK       I    between atoms: N1_7  and  C7_9 
REMARK       I    between atoms: C7_9  and  N2_10 
REMARK       I    between atoms: C7_9  and  N3_17 
REMARK    2  A    between atoms: N2_10  and  C8_12 
REMARK    3  A    between atoms: C8_12  and  C9_13 
REMARK    4  A    between atoms: N3_17  and  C10_19 
REMARK    5  A    between atoms: C10_19  and  C11_20 
REMARK    6  A    between atoms: C11_20  and  C12_21 
REMARK    7  A    between atoms: C12_21  and  C13_22 
REMARK    8  A    between atoms: C13_22  and  C14_23 
REMARK    9  A    between atoms: C14_23  and  N4_24 
REMARK   10  A    between atoms: N4_24  and  C15_26 
ROOT
HETATM    1  N1  UNL     1      17.566 -16.419  22.826  1.00  0.00    -0.222 N 
ATOM      2  H1  UNL     1      17.340 -17.387  22.598  1.00  0.00     0.178 HD
HETATM    3  C7  UNL     1      16.758 -15.425  22.226  1.00  0.00     0.670 C 
HETATM    4  N2  UNL     1      17.213 -14.255  22.099  1.00  0.00    -0.218 N 
ATOM      5  H2  UNL     1      18.160 -14.109  22.448  1.00  0.00     0.178 HD
HETATM    6  N3  UNL     1      15.450 -15.768  21.786  1.00  0.00    -0.227 N 
ATOM      7  H3  UNL     1      14.732 -15.043  21.772  1.00  0.00     0.177 HD
ENDROOT
BRANCH   1   8
HETATM    8  C6  UNL     1      18.665 -16.213  23.717  1.00  0.00     0.099 C 
HETATM    9  C5  UNL     1      19.665 -15.285  23.143  1.00  0.00     0.026 C 
HETATM   10  C4  UNL     1      20.113 -14.191  24.086  1.00  0.00     0.011 C 
HETATM   11  C2  UNL     1      20.399 -14.810  25.437  1.00  0.00    -0.048 C 
HETATM   12  C1  UNL     1      21.511 -15.815  25.382  1.00  0.00     0.015 C 
HETATM   13  C3  UNL     1      20.885 -13.663  26.333  1.00  0.00     0.015 C 
HETATM   14  C18 UNL     1      19.171 -15.395  26.038  1.00  0.00     0.011 C 
HETATM   15  C17 UNL     1      18.111 -15.777  25.046  1.00  0.00     0.026 C 
ENDBRANCH   1   8
BRANCH   4  16
HETATM   16  C8  UNL     1      16.584 -13.118  21.534  1.00  0.00     0.255 C 
BRANCH  16  17
HETATM   17  C9  UNL     1      16.818 -12.947  20.053  1.00  0.00     0.403 C 
HETATM   18  F1  UNL     1      18.136 -12.978  19.708  1.00  0.00    -0.169 F 
HETATM   19  F2  UNL     1      16.322 -11.704  19.688  1.00  0.00    -0.169 F 
HETATM   20  F3  UNL     1      16.142 -13.891  19.322  1.00  0.00    -0.169 F 
ENDBRANCH  16  17
ENDBRANCH   4  16
BRANCH   6  21
HETATM   21  C10 UNL     1      15.095 -17.107  21.357  1.00  0.00     0.138 C 
BRANCH  21  22
HETATM   22  C11 UNL     1      13.955 -17.118  20.387  1.00  0.00     0.020 C 
BRANCH  22  23
HETATM   23  C12 UNL     1      12.844 -16.242  20.893  1.00  0.00     0.003 C 
BRANCH  23  24
HETATM   24  C13 UNL     1      12.562 -15.160  19.901  1.00  0.00     0.020 C 
BRANCH  24  25
HETATM   25  C14 UNL     1      12.487 -13.779  20.508  1.00  0.00     0.121 C 
BRANCH  25  26
HETATM   26  N4  UNL     1      11.875 -13.942  21.836  1.00  0.00    -0.369 N 
ATOM     27  H4  UNL     1      11.617 -14.858  22.205  1.00  0.00     0.161 HD
BRANCH  26  28
HETATM   28  C15 UNL     1      11.681 -12.834  22.517  1.00  0.00     0.161 A 
HETATM   29  N5  UNL     1      10.722 -12.591  23.420  1.00  0.00    -0.279 N 
HETATM   30  N6  UNL     1      10.696 -11.450  23.981  1.00  0.00    -0.286 N 
ATOM     31  H5  UNL     1      10.031 -13.303  23.653  1.00  0.00     0.189 HD
HETATM   32  C16 UNL     1      11.596 -10.533  23.673  1.00  0.00     0.139 A 
ATOM     33  H6  UNL     1       9.975 -11.242  24.673  1.00  0.00     0.188 HD
HETATM   34 BR1  UNL     1      11.778  -8.744  24.366  1.00  0.00    -0.021 Br
HETATM   35  S1  UNL     1      12.537 -11.357  22.511  1.00  0.00    -0.026 SA
ENDBRANCH  26  28
ENDBRANCH  25  26
ENDBRANCH  24  25
ENDBRANCH  23  24
ENDBRANCH  22  23
ENDBRANCH  21  22
ENDBRANCH   6  21
TORSDOF 10
ENDMDL
MODEL 3
REMARK VINA RESULT: -8.832010222      1.371      1.885
REMARK  10 active torsions:
REMARK  status: ('A' for Active; 'I' for Inactive)
REMARK    1  A    between atoms: C6_6  and  N1_7 
REMARK       I    between atoms: N1_7  and  C7_9 
REMARK       I    between atoms: C7_9  and  N2_10 
REMARK       I    between atoms: C7_9  and  N3_17 
REMARK    2  A    between atoms: N2_10  and  C8_12 
REMARK    3  A    between atoms: C8_12  and  C9_13 
REMARK    4  A    between atoms: N3_17  and  C10_19 
REMARK    5  A    between atoms: C10_19  and  C11_20 
REMARK    6  A    between atoms: C11_20  and  C12_21 
REMARK    7  A    between atoms: C12_21  and  C13_22 
REMARK    8  A    between atoms: C13_22  and  C14_23 
REMARK    9  A    between atoms: C14_23  and  N4_24 
REMARK   10  A    between atoms: N4_24  and  C15_26 
ROOT
HETATM    1  N1  UNL     1      17.083 -14.536  22.371  1.00  0.00    -0.222 N 
ATOM      2  H1  UNL     1      16.091 -14.724  22.515  1.00  0.00     0.178 HD
HETATM    3  C7  UNL     1      17.402 -13.512  21.449  1.00  0.00     0.670 C 
HETATM    4  N2  UNL     1      18.537 -13.509  20.900  1.00  0.00    -0.218 N 
ATOM      5  H2  UNL     1      19.161 -14.270  21.169  1.00  0.00     0.178 HD
HETATM    6  N3  UNL     1      16.436 -12.507  21.169  1.00  0.00    -0.227 N 
ATOM      7  H3  UNL     1      16.760 -11.580  20.891  1.00  0.00     0.177 HD
ENDROOT
BRANCH   1   8
HETATM    8  C6  UNL     1      18.000 -15.334  23.122  1.00  0.00     0.099 C 
HETATM    9  C5  UNL     1      18.101 -14.875  24.525  1.00  0.00     0.026 C 
HETATM   10  C4  UNL     1      17.997 -15.981  25.552  1.00  0.00     0.011 C 
HETATM   11  C2  UNL     1      18.874 -17.131  25.108  1.00  0.00    -0.048 C 
HETATM   12  C1  UNL     1      20.322 -16.749  25.030  1.00  0.00     0.015 C 
HETATM   13  C3  UNL     1      18.758 -18.199  26.204  1.00  0.00     0.015 C 
HETATM   14  C18 UNL     1      18.399 -17.713  23.824  1.00  0.00     0.011 C 
HETATM   15  C17 UNL     1      17.594 -16.775  22.973  1.00  0.00     0.026 C 
ENDBRANCH   1   8
BRANCH   4  16
HETATM   16  C8  UNL     1      19.062 -12.589  19.958  1.00  0.00     0.255 C 
BRANCH  16  17
HETATM   17  C9  UNL     1      20.430 -12.950  19.431  1.00  0.00     0.403 C 
HETATM   18  F1  UNL     1      20.563 -12.747  18.090  1.00  0.00    -0.169 F 
HETATM   19  F2  UNL     1      20.630 -14.302  19.669  1.00  0.00    -0.169 F 
HETATM   20  F3  UNL     1      21.422 -12.265  20.089  1.00  0.00    -0.169 F 
ENDBRANCH  16  17
ENDBRANCH   4  16
BRANCH   6  21
HETATM   21  C10 UNL     1      15.009 -12.745  21.263  1.00  0.00     0.138 C 
BRANCH  21  22
HETATM   22  C11 UNL     1      14.336 -12.755  19.926  1.00  0.00     0.020 C 
BRANCH  22  23
HETATM   23  C12 UNL     1      13.247 -13.790  19.908  1.00  0.00     0.003 C 
BRANCH  23  24
HETATM   24  C13 UNL     1      13.482 -14.790  20.994  1.00  0.00     0.020 C 
BRANCH  24  25
HETATM   25  C14 UNL     1      12.458 -14.737  22.104  1.00  0.00     0.121 C 
BRANCH  25  26
HETATM   26  N4  UNL     1      11.488 -13.699  21.724  1.00  0.00    -0.369 N 
ATOM     27  H4  UNL     1      10.898 -13.785  20.896  1.00  0.00     0.161 HD
BRANCH  26  28
HETATM   28  C15 UNL     1      11.428 -12.653  22.518  1.00  0.00     0.161 A 
HETATM   29  N5  UNL     1      10.863 -12.582  23.731  1.00  0.00    -0.279 N 
HETATM   30  N6  UNL     1      10.906 -11.476  24.355  1.00  0.00    -0.286 N 
ATOM     31  H5  UNL     1      10.409 -13.397  24.144  1.00  0.00     0.189 HD
HETATM   32  C16 UNL     1      11.497 -10.425  23.812  1.00  0.00     0.139 A 
ATOM     33  H6  UNL     1      10.483 -11.399  25.281  1.00  0.00     0.188 HD
HETATM   34 BR1  UNL     1      11.699  -8.650  24.535  1.00  0.00    -0.021 Br
HETATM   35  S1  UNL     1      12.021 -11.064  22.318  1.00  0.00    -0.026 SA
ENDBRANCH  26  28
ENDBRANCH  25  26
ENDBRANCH  24  25
ENDBRANCH  23  24
ENDBRANCH  22  23
ENDBRANCH  21  22
ENDBRANCH   6  21
TORSDOF 10
ENDMDL
MODEL 4
REMARK VINA RESULT: -8.735821752      2.995      3.538
REMARK  10 active torsions:
REMARK  status: ('A' for Active; 'I' for Inactive)
REMARK    1  A    between atoms: C6_6  and  N1_7 
REMARK       I    between atoms: N1_7  and  C7_9 
REMARK       I    between atoms: C7_9  and  N2_10 
REMARK       I    between atoms: C7_9  and  N3_17 
REMARK    2  A    between atoms: N2_10  and  C8_12 
REMARK    3  A    between atoms: C8_12  and  C9_13 
REMARK    4  A    between atoms: N3_17  and  C10_19 
REMARK    5  A    between atoms: C10_19  and  C11_20 
REMARK    6  A    between atoms: C11_20  and  C12_21 
REMARK    7  A    between atoms: C12_21  and  C13_22 
REMARK    8  A    between atoms: C13_22  and  C14_23 
REMARK    9  A    between atoms: C14_23  and  N4_24 
REMARK   10  A    between atoms: N4_24  and  C15_26 
ROOT
HETATM    1  N1  UNL     1      17.707 -14.536  22.168  1.00  0.00    -0.222 N 
ATOM      2  H1  UNL     1      17.657 -13.518  22.139  1.00  0.00     0.178 HD
HETATM    3  C7  UNL     1      16.831 -15.235  21.305  1.00  0.00     0.670 C 
HETATM    4  N2  UNL     1      16.521 -16.428  21.576  1.00  0.00    -0.218 N 
ATOM      5  H2  UNL     1      16.938 -16.811  22.425  1.00  0.00     0.178 HD
HETATM    6  N3  UNL     1      16.326 -14.578  20.150  1.00  0.00    -0.227 N 
ATOM      7  H3  UNL     1      16.084 -15.139  19.333  1.00  0.00     0.177 HD
ENDROOT
BRANCH   1   8
HETATM    8  C6  UNL     1      18.656 -15.103  23.074  1.00  0.00     0.099 C 
HETATM    9  C5  UNL     1      20.028 -14.621  22.800  1.00  0.00     0.026 C 
HETATM   10  C4  UNL     1      20.780 -14.151  24.025  1.00  0.00     0.011 C 
HETATM   11  C2  UNL     1      20.584 -15.168  25.127  1.00  0.00    -0.048 C 
HETATM   12  C1  UNL     1      21.139 -16.514  24.769  1.00  0.00     0.015 C 
HETATM   13  C3  UNL     1      21.399 -14.659  26.323  1.00  0.00     0.015 C 
HETATM   14  C18 UNL     1      19.155 -15.263  25.531  1.00  0.00     0.011 C 
HETATM   15  C17 UNL     1      18.178 -14.836  24.475  1.00  0.00     0.026 C 
ENDBRANCH   1   8
BRANCH   4  16
HETATM   16  C8  UNL     1      15.670 -17.305  20.858  1.00  0.00     0.255 C 
BRANCH  16  17
HETATM   17  C9  UNL     1      14.627 -17.993  21.706  1.00  0.00     0.403 C 
HETATM   18  F1  UNL     1      14.934 -18.007  23.034  1.00  0.00    -0.169 F 
HETATM   19  F2  UNL     1      14.543 -19.311  21.285  1.00  0.00    -0.169 F 
HETATM   20  F3  UNL     1      13.388 -17.427  21.539  1.00  0.00    -0.169 F 
ENDBRANCH  16  17
ENDBRANCH   4  16
BRANCH   6  21
HETATM   21  C10 UNL     1      16.140 -13.141  20.086  1.00  0.00     0.138 C 
BRANCH  21  22
HETATM   22  C11 UNL     1      14.697 -12.744  20.119  1.00  0.00     0.020 C 
BRANCH  22  23
HETATM   23  C12 UNL     1      13.892 -13.668  19.251  1.00  0.00     0.003 C 
BRANCH  23  24
HETATM   24  C13 UNL     1      12.762 -14.247  20.041  1.00  0.00     0.020 C 
BRANCH  24  25
HETATM   25  C14 UNL     1      12.954 -14.157  21.537  1.00  0.00     0.121 C 
BRANCH  25  26
HETATM   26  N4  UNL     1      11.637 -13.828  22.104  1.00  0.00    -0.369 N 
ATOM     27  H4  UNL     1      10.829 -14.440  21.989  1.00  0.00     0.161 HD
BRANCH  26  28
HETATM   28  C15 UNL     1      11.568 -12.696  22.770  1.00  0.00     0.161 A 
HETATM   29  N5  UNL     1      10.804 -12.423  23.836  1.00  0.00    -0.279 N 
HETATM   30  N6  UNL     1      10.874 -11.263  24.350  1.00  0.00    -0.286 N 
ATOM     31  H5  UNL     1      10.182 -13.130  24.227  1.00  0.00     0.189 HD
HETATM   32  C16 UNL     1      11.683 -10.352  23.836  1.00  0.00     0.139 A 
ATOM     33  H6  UNL     1      10.303 -11.033  25.163  1.00  0.00     0.188 HD
HETATM   34 BR1  UNL     1      11.976  -8.537  24.413  1.00  0.00    -0.021 Br
HETATM   35  S1  UNL     1      12.386 -11.215  22.540  1.00  0.00    -0.026 SA
ENDBRANCH  26  28
ENDBRANCH  25  26
ENDBRANCH  24  25
ENDBRANCH  23  24
ENDBRANCH  22  23
ENDBRANCH  21  22
ENDBRANCH   6  21
TORSDOF 10
ENDMDL
MODEL 5
REMARK VINA RESULT: -8.706560996      2.537      3.246
REMARK  10 active torsions:
REMARK  status: ('A' for Active; 'I' for Inactive)
REMARK    1  A    between atoms: C6_6  and  N1_7 
REMARK       I    between atoms: N1_7  and  C7_9 
REMARK       I    between atoms: C7_9  and  N2_10 
REMARK       I    between atoms: C7_9  and  N3_17 
REMARK    2  A    between atoms: N2_10  and  C8_12 
REMARK    3  A    between atoms: C8_12  and  C9_13 
REMARK    4  A    between atoms: N3_17  and  C10_19 
REMARK    5  A    between atoms: C10_19  and  C11_20 
REMARK    6  A    between atoms: C11_20  and  C12_21 
REMARK    7  A    between atoms: C12_21  and  C13_22 
REMARK    8  A    between atoms: C13_22  and  C14_23 
REMARK    9  A    between atoms: C14_23  and  N4_24 
REMARK   10  A    between atoms: N4_24  and  C15_26 
ROOT
HETATM    1  N1  UNL     1      17.415 -16.267  22.986  1.00  0.00    -0.222 N 
ATOM      2  H1  UNL     1      16.634 -15.635  23.161  1.00  0.00     0.178 HD
HETATM    3  C7  UNL     1      17.248 -17.200  21.936  1.00  0.00     0.670 C 
HETATM    4  N2  UNL     1      17.936 -18.257  21.935  1.00  0.00    -0.218 N 
ATOM      5  H2  UNL     1      18.582 -18.365  22.718  1.00  0.00     0.178 HD
HETATM    6  N3  UNL     1      16.312 -16.919  20.903  1.00  0.00    -0.227 N 
ATOM      7  H3  UNL     1      16.478 -17.305  19.973  1.00  0.00     0.177 HD
ENDROOT
BRANCH   1   8
HETATM    8  C6  UNL     1      18.560 -16.116  23.829  1.00  0.00     0.099 C 
HETATM    9  C5  UNL     1      19.523 -15.142  23.269  1.00  0.00     0.026 C 
HETATM   10  C4  UNL     1      20.017 -14.114  24.263  1.00  0.00     0.011 C 
HETATM   11  C2  UNL     1      20.380 -14.825  25.548  1.00  0.00    -0.048 C 
HETATM   12  C1  UNL     1      21.491 -15.815  25.361  1.00  0.00     0.015 C 
HETATM   13  C3  UNL     1      20.910 -13.742  26.497  1.00  0.00     0.015 C 
HETATM   14  C18 UNL     1      19.189 -15.462  26.171  1.00  0.00     0.011 C 
HETATM   15  C17 UNL     1      18.078 -15.781  25.214  1.00  0.00     0.026 C 
ENDBRANCH   1   8
BRANCH   4  16
HETATM   16  C8  UNL     1      17.931 -19.315  20.992  1.00  0.00     0.255 C 
BRANCH  16  17
HETATM   17  C9  UNL     1      19.301 -19.850  20.650  1.00  0.00     0.403 C 
HETATM   18  F1  UNL     1      20.286 -18.914  20.748  1.00  0.00    -0.169 F 
HETATM   19  F2  UNL     1      19.267 -20.283  19.333  1.00  0.00    -0.169 F 
HETATM   20  F3  UNL     1      19.630 -20.931  21.430  1.00  0.00    -0.169 F 
ENDBRANCH  16  17
ENDBRANCH   4  16
BRANCH   6  21
HETATM   21  C10 UNL     1      15.131 -16.106  21.118  1.00  0.00     0.138 C 
BRANCH  21  22
HETATM   22  C11 UNL     1      13.928 -16.919  21.479  1.00  0.00     0.020 C 
BRANCH  22  23
HETATM   23  C12 UNL     1      12.678 -16.200  21.059  1.00  0.00     0.003 C 
BRANCH  23  24
HETATM   24  C13 UNL     1      13.028 -15.068  20.148  1.00  0.00     0.020 C 
BRANCH  24  25
HETATM   25  C14 UNL     1      12.356 -13.763  20.508  1.00  0.00     0.121 C 
BRANCH  25  26
HETATM   26  N4  UNL     1      11.846 -13.924  21.879  1.00  0.00    -0.369 N 
ATOM     27  H4  UNL     1      11.644 -14.841  22.278  1.00  0.00     0.161 HD
BRANCH  26  28
HETATM   28  C15 UNL     1      11.666 -12.812  22.556  1.00  0.00     0.161 A 
HETATM   29  N5  UNL     1      10.721 -12.560  23.472  1.00  0.00    -0.279 N 
HETATM   30  N6  UNL     1      10.706 -11.416  24.027  1.00  0.00    -0.286 N 
ATOM     31  H5  UNL     1      10.030 -13.268  23.719  1.00  0.00     0.189 HD
HETATM   32  C16 UNL     1      11.605 -10.503  23.701  1.00  0.00     0.139 A 
ATOM     33  H6  UNL     1       9.996 -11.202  24.728  1.00  0.00     0.188 HD
HETATM   34 BR1  UNL     1      11.803  -8.711  24.381  1.00  0.00    -0.021 Br
HETATM   35  S1  UNL     1      12.526 -11.337  22.530  1.00  0.00    -0.026 SA
ENDBRANCH  26  28
ENDBRANCH  25  26
ENDBRANCH  24  25
ENDBRANCH  23  24
ENDBRANCH  22  23
ENDBRANCH  21  22
ENDBRANCH   6  21
TORSDOF 10
ENDMDL
