MODEL 1
REMARK VINA RESULT: -7.671627986      0.000      0.000
REMARK  13 active torsions:
REMARK  status: ('A' for Active; 'I' for Inactive)
REMARK    1  A    between atoms: C2_2  and  C3_3 
REMARK    2  A    between atoms: C4_4  and  C5_5 
REMARK    3  A    between atoms: C5_5  and  N1_6 
REMARK    4  A    between atoms: N1_6  and  C6_7 
REMARK    5  A    between atoms: N1_6  and  C8_11 
REMARK    6  A    between atoms: C6_7  and  C7_8 
REMARK    7  A    between atoms: C7_8  and  O1_9 
REMARK    8  A    between atoms: C8_11  and  C9_12 
REMARK    9  A    between atoms: C9_12  and  O2_13 
REMARK   10  A    between atoms: C9_12  and  C10_15 
REMARK   11  A    between atoms: C14_19  and  O3_20 
REMARK   12  A    between atoms: C18_25  and  C20_27 
REMARK   13  A    between atoms: C20_27  and  C22_31 
ROOT
HETATM    1  C10 UNL     1      14.753 -13.639  19.628  1.00  0.00     0.037 C 
HETATM    2  C11 UNL     1      14.850 -13.599  18.149  1.00  0.00     0.024 C 
HETATM    3  C12 UNL     1      14.722 -14.938  17.460  1.00  0.00     0.012 C 
HETATM    4  C13 UNL     1      15.249 -14.648  16.068  1.00  0.00     0.037 C 
HETATM    5  C14 UNL     1      16.044 -13.358  16.142  1.00  0.00     0.147 C 
HETATM    6  C15 UNL     1      16.120 -13.024  17.599  1.00  0.00    -0.051 C 
HETATM    7  C16 UNL     1      16.986 -12.421  18.360  1.00  0.00    -0.020 C 
HETATM    8  C17 UNL     1      16.806 -12.249  19.826  1.00  0.00     0.042 C 
HETATM    9  C18 UNL     1      15.975 -13.398  20.421  1.00  0.00    -0.001 C 
HETATM   10  C19 UNL     1      15.527 -12.758  21.775  1.00  0.00     0.021 C 
ENDROOT
BRANCH   1  11
HETATM   11  C9  UNL     1      13.546 -12.780  20.041  1.00  0.00     0.142 C 
BRANCH  11  12
HETATM   12  C8  UNL     1      12.367 -13.683  20.243  1.00  0.00     0.160 C 
BRANCH  12  13
HETATM   13  N1  UNL     1      12.269 -14.209  21.581  1.00  0.00    -0.358 N 
BRANCH  13  14
HETATM   14  C5  UNL     1      12.707 -15.515  21.783  1.00  0.00     0.155 C 
BRANCH  14  15
HETATM   15  C4  UNL     1      12.291 -16.449  20.739  1.00  0.00    -0.061 C 
HETATM   16  C3  UNL     1      11.972 -17.229  19.853  1.00  0.00    -0.101 C 
BRANCH  16  17
HETATM   17  C2  UNL     1      11.597 -18.140  18.784  1.00  0.00     0.090 C 
HETATM   18  C1  UNL     1      12.195 -17.669  17.487  1.00  0.00     0.018 C 
ENDBRANCH  16  17
ENDBRANCH  14  15
ENDBRANCH  13  14
BRANCH  13  19
HETATM   19  C6  UNL     1      12.373 -13.202  22.533  1.00  0.00     0.089 C 
BRANCH  19  20
HETATM   20  C7  UNL     1      11.225 -12.282  22.768  1.00  0.00     0.208 C 
BRANCH  20  21
HETATM   21  O1  UNL     1      10.225 -13.086  23.391  1.00  0.00    -0.396 OA
ATOM     22  H1  UNL     1       9.719 -13.452  22.676  1.00  0.00     0.209 HD
ENDBRANCH  20  21
ENDBRANCH  19  20
ENDBRANCH  13  19
ENDBRANCH  12  13
ENDBRANCH  11  12
BRANCH  11  23
HETATM   23  O2  UNL     1      13.309 -11.911  18.983  1.00  0.00    -0.393 OA
ATOM     24  H2  UNL     1      14.035 -11.934  18.371  1.00  0.00     0.210 HD
ENDBRANCH  11  23
ENDBRANCH   1  11
BRANCH   9  25
HETATM   25  C20 UNL     1      16.782 -14.550  20.863  1.00  0.00     0.032 C 
HETATM   26  C21 UNL     1      16.442 -15.838  20.710  1.00  0.00     0.275 C 
HETATM   27  F1  UNL     1      15.371 -16.370  20.162  1.00  0.00    -0.172 F 
HETATM   28  F2  UNL     1      17.345 -16.760  21.221  1.00  0.00    -0.172 F 
BRANCH  25  29
HETATM   29  C22 UNL     1      18.130 -14.431  21.459  1.00  0.00     0.018 A 
HETATM   30  C23 UNL     1      19.261 -14.262  20.747  1.00  0.00     0.018 A 
HETATM   31  C24 UNL     1      20.523 -14.188  21.358  1.00  0.00     0.046 A 
HETATM   32  C25 UNL     1      20.647 -14.284  22.705  1.00  0.00     0.158 A 
HETATM   33  F3  UNL     1      21.848 -14.221  23.354  1.00  0.00    -0.203 F 
HETATM   34  C26 UNL     1      19.525 -14.454  23.461  1.00  0.00     0.194 A 
HETATM   35  F4  UNL     1      19.596 -14.554  24.808  1.00  0.00    -0.200 F 
HETATM   36  C27 UNL     1      18.278 -14.526  22.849  1.00  0.00     0.169 A 
HETATM   37  F5  UNL     1      17.233 -14.678  23.694  1.00  0.00    -0.202 F 
ENDBRANCH  25  29
ENDBRANCH   9  25
BRANCH   5  38
HETATM   38  O3  UNL     1      15.448 -12.331  15.437  1.00  0.00    -0.391 OA
ATOM     39  H3  UNL     1      16.079 -11.808  14.957  1.00  0.00     0.210 HD
ENDBRANCH   5  38
TORSDOF 13
ENDMDL
MODEL 2
REMARK VINA RESULT: -7.665236942      1.328      3.228
REMARK  13 active torsions:
REMARK  status: ('A' for Active; 'I' for Inactive)
REMARK    1  A    between atoms: C2_2  and  C3_3 
REMARK    2  A    between atoms: C4_4  and  C5_5 
REMARK    3  A    between atoms: C5_5  and  N1_6 
REMARK    4  A    between atoms: N1_6  and  C6_7 
REMARK    5  A    between atoms: N1_6  and  C8_11 
REMARK    6  A    between atoms: C6_7  and  C7_8 
REMARK    7  A    between atoms: C7_8  and  O1_9 
REMARK    8  A    between atoms: C8_11  and  C9_12 
REMARK    9  A    between atoms: C9_12  and  O2_13 
REMARK   10  A    between atoms: C9_12  and  C10_15 
REMARK   11  A    between atoms: C14_19  and  O3_20 
REMARK   12  A    between atoms: C18_25  and  C20_27 
REMARK   13  A    between atoms: C20_27  and  C22_31 
ROOT
HETATM    1  C10 UNL     1      14.776 -13.514  19.558  1.00  0.00     0.037 C 
HETATM    2  C11 UNL     1      14.908 -13.470  18.082  1.00  0.00     0.024 C 
HETATM    3  C12 UNL     1      14.759 -14.803  17.384  1.00  0.00     0.012 C 
HETATM    4  C13 UNL     1      15.324 -14.521  16.004  1.00  0.00     0.037 C 
HETATM    5  C14 UNL     1      16.153 -13.254  16.103  1.00  0.00     0.147 C 
HETATM    6  C15 UNL     1      16.204 -12.928  17.563  1.00  0.00    -0.051 C 
HETATM    7  C16 UNL     1      17.070 -12.352  18.346  1.00  0.00    -0.020 C 
HETATM    8  C17 UNL     1      16.861 -12.182  19.808  1.00  0.00     0.042 C 
HETATM    9  C18 UNL     1      15.987 -13.310  20.379  1.00  0.00    -0.001 C 
HETATM   10  C19 UNL     1      15.525 -12.664  21.725  1.00  0.00     0.021 C 
ENDROOT
BRANCH   1  11
HETATM   11  C9  UNL     1      13.584 -12.625  19.948  1.00  0.00     0.142 C 
BRANCH  11  12
HETATM   12  C8  UNL     1      12.423 -13.509  20.290  1.00  0.00     0.160 C 
BRANCH  12  13
HETATM   13  N1  UNL     1      12.320 -13.802  21.697  1.00  0.00    -0.358 N 
BRANCH  13  14
HETATM   14  C5  UNL     1      11.413 -13.048  22.437  1.00  0.00     0.155 C 
BRANCH  14  15
HETATM   15  C4  UNL     1      11.912 -11.729  22.821  1.00  0.00    -0.061 C 
HETATM   16  C3  UNL     1      12.304 -10.622  23.163  1.00  0.00    -0.101 C 
BRANCH  16  17
HETATM   17  C2  UNL     1      12.751  -9.298  23.563  1.00  0.00     0.090 C 
HETATM   18  C1  UNL     1      11.704  -8.652  24.429  1.00  0.00     0.018 C 
ENDBRANCH  16  17
ENDBRANCH  14  15
ENDBRANCH  13  14
BRANCH  13  19
HETATM   19  C6  UNL     1      12.620 -15.132  21.964  1.00  0.00     0.089 C 
BRANCH  19  20
HETATM   20  C7  UNL     1      12.348 -16.175  20.936  1.00  0.00     0.208 C 
BRANCH  20  21
HETATM   21  O1  UNL     1      12.838 -17.390  21.500  1.00  0.00    -0.396 OA
ATOM     22  H1  UNL     1      12.138 -18.020  21.379  1.00  0.00     0.209 HD
ENDBRANCH  20  21
ENDBRANCH  19  20
ENDBRANCH  13  19
ENDBRANCH  12  13
ENDBRANCH  11  12
BRANCH  11  23
HETATM   23  O2  UNL     1      13.289 -11.858  18.827  1.00  0.00    -0.393 OA
ATOM     24  H2  UNL     1      13.946 -11.996  18.154  1.00  0.00     0.210 HD
ENDBRANCH  11  23
ENDBRANCH   1  11
BRANCH   9  25
HETATM   25  C20 UNL     1      16.751 -14.486  20.833  1.00  0.00     0.032 C 
HETATM   26  C21 UNL     1      16.374 -15.763  20.678  1.00  0.00     0.275 C 
HETATM   27  F1  UNL     1      15.295 -16.263  20.116  1.00  0.00    -0.172 F 
HETATM   28  F2  UNL     1      17.242 -16.711  21.202  1.00  0.00    -0.172 F 
BRANCH  25  29
HETATM   29  C22 UNL     1      18.095 -14.407  21.447  1.00  0.00     0.018 A 
HETATM   30  C23 UNL     1      19.238 -14.259  20.750  1.00  0.00     0.018 A 
HETATM   31  C24 UNL     1      20.494 -14.223  21.377  1.00  0.00     0.046 A 
HETATM   32  C25 UNL     1      20.599 -14.337  22.724  1.00  0.00     0.158 A 
HETATM   33  F3  UNL     1      21.793 -14.311  23.389  1.00  0.00    -0.203 F 
HETATM   34  C26 UNL     1      19.464 -14.486  23.465  1.00  0.00     0.194 A 
HETATM   35  F4  UNL     1      19.516 -14.603  24.812  1.00  0.00    -0.200 F 
HETATM   36  C27 UNL     1      18.224 -14.521  22.837  1.00  0.00     0.169 A 
HETATM   37  F5  UNL     1      17.165 -14.656  23.668  1.00  0.00    -0.202 F 
ENDBRANCH  25  29
ENDBRANCH   9  25
BRANCH   5  38
HETATM   38  O3  UNL     1      15.600 -12.208  15.390  1.00  0.00    -0.391 OA
ATOM     39  H3  UNL     1      15.082 -12.508  14.652  1.00  0.00     0.210 HD
ENDBRANCH   5  38
TORSDOF 13
ENDMDL
MODEL 3
REMARK VINA RESULT: -7.590958058      3.126      6.888
REMARK  13 active torsions:
REMARK  status: ('A' for Active; 'I' for Inactive)
REMARK    1  A    between atoms: C2_2  and  C3_3 
REMARK    2  A    between atoms: C4_4  and  C5_5 
REMARK    3  A    between atoms: C5_5  and  N1_6 
REMARK    4  A    between atoms: N1_6  and  C6_7 
REMARK    5  A    between atoms: N1_6  and  C8_11 
REMARK    6  A    between atoms: C6_7  and  C7_8 
REMARK    7  A    between atoms: C7_8  and  O1_9 
REMARK    8  A    between atoms: C8_11  and  C9_12 
REMARK    9  A    between atoms: C9_12  and  O2_13 
REMARK   10  A    between atoms: C9_12  and  C10_15 
REMARK   11  A    between atoms: C14_19  and  O3_20 
REMARK   12  A    between atoms: C18_25  and  C20_27 
REMARK   13  A    between atoms: C20_27  and  C22_31 
ROOT
HETATM    1  C10 UNL     1      14.379 -15.689  20.322  1.00  0.00     0.037 C 
HETATM    2  C11 UNL     1      15.179 -16.404  21.345  1.00  0.00     0.024 C 
HETATM    3  C12 UNL     1      16.676 -16.351  21.143  1.00  0.00     0.012 C 
HETATM    4  C13 UNL     1      17.175 -17.455  22.056  1.00  0.00     0.037 C 
HETATM    5  C14 UNL     1      15.993 -18.353  22.371  1.00  0.00     0.147 C 
HETATM    6  C15 UNL     1      14.882 -17.865  21.495  1.00  0.00    -0.051 C 
HETATM    7  C16 UNL     1      13.860 -18.420  20.913  1.00  0.00    -0.020 C 
HETATM    8  C17 UNL     1      12.904 -17.673  20.053  1.00  0.00     0.042 C 
HETATM    9  C18 UNL     1      13.593 -16.486  19.359  1.00  0.00    -0.001 C 
HETATM   10  C19 UNL     1      12.351 -15.627  18.957  1.00  0.00     0.021 C 
ENDROOT
BRANCH   1  11
HETATM   11  C9  UNL     1      13.582 -14.586  21.038  1.00  0.00     0.142 C 
BRANCH  11  12
HETATM   12  C8  UNL     1      14.512 -13.453  21.350  1.00  0.00     0.160 C 
BRANCH  12  13
HETATM   13  N1  UNL     1      14.438 -12.373  20.399  1.00  0.00    -0.358 N 
BRANCH  13  14
HETATM   14  C5  UNL     1      15.449 -12.296  19.446  1.00  0.00     0.155 C 
BRANCH  14  15
HETATM   15  C4  UNL     1      16.763 -12.708  19.939  1.00  0.00    -0.061 C 
HETATM   16  C3  UNL     1      17.874 -13.045  20.322  1.00  0.00    -0.101 C 
BRANCH  16  17
HETATM   17  C2  UNL     1      19.195 -13.464  20.762  1.00  0.00     0.090 C 
HETATM   18  C1  UNL     1      20.219 -13.063  19.735  1.00  0.00     0.018 C 
ENDBRANCH  16  17
ENDBRANCH  14  15
ENDBRANCH  13  14
BRANCH  13  19
HETATM   19  C6  UNL     1      13.123 -11.989  20.165  1.00  0.00     0.089 C 
BRANCH  19  20
HETATM   20  C7  UNL     1      12.722 -10.566  20.349  1.00  0.00     0.208 C 
BRANCH  20  21
HETATM   21  O1  UNL     1      12.561 -10.051  19.029  1.00  0.00    -0.396 OA
ATOM     22  H1  UNL     1      13.435  -9.806  18.750  1.00  0.00     0.209 HD
ENDBRANCH  20  21
ENDBRANCH  19  20
ENDBRANCH  13  19
ENDBRANCH  12  13
ENDBRANCH  11  12
BRANCH  11  23
HETATM   23  O2  UNL     1      13.106 -15.154  22.214  1.00  0.00    -0.393 OA
ATOM     24  H2  UNL     1      12.748 -16.017  22.040  1.00  0.00     0.210 HD
ENDBRANCH  11  23
ENDBRANCH   1  11
BRANCH   9  25
HETATM   25  C20 UNL     1      14.187 -16.822  18.053  1.00  0.00     0.032 C 
HETATM   26  C21 UNL     1      14.855 -15.970  17.262  1.00  0.00     0.275 C 
HETATM   27  F1  UNL     1      15.134 -14.697  17.439  1.00  0.00    -0.172 F 
HETATM   28  F2  UNL     1      15.312 -16.498  16.064  1.00  0.00    -0.172 F 
BRANCH  25  29
HETATM   29  C22 UNL     1      14.199 -18.187  17.481  1.00  0.00     0.018 A 
HETATM   30  C23 UNL     1      13.226 -18.687  16.696  1.00  0.00     0.018 A 
HETATM   31  C24 UNL     1      13.266 -20.002  16.204  1.00  0.00     0.046 A 
HETATM   32  C25 UNL     1      14.302 -20.822  16.507  1.00  0.00     0.158 A 
HETATM   33  F3  UNL     1      14.395 -22.110  16.059  1.00  0.00    -0.203 F 
HETATM   34  C26 UNL     1      15.308 -20.352  17.297  1.00  0.00     0.194 A 
HETATM   35  F4  UNL     1      16.364 -21.132  17.627  1.00  0.00    -0.200 F 
HETATM   36  C27 UNL     1      15.262 -19.049  17.781  1.00  0.00     0.169 A 
HETATM   37  F5  UNL     1      16.319 -18.681  18.541  1.00  0.00    -0.202 F 
ENDBRANCH  25  29
ENDBRANCH   9  25
BRANCH   5  38
HETATM   38  O3  UNL     1      15.628 -18.293  23.701  1.00  0.00    -0.391 OA
ATOM     39  H3  UNL     1      15.019 -18.982  23.940  1.00  0.00     0.210 HD
ENDBRANCH   5  38
TORSDOF 13
ENDMDL
MODEL 4
REMARK VINA RESULT: -7.561071797      3.340      6.947
REMARK  13 active torsions:
REMARK  status: ('A' for Active; 'I' for Inactive)
REMARK    1  A    between atoms: C2_2  and  C3_3 
REMARK    2  A    between atoms: C4_4  and  C5_5 
REMARK    3  A    between atoms: C5_5  and  N1_6 
REMARK    4  A    between atoms: N1_6  and  C6_7 
REMARK    5  A    between atoms: N1_6  and  C8_11 
REMARK    6  A    between atoms: C6_7  and  C7_8 
REMARK    7  A    between atoms: C7_8  and  O1_9 
REMARK    8  A    between atoms: C8_11  and  C9_12 
REMARK    9  A    between atoms: C9_12  and  O2_13 
REMARK   10  A    between atoms: C9_12  and  C10_15 
REMARK   11  A    between atoms: C14_19  and  O3_20 
REMARK   12  A    between atoms: C18_25  and  C20_27 
REMARK   13  A    between atoms: C20_27  and  C22_31 
ROOT
HETATM    1  C10 UNL     1      14.475 -15.676  20.338  1.00  0.00     0.037 C 
HETATM    2  C11 UNL     1      15.256 -16.383  21.382  1.00  0.00     0.024 C 
HETATM    3  C12 UNL     1      16.757 -16.280  21.242  1.00  0.00     0.012 C 
HETATM    4  C13 UNL     1      17.254 -17.383  22.157  1.00  0.00     0.037 C 
HETATM    5  C14 UNL     1      16.089 -18.323  22.409  1.00  0.00     0.147 C 
HETATM    6  C15 UNL     1      14.999 -17.855  21.496  1.00  0.00    -0.051 C 
HETATM    7  C16 UNL     1      14.019 -18.432  20.864  1.00  0.00    -0.020 C 
HETATM    8  C17 UNL     1      13.076 -17.700  19.978  1.00  0.00     0.042 C 
HETATM    9  C18 UNL     1      13.754 -16.481  19.332  1.00  0.00    -0.001 C 
HETATM   10  C19 UNL     1      12.503 -15.654  18.893  1.00  0.00     0.021 C 
ENDROOT
BRANCH   1  11
HETATM   11  C9  UNL     1      13.615 -14.610  21.038  1.00  0.00     0.142 C 
BRANCH  11  12
HETATM   12  C8  UNL     1      14.490 -13.442  21.379  1.00  0.00     0.160 C 
BRANCH  12  13
HETATM   13  N1  UNL     1      14.410 -12.368  20.421  1.00  0.00    -0.358 N 
BRANCH  13  14
HETATM   14  C5  UNL     1      15.410 -12.304  19.455  1.00  0.00     0.155 C 
BRANCH  14  15
HETATM   15  C4  UNL     1      16.731 -12.697  19.940  1.00  0.00    -0.061 C 
HETATM   16  C3  UNL     1      17.846 -13.033  20.316  1.00  0.00    -0.101 C 
BRANCH  16  17
HETATM   17  C2  UNL     1      19.165 -13.455  20.756  1.00  0.00     0.090 C 
HETATM   18  C1  UNL     1      20.189 -13.066  19.725  1.00  0.00     0.018 C 
ENDBRANCH  16  17
ENDBRANCH  14  15
ENDBRANCH  13  14
BRANCH  13  19
HETATM   19  C6  UNL     1      13.095 -11.978  20.201  1.00  0.00     0.089 C 
BRANCH  19  20
HETATM   20  C7  UNL     1      12.711 -10.546  20.347  1.00  0.00     0.208 C 
BRANCH  20  21
HETATM   21  O1  UNL     1      12.573 -10.060  19.014  1.00  0.00    -0.396 OA
ATOM     22  H1  UNL     1      13.424  -9.701  18.792  1.00  0.00     0.209 HD
ENDBRANCH  20  21
ENDBRANCH  19  20
ENDBRANCH  13  19
ENDBRANCH  12  13
ENDBRANCH  11  12
BRANCH  11  23
HETATM   23  O2  UNL     1      13.134 -15.204  22.199  1.00  0.00    -0.393 OA
ATOM     24  H2  UNL     1      13.689 -15.933  22.450  1.00  0.00     0.210 HD
ENDBRANCH  11  23
ENDBRANCH   1  11
BRANCH   9  25
HETATM   25  C20 UNL     1      14.411 -16.776  18.046  1.00  0.00     0.032 C 
HETATM   26  C21 UNL     1      14.858 -15.860  17.175  1.00  0.00     0.275 C 
HETATM   27  F1  UNL     1      14.829 -14.547  17.241  1.00  0.00    -0.172 F 
HETATM   28  F2  UNL     1      15.427 -16.365  16.015  1.00  0.00    -0.172 F 
BRANCH  25  29
HETATM   29  C22 UNL     1      14.745 -18.143  17.587  1.00  0.00     0.018 A 
HETATM   30  C23 UNL     1      15.924 -18.752  17.817  1.00  0.00     0.018 A 
HETATM   31  C24 UNL     1      16.206 -20.039  17.331  1.00  0.00     0.046 A 
HETATM   32  C25 UNL     1      15.287 -20.721  16.605  1.00  0.00     0.158 A 
HETATM   33  F3  UNL     1      15.506 -21.974  16.105  1.00  0.00    -0.203 F 
HETATM   34  C26 UNL     1      14.080 -20.139  16.352  1.00  0.00     0.194 A 
HETATM   35  F4  UNL     1      13.130 -20.780  15.633  1.00  0.00    -0.200 F 
HETATM   36  C27 UNL     1      13.808 -18.864  16.837  1.00  0.00     0.169 A 
HETATM   37  F5  UNL     1      12.575 -18.390  16.542  1.00  0.00    -0.202 F 
ENDBRANCH  25  29
ENDBRANCH   9  25
BRANCH   5  38
HETATM   38  O3  UNL     1      15.669 -18.297  23.724  1.00  0.00    -0.391 OA
ATOM     39  H3  UNL     1      14.974 -18.922  23.894  1.00  0.00     0.210 HD
ENDBRANCH   5  38
TORSDOF 13
ENDMDL
MODEL 5
REMARK VINA RESULT: -7.545782714      3.299      6.880
REMARK  13 active torsions:
REMARK  status: ('A' for Active; 'I' for Inactive)
REMARK    1  A    between atoms: C2_2  and  C3_3 
REMARK    2  A    between atoms: C4_4  and  C5_5 
REMARK    3  A    between atoms: C5_5  and  N1_6 
REMARK    4  A    between atoms: N1_6  and  C6_7 
REMARK    5  A    between atoms: N1_6  and  C8_11 
REMARK    6  A    between atoms: C6_7  and  C7_8 
REMARK    7  A    between atoms: C7_8  and  O1_9 
REMARK    8  A    between atoms: C8_11  and  C9_12 
REMARK    9  A    between atoms: C9_12  and  O2_13 
REMARK   10  A    between atoms: C9_12  and  C10_15 
REMARK   11  A    between atoms: C14_19  and  O3_20 
REMARK   12  A    between atoms: C18_25  and  C20_27 
REMARK   13  A    between atoms: C20_27  and  C22_31 
ROOT
HETATM    1  C10 UNL     1      15.404 -13.312  20.037  1.00  0.00     0.037 C 
HETATM    2  C11 UNL     1      14.290 -12.874  20.912  1.00  0.00     0.024 C 
HETATM    3  C12 UNL     1      13.788 -13.918  21.883  1.00  0.00     0.012 C 
HETATM    4  C13 UNL     1      12.454 -13.347  22.325  1.00  0.00     0.037 C 
HETATM    5  C14 UNL     1      12.049 -12.298  21.306  1.00  0.00     0.147 C 
HETATM    6  C15 UNL     1      13.055 -12.409  20.204  1.00  0.00    -0.051 C 
HETATM    7  C16 UNL     1      13.033 -12.214  18.918  1.00  0.00    -0.020 C 
HETATM    8  C17 UNL     1      14.212 -12.434  18.039  1.00  0.00     0.042 C 
HETATM    9  C18 UNL     1      15.128 -13.532  18.603  1.00  0.00    -0.001 C 
HETATM   10  C19 UNL     1      16.452 -13.231  17.828  1.00  0.00     0.021 C 
ENDROOT
BRANCH   1  11
HETATM   11  C9  UNL     1      16.609 -12.401  20.321  1.00  0.00     0.142 C 
BRANCH  11  12
HETATM   12  C8  UNL     1      17.320 -12.917  21.535  1.00  0.00     0.160 C 
BRANCH  12  13
HETATM   13  N1  UNL     1      18.681 -13.315  21.277  1.00  0.00    -0.358 N 
BRANCH  13  14
HETATM   14  C5  UNL     1      19.080 -14.559  21.757  1.00  0.00     0.155 C 
BRANCH  14  15
HETATM   15  C4  UNL     1      19.358 -14.581  23.192  1.00  0.00    -0.061 C 
HETATM   16  C3  UNL     1      19.621 -14.588  24.386  1.00  0.00    -0.101 C 
BRANCH  16  17
HETATM   17  C2  UNL     1      19.950 -14.612  25.802  1.00  0.00     0.090 C 
HETATM   18  C1  UNL     1      20.959 -13.539  26.104  1.00  0.00     0.018 C 
ENDBRANCH  16  17
ENDBRANCH  14  15
ENDBRANCH  13  14
BRANCH  13  19
HETATM   19  C6  UNL     1      19.164 -12.747  20.105  1.00  0.00     0.089 C 
BRANCH  19  20
HETATM   20  C7  UNL     1      20.619 -12.818  19.791  1.00  0.00     0.208 C 
BRANCH  20  21
HETATM   21  O1  UNL     1      20.698 -12.720  18.370  1.00  0.00    -0.396 OA
ATOM     22  H1  UNL     1      21.115 -13.525  18.089  1.00  0.00     0.209 HD
ENDBRANCH  20  21
ENDBRANCH  19  20
ENDBRANCH  13  19
ENDBRANCH  12  13
ENDBRANCH  11  12
BRANCH  11  23
HETATM   23  O2  UNL     1      16.088 -11.137  20.572  1.00  0.00    -0.393 OA
ATOM     24  H2  UNL     1      15.147 -11.139  20.442  1.00  0.00     0.210 HD
ENDBRANCH  11  23
ENDBRANCH   1  11
BRANCH   9  25
HETATM   25  C20 UNL     1      14.787 -14.889  18.139  1.00  0.00     0.032 C 
HETATM   26  C21 UNL     1      14.865 -15.318  16.871  1.00  0.00     0.275 C 
HETATM   27  F1  UNL     1      15.243 -14.679  15.785  1.00  0.00    -0.172 F 
HETATM   28  F2  UNL     1      14.474 -16.632  16.658  1.00  0.00    -0.172 F 
BRANCH  25  29
HETATM   29  C22 UNL     1      14.394 -15.993  19.042  1.00  0.00     0.018 A 
HETATM   30  C23 UNL     1      15.259 -16.873  19.583  1.00  0.00     0.018 A 
HETATM   31  C24 UNL     1      14.832 -17.926  20.409  1.00  0.00     0.046 A 
HETATM   32  C25 UNL     1      13.518 -18.094  20.693  1.00  0.00     0.158 A 
HETATM   33  F3  UNL     1      13.044 -19.100  21.487  1.00  0.00    -0.203 F 
HETATM   34  C26 UNL     1      12.611 -17.223  20.165  1.00  0.00     0.194 A 
HETATM   35  F4  UNL     1      11.288 -17.348  20.420  1.00  0.00    -0.200 F 
HETATM   36  C27 UNL     1      13.040 -16.182  19.349  1.00  0.00     0.169 A 
HETATM   37  F5  UNL     1      12.060 -15.369  18.893  1.00  0.00    -0.202 F 
ENDBRANCH  25  29
ENDBRANCH   9  25
BRANCH   5  38
HETATM   38  O3  UNL     1      12.046 -11.023  21.837  1.00  0.00    -0.391 OA
ATOM     39  H3  UNL     1      11.629 -10.988  22.690  1.00  0.00     0.210 HD
ENDBRANCH   5  38
TORSDOF 13
ENDMDL
