MODEL 1
REMARK VINA RESULT: -9.111617048      0.000      0.000
REMARK  10 active torsions:
REMARK  status: ('A' for Active; 'I' for Inactive)
REMARK    1  A    between atoms: C1_2  and  C2_3 
REMARK    2  A    between atoms: C2_3  and  C3_4 
REMARK    3  A    between atoms: C3_4  and  N1_5 
REMARK    4  A    between atoms: N1_5  and  C4_7 
REMARK    5  A    between atoms: N3_11  and  C6_13 
REMARK    6  A    between atoms: C12_22  and  N5_23 
REMARK    7  A    between atoms: N5_23  and  C13_25 
REMARK    8  A    between atoms: C16_28  and  C17_29 
REMARK    9  A    between atoms: C17_29  and  N6_30 
REMARK   10  A    between atoms: N6_30  and  C18_32 
ROOT
HETATM    1  C4  UNL     1      17.386 -15.100  21.641  1.00  0.00     0.710 A 
HETATM    2  N2  UNL     1      18.288 -15.357  22.576  1.00  0.00    -0.021 N 
ATOM      3  H2  UNL     1      18.733 -14.564  23.038  1.00  0.00     0.203 HD
HETATM    4  C5  UNL     1      18.657 -16.589  22.956  1.00  0.00     0.711 A 
HETATM    5  N3  UNL     1      19.520 -16.850  23.875  1.00  0.00    -0.191 N 
ATOM      6  H3  UNL     1      19.726 -17.827  24.087  1.00  0.00     0.184 HD
HETATM    7  N4  UNL     1      18.026 -17.611  22.300  1.00  0.00    -0.021 N 
ATOM      8  H4  UNL     1      18.276 -18.566  22.557  1.00  0.00     0.203 HD
HETATM    9  C12 UNL     1      17.110 -17.448  21.351  1.00  0.00     0.707 A 
HETATM   10  N7  UNL     1      16.792 -16.174  21.023  1.00  0.00    -0.021 N 
ATOM     11  H7  UNL     1      16.093 -16.006  20.298  1.00  0.00     0.203 HD
ENDROOT
BRANCH   9  12
HETATM   12  N5  UNL     1      16.491 -18.369  20.743  1.00  0.00    -0.220 N 
ATOM     13  H5  UNL     1      17.066 -19.005  20.191  1.00  0.00     0.178 HD
BRANCH  12  14
HETATM   14  C13 UNL     1      15.076 -18.632  20.734  1.00  0.00     0.099 C 
HETATM   15  C14 UNL     1      14.515 -18.503  19.346  1.00  0.00     0.026 C 
HETATM   16  C15 UNL     1      14.059 -17.105  19.046  1.00  0.00     0.012 C 
HETATM   17  C16 UNL     1      12.856 -16.825  19.986  1.00  0.00     0.024 C 
HETATM   18  C24 UNL     1      13.405 -16.809  21.359  1.00  0.00     0.012 C 
HETATM   19  C25 UNL     1      14.367 -17.850  21.762  1.00  0.00     0.026 C 
BRANCH  17  20
HETATM   20  C17 UNL     1      12.344 -15.500  19.530  1.00  0.00     0.060 C 
BRANCH  20  21
HETATM   21  N6  UNL     1      13.116 -14.356  19.608  1.00  0.00    -0.397 N 
ATOM     22  H6  UNL     1      14.035 -14.374  19.165  1.00  0.00     0.159 HD
BRANCH  21  23
HETATM   23  C18 UNL     1      12.727 -13.178  20.249  1.00  0.00     0.081 C 
HETATM   24  C19 UNL     1      13.942 -12.231  20.281  1.00  0.00     0.031 C 
HETATM   25  C20 UNL     1      13.780 -11.219  21.357  1.00  0.00     0.081 C 
HETATM   26  C21 UNL     1      12.380 -10.938  21.793  1.00  0.00     0.243 C 
HETATM   27  F3  UNL     1      11.753 -10.196  20.796  1.00  0.00    -0.206 F 
HETATM   28  F4  UNL     1      12.442 -10.098  22.892  1.00  0.00    -0.206 F 
HETATM   29  C22 UNL     1      11.613 -12.167  22.169  1.00  0.00     0.081 C 
HETATM   30  C23 UNL     1      12.388 -13.393  21.732  1.00  0.00     0.031 C 
ENDBRANCH  21  23
ENDBRANCH  20  21
ENDBRANCH  17  20
ENDBRANCH  12  14
ENDBRANCH   9  12
BRANCH   1  31
HETATM   31  N1  UNL     1      17.001 -13.958  21.264  1.00  0.00    -0.204 N 
ATOM     32  H1  UNL     1      15.995 -13.897  21.106  1.00  0.00     0.183 HD
BRANCH  31  33
HETATM   33  C3  UNL     1      17.685 -12.754  21.019  1.00  0.00     0.081 C 
BRANCH  33  34
HETATM   34  C2  UNL     1      18.520 -12.727  19.760  1.00  0.00     0.076 C 
BRANCH  34  35
HETATM   35  C1  UNL     1      19.956 -13.104  20.025  1.00  0.00     0.227 C 
HETATM   36  F1  UNL     1      20.710 -12.814  18.915  1.00  0.00    -0.255 F 
ENDBRANCH  34  35
ENDBRANCH  33  34
ENDBRANCH  31  33
ENDBRANCH   1  31
BRANCH   5  37
HETATM   37  C6  UNL     1      20.183 -15.865  24.589  1.00  0.00     0.052 A 
HETATM   38  C7  UNL     1      19.609 -15.400  25.776  1.00  0.00     0.030 A 
HETATM   39  C8  UNL     1      20.195 -14.419  26.540  1.00  0.00     0.005 A 
HETATM   40  C9  UNL     1      21.376 -13.863  26.153  1.00  0.00     0.042 A 
HETATM   41  C10 UNL     1      21.964 -14.315  24.969  1.00  0.00     0.118 A 
HETATM   42  F2  UNL     1      23.137 -13.770  24.585  1.00  0.00    -0.206 F 
HETATM   43  C11 UNL     1      21.371 -15.302  24.203  1.00  0.00     0.072 A 
ENDBRANCH   5  37
TORSDOF 10
ENDMDL
MODEL 2
REMARK VINA RESULT: -9.007183634      1.603      7.469
REMARK  10 active torsions:
REMARK  status: ('A' for Active; 'I' for Inactive)
REMARK    1  A    between atoms: C1_2  and  C2_3 
REMARK    2  A    between atoms: C2_3  and  C3_4 
REMARK    3  A    between atoms: C3_4  and  N1_5 
REMARK    4  A    between atoms: N1_5  and  C4_7 
REMARK    5  A    between atoms: N3_11  and  C6_13 
REMARK    6  A    between atoms: C12_22  and  N5_23 
REMARK    7  A    between atoms: N5_23  and  C13_25 
REMARK    8  A    between atoms: C16_28  and  C17_29 
REMARK    9  A    between atoms: C17_29  and  N6_30 
REMARK   10  A    between atoms: N6_30  and  C18_32 
ROOT
HETATM    1  C4  UNL     1      16.717 -14.704  21.721  1.00  0.00     0.710 A 
HETATM    2  N2  UNL     1      15.445 -14.346  21.638  1.00  0.00    -0.021 N 
ATOM      3  H2  UNL     1      15.227 -13.351  21.694  1.00  0.00     0.203 HD
HETATM    4  C5  UNL     1      14.424 -15.201  21.486  1.00  0.00     0.711 A 
HETATM    5  N3  UNL     1      13.186 -14.863  21.388  1.00  0.00    -0.191 N 
ATOM      6  H3  UNL     1      12.487 -15.598  21.272  1.00  0.00     0.184 HD
HETATM    7  N4  UNL     1      14.780 -16.522  21.417  1.00  0.00    -0.021 N 
ATOM      8  H4  UNL     1      14.035 -17.208  21.302  1.00  0.00     0.203 HD
HETATM    9  C12 UNL     1      16.028 -16.972  21.490  1.00  0.00     0.707 A 
HETATM   10  N7  UNL     1      17.003 -16.046  21.644  1.00  0.00    -0.021 N 
ATOM     11  H7  UNL     1      17.975 -16.352  21.705  1.00  0.00     0.203 HD
ENDROOT
BRANCH   9  12
HETATM   12  N5  UNL     1      16.392 -18.181  21.406  1.00  0.00    -0.220 N 
ATOM     13  H5  UNL     1      16.556 -18.533  20.462  1.00  0.00     0.178 HD
BRANCH  12  14
HETATM   14  C13 UNL     1      16.604 -19.121  22.474  1.00  0.00     0.099 C 
HETATM   15  C14 UNL     1      15.956 -18.646  23.743  1.00  0.00     0.026 C 
HETATM   16  C15 UNL     1      16.877 -17.798  24.570  1.00  0.00     0.012 C 
HETATM   17  C16 UNL     1      18.028 -18.729  25.038  1.00  0.00     0.024 C 
HETATM   18  C24 UNL     1      18.773 -19.104  23.817  1.00  0.00     0.012 C 
HETATM   19  C25 UNL     1      18.025 -19.488  22.606  1.00  0.00     0.026 C 
BRANCH  17  20
HETATM   20  C17 UNL     1      18.813 -17.882  25.982  1.00  0.00     0.060 C 
BRANCH  20  21
HETATM   21  N6  UNL     1      18.757 -16.501  25.940  1.00  0.00    -0.397 N 
ATOM     22  H6  UNL     1      17.948 -16.047  26.364  1.00  0.00     0.159 HD
BRANCH  21  23
HETATM   23  C18 UNL     1      19.730 -15.685  25.358  1.00  0.00     0.081 C 
HETATM   24  C19 UNL     1      20.952 -16.564  25.031  1.00  0.00     0.031 C 
HETATM   25  C20 UNL     1      22.172 -15.725  24.903  1.00  0.00     0.081 C 
HETATM   26  C21 UNL     1      21.952 -14.288  24.564  1.00  0.00     0.243 C 
HETATM   27  F3  UNL     1      21.577 -14.207  23.226  1.00  0.00    -0.206 F 
HETATM   28  F4  UNL     1      23.176 -13.646  24.642  1.00  0.00    -0.206 F 
HETATM   29  C22 UNL     1      20.988 -13.599  25.480  1.00  0.00     0.081 C 
HETATM   30  C23 UNL     1      20.282 -14.633  26.332  1.00  0.00     0.031 C 
ENDBRANCH  21  23
ENDBRANCH  20  21
ENDBRANCH  17  20
ENDBRANCH  12  14
ENDBRANCH   9  12
BRANCH   1  31
HETATM   31  N1  UNL     1      17.708 -13.931  21.849  1.00  0.00    -0.204 N 
ATOM     32  H1  UNL     1      18.398 -14.260  22.524  1.00  0.00     0.183 HD
BRANCH  31  33
HETATM   33  C3  UNL     1      18.046 -12.707  21.245  1.00  0.00     0.081 C 
BRANCH  33  34
HETATM   34  C2  UNL     1      18.756 -12.814  19.916  1.00  0.00     0.076 C 
BRANCH  34  35
HETATM   35  C1  UNL     1      20.161 -13.339  20.066  1.00  0.00     0.227 C 
HETATM   36  F1  UNL     1      21.035 -12.467  19.465  1.00  0.00    -0.255 F 
ENDBRANCH  34  35
ENDBRANCH  33  34
ENDBRANCH  31  33
ENDBRANCH   1  31
BRANCH   5  37
HETATM   37  C6  UNL     1      12.758 -13.546  21.432  1.00  0.00     0.052 A 
HETATM   38  C7  UNL     1      13.034 -12.717  20.340  1.00  0.00     0.030 A 
HETATM   39  C8  UNL     1      12.654 -11.396  20.307  1.00  0.00     0.005 A 
HETATM   40  C9  UNL     1      11.984 -10.848  21.359  1.00  0.00     0.042 A 
HETATM   41  C10 UNL     1      11.700 -11.663  22.459  1.00  0.00     0.118 A 
HETATM   42  F2  UNL     1      11.030 -11.126  23.500  1.00  0.00    -0.206 F 
HETATM   43  C11 UNL     1      12.084 -12.991  22.488  1.00  0.00     0.072 A 
ENDBRANCH   5  37
TORSDOF 10
ENDMDL
MODEL 3
REMARK VINA RESULT: -8.947573426      1.708      7.223
REMARK  10 active torsions:
REMARK  status: ('A' for Active; 'I' for Inactive)
REMARK    1  A    between atoms: C1_2  and  C2_3 
REMARK    2  A    between atoms: C2_3  and  C3_4 
REMARK    3  A    between atoms: C3_4  and  N1_5 
REMARK    4  A    between atoms: N1_5  and  C4_7 
REMARK    5  A    between atoms: N3_11  and  C6_13 
REMARK    6  A    between atoms: C12_22  and  N5_23 
REMARK    7  A    between atoms: N5_23  and  C13_25 
REMARK    8  A    between atoms: C16_28  and  C17_29 
REMARK    9  A    between atoms: C17_29  and  N6_30 
REMARK   10  A    between atoms: N6_30  and  C18_32 
ROOT
HETATM    1  C4  UNL     1      16.452 -14.513  21.569  1.00  0.00     0.710 A 
HETATM    2  N2  UNL     1      15.186 -14.125  21.596  1.00  0.00    -0.021 N 
ATOM      3  H2  UNL     1      14.991 -13.160  21.862  1.00  0.00     0.203 HD
HETATM    4  C5  UNL     1      14.143 -14.914  21.298  1.00  0.00     0.711 A 
HETATM    5  N3  UNL     1      12.911 -14.542  21.305  1.00  0.00    -0.191 N 
ATOM      6  H3  UNL     1      12.194 -15.225  21.059  1.00  0.00     0.184 HD
HETATM    7  N4  UNL     1      14.469 -16.197  20.949  1.00  0.00    -0.021 N 
ATOM      8  H4  UNL     1      13.707 -16.832  20.715  1.00  0.00     0.203 HD
HETATM    9  C12 UNL     1      15.709 -16.673  20.894  1.00  0.00     0.707 A 
HETATM   10  N7  UNL     1      16.707 -15.815  21.210  1.00  0.00    -0.021 N 
ATOM     11  H7  UNL     1      17.672 -16.143  21.180  1.00  0.00     0.203 HD
ENDROOT
BRANCH   9  12
HETATM   12  N5  UNL     1      16.045 -17.844  20.553  1.00  0.00    -0.220 N 
ATOM     13  H5  UNL     1      16.132 -18.009  19.550  1.00  0.00     0.178 HD
BRANCH  12  14
HETATM   14  C13 UNL     1      16.319 -18.973  21.402  1.00  0.00     0.099 C 
HETATM   15  C14 UNL     1      15.550 -18.875  22.689  1.00  0.00     0.026 C 
HETATM   16  C15 UNL     1      16.313 -18.138  23.752  1.00  0.00     0.012 C 
HETATM   17  C16 UNL     1      17.546 -19.017  24.093  1.00  0.00     0.024 C 
HETATM   18  C24 UNL     1      18.395 -19.018  22.883  1.00  0.00     0.012 C 
HETATM   19  C25 UNL     1      17.766 -19.199  21.562  1.00  0.00     0.026 C 
BRANCH  17  20
HETATM   20  C17 UNL     1      18.168 -18.324  25.260  1.00  0.00     0.060 C 
BRANCH  20  21
HETATM   21  N6  UNL     1      17.998 -16.969  25.477  1.00  0.00    -0.397 N 
ATOM     22  H6  UNL     1      17.044 -16.608  25.493  1.00  0.00     0.159 HD
BRANCH  21  23
HETATM   23  C18 UNL     1      19.041 -16.061  25.675  1.00  0.00     0.081 C 
HETATM   24  C19 UNL     1      18.796 -14.850  24.753  1.00  0.00     0.031 C 
HETATM   25  C20 UNL     1      20.066 -14.114  24.519  1.00  0.00     0.081 C 
HETATM   26  C21 UNL     1      21.128 -14.286  25.554  1.00  0.00     0.243 C 
HETATM   27  F3  UNL     1      20.751 -13.574  26.689  1.00  0.00    -0.206 F 
HETATM   28  F4  UNL     1      22.272 -13.660  25.089  1.00  0.00    -0.206 F 
HETATM   29  C22 UNL     1      21.449 -15.718  25.848  1.00  0.00     0.081 C 
HETATM   30  C23 UNL     1      20.400 -16.607  25.213  1.00  0.00     0.031 C 
ENDBRANCH  21  23
ENDBRANCH  20  21
ENDBRANCH  17  20
ENDBRANCH  12  14
ENDBRANCH   9  12
BRANCH   1  31
HETATM   31  N1  UNL     1      17.461 -13.800  21.828  1.00  0.00    -0.204 N 
ATOM     32  H1  UNL     1      17.702 -13.777  22.818  1.00  0.00     0.183 HD
BRANCH  31  33
HETATM   33  C3  UNL     1      18.318 -13.033  21.019  1.00  0.00     0.081 C 
BRANCH  33  34
HETATM   34  C2  UNL     1      19.660 -13.658  20.719  1.00  0.00     0.076 C 
BRANCH  34  35
HETATM   35  C1  UNL     1      20.286 -13.084  19.473  1.00  0.00     0.227 C 
HETATM   36  F1  UNL     1      21.240 -12.164  19.830  1.00  0.00    -0.255 F 
ENDBRANCH  34  35
ENDBRANCH  33  34
ENDBRANCH  31  33
ENDBRANCH   1  31
BRANCH   5  37
HETATM   37  C6  UNL     1      12.513 -13.256  21.632  1.00  0.00     0.052 A 
HETATM   38  C7  UNL     1      12.619 -12.257  20.659  1.00  0.00     0.030 A 
HETATM   39  C8  UNL     1      12.255 -10.954  20.903  1.00  0.00     0.005 A 
HETATM   40  C9  UNL     1      11.771 -10.593  22.124  1.00  0.00     0.042 A 
HETATM   41  C10 UNL     1      11.659 -11.579  23.108  1.00  0.00     0.118 A 
HETATM   42  F2  UNL     1      11.174 -11.228  24.317  1.00  0.00    -0.206 F 
HETATM   43  C11 UNL     1      12.026 -12.889  22.858  1.00  0.00     0.072 A 
ENDBRANCH   5  37
TORSDOF 10
ENDMDL
MODEL 4
REMARK VINA RESULT: -8.923720854      1.546      7.160
REMARK  10 active torsions:
REMARK  status: ('A' for Active; 'I' for Inactive)
REMARK    1  A    between atoms: C1_2  and  C2_3 
REMARK    2  A    between atoms: C2_3  and  C3_4 
REMARK    3  A    between atoms: C3_4  and  N1_5 
REMARK    4  A    between atoms: N1_5  and  C4_7 
REMARK    5  A    between atoms: N3_11  and  C6_13 
REMARK    6  A    between atoms: C12_22  and  N5_23 
REMARK    7  A    between atoms: N5_23  and  C13_25 
REMARK    8  A    between atoms: C16_28  and  C17_29 
REMARK    9  A    between atoms: C17_29  and  N6_30 
REMARK   10  A    between atoms: N6_30  and  C18_32 
ROOT
HETATM    1  C4  UNL     1      16.381 -14.645  21.398  1.00  0.00     0.710 A 
HETATM    2  N2  UNL     1      15.129 -14.216  21.461  1.00  0.00    -0.021 N 
ATOM      3  H2  UNL     1      14.976 -13.225  21.648  1.00  0.00     0.203 HD
HETATM    4  C5  UNL     1      14.050 -14.994  21.296  1.00  0.00     0.711 A 
HETATM    5  N3  UNL     1      12.831 -14.584  21.339  1.00  0.00    -0.191 N 
ATOM      6  H3  UNL     1      12.083 -15.264  21.198  1.00  0.00     0.184 HD
HETATM    7  N4  UNL     1      14.320 -16.314  21.049  1.00  0.00    -0.021 N 
ATOM      8  H4  UNL     1      13.529 -16.943  20.918  1.00  0.00     0.203 HD
HETATM    9  C12 UNL     1      15.541 -16.832  20.967  1.00  0.00     0.707 A 
HETATM   10  N7  UNL     1      16.579 -15.981  21.146  1.00  0.00    -0.021 N 
ATOM     11  H7  UNL     1      17.532 -16.341  21.091  1.00  0.00     0.203 HD
ENDROOT
BRANCH   9  12
HETATM   12  N5  UNL     1      15.825 -18.040  20.716  1.00  0.00    -0.220 N 
ATOM     13  H5  UNL     1      15.586 -18.369  19.781  1.00  0.00     0.178 HD
BRANCH  12  14
HETATM   14  C13 UNL     1      16.443 -19.006  21.585  1.00  0.00     0.099 C 
HETATM   15  C14 UNL     1      15.682 -19.132  22.874  1.00  0.00     0.026 C 
HETATM   16  C15 UNL     1      16.170 -18.171  23.919  1.00  0.00     0.012 C 
HETATM   17  C16 UNL     1      17.618 -18.605  24.270  1.00  0.00     0.024 C 
HETATM   18  C24 UNL     1      18.425 -18.360  23.055  1.00  0.00     0.012 C 
HETATM   19  C25 UNL     1      17.887 -18.756  21.742  1.00  0.00     0.026 C 
BRANCH  17  20
HETATM   20  C17 UNL     1      17.986 -17.728  25.420  1.00  0.00     0.060 C 
BRANCH  20  21
HETATM   21  N6  UNL     1      17.933 -16.350  25.330  1.00  0.00    -0.397 N 
ATOM     22  H6  UNL     1      17.022 -15.920  25.169  1.00  0.00     0.159 HD
BRANCH  21  23
HETATM   23  C18 UNL     1      19.039 -15.504  25.446  1.00  0.00     0.081 C 
HETATM   24  C19 UNL     1      19.138 -14.674  24.151  1.00  0.00     0.031 C 
HETATM   25  C20 UNL     1      20.520 -14.156  23.975  1.00  0.00     0.081 C 
HETATM   26  C21 UNL     1      21.341 -14.031  25.215  1.00  0.00     0.243 C 
HETATM   27  F3  UNL     1      20.867 -12.945  25.946  1.00  0.00    -0.206 F 
HETATM   28  F4  UNL     1      22.626 -13.686  24.835  1.00  0.00    -0.206 F 
HETATM   29  C22 UNL     1      21.399 -15.291  26.022  1.00  0.00     0.081 C 
HETATM   30  C23 UNL     1      20.369 -16.270  25.496  1.00  0.00     0.031 C 
ENDBRANCH  21  23
ENDBRANCH  20  21
ENDBRANCH  17  20
ENDBRANCH  12  14
ENDBRANCH   9  12
BRANCH   1  31
HETATM   31  N1  UNL     1      17.422 -13.945  21.532  1.00  0.00    -0.204 N 
ATOM     32  H1  UNL     1      18.136 -14.380  22.115  1.00  0.00     0.183 HD
BRANCH  31  33
HETATM   33  C3  UNL     1      17.791 -12.681  21.036  1.00  0.00     0.081 C 
BRANCH  33  34
HETATM   34  C2  UNL     1      18.702 -12.698  19.831  1.00  0.00     0.076 C 
BRANCH  34  35
HETATM   35  C1  UNL     1      20.041 -13.318  20.141  1.00  0.00     0.227 C 
HETATM   36  F1  UNL     1      21.026 -12.607  19.500  1.00  0.00    -0.255 F 
ENDBRANCH  34  35
ENDBRANCH  33  34
ENDBRANCH  31  33
ENDBRANCH   1  31
BRANCH   5  37
HETATM   37  C6  UNL     1      12.487 -13.262  21.568  1.00  0.00     0.052 A 
HETATM   38  C7  UNL     1      12.032 -12.901  22.840  1.00  0.00     0.030 A 
HETATM   39  C8  UNL     1      11.662 -11.613  23.149  1.00  0.00     0.005 A 
HETATM   40  C9  UNL     1      11.731 -10.634  22.205  1.00  0.00     0.042 A 
HETATM   41  C10 UNL     1      12.183 -10.978  20.927  1.00  0.00     0.118 A 
HETATM   42  F2  UNL     1      12.259 -10.009  19.991  1.00  0.00    -0.206 F 
HETATM   43  C11 UNL     1      12.555 -12.274  20.621  1.00  0.00     0.072 A 
ENDBRANCH   5  37
TORSDOF 10
ENDMDL
MODEL 5
REMARK VINA RESULT: -8.797589256      1.670      7.258
REMARK  10 active torsions:
REMARK  status: ('A' for Active; 'I' for Inactive)
REMARK    1  A    between atoms: C1_2  and  C2_3 
REMARK    2  A    between atoms: C2_3  and  C3_4 
REMARK    3  A    between atoms: C3_4  and  N1_5 
REMARK    4  A    between atoms: N1_5  and  C4_7 
REMARK    5  A    between atoms: N3_11  and  C6_13 
REMARK    6  A    between atoms: C12_22  and  N5_23 
REMARK    7  A    between atoms: N5_23  and  C13_25 
REMARK    8  A    between atoms: C16_28  and  C17_29 
REMARK    9  A    between atoms: C17_29  and  N6_30 
REMARK   10  A    between atoms: N6_30  and  C18_32 
ROOT
HETATM    1  C4  UNL     1      16.061 -15.067  21.332  1.00  0.00     0.710 A 
HETATM    2  N2  UNL     1      14.868 -14.516  21.497  1.00  0.00    -0.021 N 
ATOM      3  H2  UNL     1      14.820 -13.500  21.569  1.00  0.00     0.203 HD
HETATM    4  C5  UNL     1      13.720 -15.203  21.576  1.00  0.00     0.711 A 
HETATM    5  N3  UNL     1      12.553 -14.677  21.720  1.00  0.00    -0.191 N 
ATOM      6  H3  UNL     1      11.742 -15.295  21.767  1.00  0.00     0.184 HD
HETATM    7  N4  UNL     1      13.849 -16.563  21.473  1.00  0.00    -0.021 N 
ATOM      8  H4  UNL     1      13.001 -17.125  21.529  1.00  0.00     0.203 HD
HETATM    9  C12 UNL     1      15.003 -17.200  21.306  1.00  0.00     0.707 A 
HETATM   10  N7  UNL     1      16.118 -16.436  21.236  1.00  0.00    -0.021 N 
ATOM     11  H7  UNL     1      17.024 -16.889  21.108  1.00  0.00     0.203 HD
ENDROOT
BRANCH   9  12
HETATM   12  N5  UNL     1      15.155 -18.451  21.183  1.00  0.00    -0.220 N 
ATOM     13  H5  UNL     1      15.009 -18.828  20.246  1.00  0.00     0.178 HD
BRANCH  12  14
HETATM   14  C13 UNL     1      15.507 -19.407  22.199  1.00  0.00     0.099 C 
HETATM   15  C14 UNL     1      15.452 -18.783  23.565  1.00  0.00     0.026 C 
HETATM   16  C15 UNL     1      16.762 -18.170  23.963  1.00  0.00     0.012 C 
HETATM   17  C16 UNL     1      17.770 -19.342  24.104  1.00  0.00     0.024 C 
HETATM   18  C24 UNL     1      17.952 -19.891  22.743  1.00  0.00     0.012 C 
HETATM   19  C25 UNL     1      16.771 -20.097  21.886  1.00  0.00     0.026 C 
BRANCH  17  20
HETATM   20  C17 UNL     1      18.995 -18.697  24.659  1.00  0.00     0.060 C 
BRANCH  20  21
HETATM   21  N6  UNL     1      19.709 -17.754  23.943  1.00  0.00    -0.397 N 
ATOM     22  H6  UNL     1      19.824 -17.908  22.941  1.00  0.00     0.159 HD
BRANCH  21  23
HETATM   23  C18 UNL     1      20.283 -16.606  24.495  1.00  0.00     0.081 C 
HETATM   24  C19 UNL     1      19.476 -16.231  25.753  1.00  0.00     0.031 C 
HETATM   25  C20 UNL     1      19.678 -14.797  26.087  1.00  0.00     0.081 C 
HETATM   26  C21 UNL     1      20.931 -14.170  25.574  1.00  0.00     0.243 C 
HETATM   27  F3  UNL     1      21.999 -14.648  26.328  1.00  0.00    -0.206 F 
HETATM   28  F4  UNL     1      20.866 -12.815  25.848  1.00  0.00    -0.206 F 
HETATM   29  C22 UNL     1      21.132 -14.354  24.102  1.00  0.00     0.081 C 
HETATM   30  C23 UNL     1      20.141 -15.376  23.585  1.00  0.00     0.031 C 
ENDBRANCH  21  23
ENDBRANCH  20  21
ENDBRANCH  17  20
ENDBRANCH  12  14
ENDBRANCH   9  12
BRANCH   1  31
HETATM   31  N1  UNL     1      17.162 -14.457  21.238  1.00  0.00    -0.204 N 
ATOM     32  H1  UNL     1      17.975 -15.073  21.255  1.00  0.00     0.183 HD
BRANCH  31  33
HETATM   33  C3  UNL     1      17.490 -13.094  21.114  1.00  0.00     0.081 C 
BRANCH  33  34
HETATM   34  C2  UNL     1      18.540 -12.771  20.078  1.00  0.00     0.076 C 
BRANCH  34  35
HETATM   35  C1  UNL     1      19.846 -13.469  20.358  1.00  0.00     0.227 C 
HETATM   36  F1  UNL     1      20.867 -12.770  19.763  1.00  0.00    -0.255 F 
ENDBRANCH  34  35
ENDBRANCH  33  34
ENDBRANCH  31  33
ENDBRANCH   1  31
BRANCH   5  37
HETATM   37  C6  UNL     1      12.348 -13.310  21.814  1.00  0.00     0.052 A 
HETATM   38  C7  UNL     1      11.993 -12.772  23.054  1.00  0.00     0.030 A 
HETATM   39  C8  UNL     1      11.763 -11.428  23.232  1.00  0.00     0.005 A 
HETATM   40  C9  UNL     1      11.877 -10.568  22.183  1.00  0.00     0.042 A 
HETATM   41  C10 UNL     1      12.231 -11.089  20.935  1.00  0.00     0.118 A 
HETATM   42  F2  UNL     1      12.352 -10.239  19.895  1.00  0.00    -0.206 F 
HETATM   43  C11 UNL     1      12.462 -12.442  20.761  1.00  0.00     0.072 A 
ENDBRANCH   5  37
TORSDOF 10
ENDMDL
