MODEL 1
REMARK VINA RESULT: -7.013282248      0.000      0.000
REMARK  8 active torsions:
REMARK  status: ('A' for Active; 'I' for Inactive)
REMARK    1  A    between atoms: C2_2  and  C3_3 
REMARK    2  A    between atoms: C3_3  and  C4_4 
REMARK    3  A    between atoms: C4_4  and  C5_5 
REMARK    4  A    between atoms: C7_7  and  N1_8 
REMARK    5  A    between atoms: N1_8  and  C8_10 
REMARK    6  A    between atoms: C8_10  and  C9_11 
REMARK    7  A    between atoms: C12_16  and  N3_17 
REMARK    8  A    between atoms: N3_17  and  C13_19 
ROOT
HETATM    1  C13 UNL     1      34.352  41.705  -6.860  1.00  0.00     0.262 C 
HETATM    2  C14 UNL     1      34.395  42.530  -8.071  1.00  0.00     0.079 C 
HETATM    3  N4  UNL     1      34.422  43.196  -9.034  1.00  0.00    -0.196 NA
ENDROOT
BRANCH   1   4
HETATM    4  N3  UNL     1      34.671  42.519  -5.723  1.00  0.00    -0.214 N 
ATOM      5  H3  UNL     1      34.085  43.329  -5.523  1.00  0.00     0.178 HD
BRANCH   4   6
HETATM    6  C12 UNL     1      35.683  42.267  -4.928  1.00  0.00     0.680 A 
HETATM    7  N2  UNL     1      36.258  41.059  -5.000  1.00  0.00    -0.177 N 
HETATM    8  C7  UNL     1      37.293  40.797  -4.190  1.00  0.00     0.118 A 
ATOM      9  H2  UNL     1      35.915  40.356  -5.655  1.00  0.00     0.185 HD
HETATM   10  C6  UNL     1      37.796  41.706  -3.287  1.00  0.00     0.074 A 
HETATM   11  C5  UNL     1      37.178  42.944  -3.242  1.00  0.00     0.030 A 
HETATM   12  N5  UNL     1      36.157  43.163  -4.060  1.00  0.00    -0.196 N 
ATOM     13  H5  UNL     1      35.705  44.077  -4.023  1.00  0.00     0.184 HD
BRANCH   8  14
HETATM   14  N1  UNL     1      37.847  39.646  -4.250  1.00  0.00    -0.375 N 
ATOM     15  H1  UNL     1      37.526  39.000  -4.972  1.00  0.00     0.161 HD
BRANCH  14  16
HETATM   16  C8  UNL     1      38.899  39.198  -3.364  1.00  0.00     0.126 C 
BRANCH  16  17
HETATM   17  C9  UNL     1      38.334  38.083  -2.521  1.00  0.00     0.003 A 
HETATM   18  C10 UNL     1      37.701  38.365  -1.212  1.00  0.00     0.007 A 
HETATM   19  C11 UNL     1      39.090  37.833  -1.232  1.00  0.00     0.007 A 
ENDBRANCH  16  17
ENDBRANCH  14  16
ENDBRANCH   8  14
BRANCH  11  20
HETATM   20  C4  UNL     1      37.705  43.937  -2.278  1.00  0.00     0.058 C 
BRANCH  20  21
HETATM   21  C3  UNL     1      36.905  43.852  -0.990  1.00  0.00     0.006 C 
BRANCH  21  22
HETATM   22  C2  UNL     1      37.781  43.267   0.100  1.00  0.00    -0.004 C 
HETATM   23  C1  UNL     1      37.171  41.944   0.506  1.00  0.00     0.005 C 
ENDBRANCH  21  22
ENDBRANCH  20  21
ENDBRANCH  11  20
ENDBRANCH   4   6
ENDBRANCH   1   4
TORSDOF 8
ENDMDL
MODEL 2
REMARK VINA RESULT: -7.012794322      2.620      7.823
REMARK  8 active torsions:
REMARK  status: ('A' for Active; 'I' for Inactive)
REMARK    1  A    between atoms: C2_2  and  C3_3 
REMARK    2  A    between atoms: C3_3  and  C4_4 
REMARK    3  A    between atoms: C4_4  and  C5_5 
REMARK    4  A    between atoms: C7_7  and  N1_8 
REMARK    5  A    between atoms: N1_8  and  C8_10 
REMARK    6  A    between atoms: C8_10  and  C9_11 
REMARK    7  A    between atoms: C12_16  and  N3_17 
REMARK    8  A    between atoms: N3_17  and  C13_19 
ROOT
HETATM    1  C13 UNL     1      37.100  42.087  -3.748  1.00  0.00     0.262 C 
HETATM    2  C14 UNL     1      37.529  43.298  -3.042  1.00  0.00     0.079 C 
HETATM    3  N4  UNL     1      37.866  44.272  -2.488  1.00  0.00    -0.196 NA
ENDROOT
BRANCH   1   4
HETATM    4  N3  UNL     1      35.697  42.174  -4.028  1.00  0.00    -0.214 N 
ATOM      5  H3  UNL     1      35.076  42.533  -3.303  1.00  0.00     0.178 HD
BRANCH   4   6
HETATM    6  C12 UNL     1      35.175  41.813  -5.175  1.00  0.00     0.680 A 
HETATM    7  N2  UNL     1      34.602  42.755  -5.935  1.00  0.00    -0.177 N 
HETATM    8  C7  UNL     1      34.069  42.390  -7.110  1.00  0.00     0.118 A 
ATOM      9  H2  UNL     1      34.573  43.727  -5.627  1.00  0.00     0.185 HD
HETATM   10  C6  UNL     1      34.078  41.095  -7.575  1.00  0.00     0.074 A 
HETATM   11  C5  UNL     1      34.680  40.148  -6.763  1.00  0.00     0.030 A 
HETATM   12  N5  UNL     1      35.196  40.550  -5.610  1.00  0.00    -0.196 N 
ATOM     13  H5  UNL     1      35.638  39.849  -5.016  1.00  0.00     0.184 HD
BRANCH   8  14
HETATM   14  N1  UNL     1      33.518  43.284  -7.840  1.00  0.00    -0.375 N 
ATOM     15  H1  UNL     1      33.517  44.245  -7.497  1.00  0.00     0.161 HD
BRANCH  14  16
HETATM   16  C8  UNL     1      32.898  43.023  -9.121  1.00  0.00     0.126 C 
BRANCH  16  17
HETATM   17  C9  UNL     1      33.741  43.693 -10.175  1.00  0.00     0.003 A 
HETATM   18  C10 UNL     1      33.132  44.606 -11.169  1.00  0.00     0.007 A 
HETATM   19  C11 UNL     1      33.464  43.218 -11.588  1.00  0.00     0.007 A 
ENDBRANCH  16  17
ENDBRANCH  14  16
ENDBRANCH   8  14
BRANCH  11  20
HETATM   20  C4  UNL     1      34.702  38.748  -7.246  1.00  0.00     0.058 C 
BRANCH  20  21
HETATM   21  C3  UNL     1      33.397  38.450  -7.963  1.00  0.00     0.006 C 
BRANCH  21  22
HETATM   22  C2  UNL     1      32.451  37.756  -7.005  1.00  0.00    -0.004 C 
HETATM   23  C1  UNL     1      31.236  37.330  -7.800  1.00  0.00     0.005 C 
ENDBRANCH  21  22
ENDBRANCH  20  21
ENDBRANCH  11  20
ENDBRANCH   4   6
ENDBRANCH   1   4
TORSDOF 8
ENDMDL
MODEL 3
REMARK VINA RESULT: -6.816409699      2.936      7.364
REMARK  8 active torsions:
REMARK  status: ('A' for Active; 'I' for Inactive)
REMARK    1  A    between atoms: C2_2  and  C3_3 
REMARK    2  A    between atoms: C3_3  and  C4_4 
REMARK    3  A    between atoms: C4_4  and  C5_5 
REMARK    4  A    between atoms: C7_7  and  N1_8 
REMARK    5  A    between atoms: N1_8  and  C8_10 
REMARK    6  A    between atoms: C8_10  and  C9_11 
REMARK    7  A    between atoms: C12_16  and  N3_17 
REMARK    8  A    between atoms: N3_17  and  C13_19 
ROOT
HETATM    1  C13 UNL     1      36.424  42.044  -3.941  1.00  0.00     0.262 C 
HETATM    2  C14 UNL     1      37.210  43.090  -3.279  1.00  0.00     0.079 C 
HETATM    3  N4  UNL     1      37.840  43.930  -2.761  1.00  0.00    -0.196 NA
ENDROOT
BRANCH   1   4
HETATM    4  N3  UNL     1      35.391  42.655  -4.725  1.00  0.00    -0.214 N 
ATOM      5  H3  UNL     1      35.008  43.548  -4.416  1.00  0.00     0.178 HD
BRANCH   4   6
HETATM    6  C12 UNL     1      34.916  42.116  -5.822  1.00  0.00     0.680 A 
HETATM    7  N2  UNL     1      34.730  40.790  -5.845  1.00  0.00    -0.177 N 
HETATM    8  C7  UNL     1      34.244  40.234  -6.965  1.00  0.00     0.118 A 
ATOM      9  H2  UNL     1      34.951  40.217  -5.031  1.00  0.00     0.185 HD
HETATM   10  C6  UNL     1      33.929  40.957  -8.092  1.00  0.00     0.074 A 
HETATM   11  C5  UNL     1      34.134  42.325  -8.031  1.00  0.00     0.030 A 
HETATM   12  N5  UNL     1      34.615  42.835  -6.906  1.00  0.00    -0.196 N 
ATOM     13  H5  UNL     1      34.764  43.843  -6.865  1.00  0.00     0.184 HD
BRANCH   8  14
HETATM   14  N1  UNL     1      34.064  38.968  -6.996  1.00  0.00    -0.375 N 
ATOM     15  H1  UNL     1      34.851  38.381  -7.275  1.00  0.00     0.161 HD
BRANCH  14  16
HETATM   16  C8  UNL     1      32.820  38.312  -6.660  1.00  0.00     0.126 C 
BRANCH  16  17
HETATM   17  C9  UNL     1      32.330  37.611  -7.901  1.00  0.00     0.003 A 
HETATM   18  C10 UNL     1      31.290  38.222  -8.760  1.00  0.00     0.007 A 
HETATM   19  C11 UNL     1      30.893  37.137  -7.822  1.00  0.00     0.007 A 
ENDBRANCH  16  17
ENDBRANCH  14  16
ENDBRANCH   8  14
BRANCH  11  20
HETATM   20  C4  UNL     1      33.800  43.121  -9.234  1.00  0.00     0.058 C 
BRANCH  20  21
HETATM   21  C3  UNL     1      33.490  42.178 -10.383  1.00  0.00     0.006 C 
BRANCH  21  22
HETATM   22  C2  UNL     1      33.255  42.989 -11.642  1.00  0.00    -0.004 C 
HETATM   23  C1  UNL     1      33.582  44.430 -11.317  1.00  0.00     0.005 C 
ENDBRANCH  21  22
ENDBRANCH  20  21
ENDBRANCH  11  20
ENDBRANCH   4   6
ENDBRANCH   1   4
TORSDOF 8
ENDMDL
MODEL 4
REMARK VINA RESULT: -6.767295575      2.713      7.899
REMARK  8 active torsions:
REMARK  status: ('A' for Active; 'I' for Inactive)
REMARK    1  A    between atoms: C2_2  and  C3_3 
REMARK    2  A    between atoms: C3_3  and  C4_4 
REMARK    3  A    between atoms: C4_4  and  C5_5 
REMARK    4  A    between atoms: C7_7  and  N1_8 
REMARK    5  A    between atoms: N1_8  and  C8_10 
REMARK    6  A    between atoms: C8_10  and  C9_11 
REMARK    7  A    between atoms: C12_16  and  N3_17 
REMARK    8  A    between atoms: N3_17  and  C13_19 
ROOT
HETATM    1  C13 UNL     1      36.998  41.977  -3.466  1.00  0.00     0.262 C 
HETATM    2  C14 UNL     1      37.454  43.252  -2.903  1.00  0.00     0.079 C 
HETATM    3  N4  UNL     1      37.816  44.275  -2.464  1.00  0.00    -0.196 NA
ENDROOT
BRANCH   1   4
HETATM    4  N3  UNL     1      35.662  42.131  -3.964  1.00  0.00    -0.214 N 
ATOM      5  H3  UNL     1      34.952  42.518  -3.343  1.00  0.00     0.178 HD
BRANCH   4   6
HETATM    6  C12 UNL     1      35.313  41.795  -5.182  1.00  0.00     0.680 A 
HETATM    7  N2  UNL     1      34.559  42.652  -5.883  1.00  0.00    -0.177 N 
HETATM    8  C7  UNL     1      34.201  42.313  -7.130  1.00  0.00     0.118 A 
ATOM      9  H2  UNL     1      34.265  43.541  -5.478  1.00  0.00     0.185 HD
HETATM   10  C6  UNL     1      34.567  41.128  -7.726  1.00  0.00     0.074 A 
HETATM   11  C5  UNL     1      35.347  40.268  -6.972  1.00  0.00     0.030 A 
HETATM   12  N5  UNL     1      35.681  40.641  -5.744  1.00  0.00    -0.196 N 
ATOM     13  H5  UNL     1      36.255  40.004  -5.192  1.00  0.00     0.184 HD
BRANCH   8  14
HETATM   14  N1  UNL     1      33.479  43.125  -7.805  1.00  0.00    -0.375 N 
ATOM     15  H1  UNL     1      33.278  44.038  -7.396  1.00  0.00     0.161 HD
BRANCH  14  16
HETATM   16  C8  UNL     1      32.929  42.835  -9.112  1.00  0.00     0.126 C 
BRANCH  16  17
HETATM   17  C9  UNL     1      33.655  43.701 -10.109  1.00  0.00     0.003 A 
HETATM   18  C10 UNL     1      32.909  44.567 -11.050  1.00  0.00     0.007 A 
HETATM   19  C11 UNL     1      33.464  43.282 -11.553  1.00  0.00     0.007 A 
ENDBRANCH  16  17
ENDBRANCH  14  16
ENDBRANCH   8  14
BRANCH  11  20
HETATM   20  C4  UNL     1      35.754  38.988  -7.597  1.00  0.00     0.058 C 
BRANCH  20  21
HETATM   21  C3  UNL     1      35.558  39.085  -9.099  1.00  0.00     0.006 C 
BRANCH  21  22
HETATM   22  C2  UNL     1      35.908  37.753  -9.732  1.00  0.00    -0.004 C 
HETATM   23  C1  UNL     1      37.149  37.964 -10.571  1.00  0.00     0.005 C 
ENDBRANCH  21  22
ENDBRANCH  20  21
ENDBRANCH  11  20
ENDBRANCH   4   6
ENDBRANCH   1   4
TORSDOF 8
ENDMDL
MODEL 5
REMARK VINA RESULT: -6.705443109      0.764      3.607
REMARK  8 active torsions:
REMARK  status: ('A' for Active; 'I' for Inactive)
REMARK    1  A    between atoms: C2_2  and  C3_3 
REMARK    2  A    between atoms: C3_3  and  C4_4 
REMARK    3  A    between atoms: C4_4  and  C5_5 
REMARK    4  A    between atoms: C7_7  and  N1_8 
REMARK    5  A    between atoms: N1_8  and  C8_10 
REMARK    6  A    between atoms: C8_10  and  C9_11 
REMARK    7  A    between atoms: C12_16  and  N3_17 
REMARK    8  A    between atoms: N3_17  and  C13_19 
ROOT
HETATM    1  C13 UNL     1      34.355  41.636  -6.717  1.00  0.00     0.262 C 
HETATM    2  C14 UNL     1      34.445  42.509  -7.892  1.00  0.00     0.079 C 
HETATM    3  N4  UNL     1      34.509  43.213  -8.825  1.00  0.00    -0.196 NA
ENDROOT
BRANCH   1   4
HETATM    4  N3  UNL     1      34.690  42.388  -5.543  1.00  0.00    -0.214 N 
ATOM      5  H3  UNL     1      34.082  43.160  -5.269  1.00  0.00     0.178 HD
BRANCH   4   6
HETATM    6  C12 UNL     1      35.743  42.128  -4.808  1.00  0.00     0.680 A 
HETATM    7  N2  UNL     1      36.150  43.057  -3.933  1.00  0.00    -0.177 N 
HETATM    8  C7  UNL     1      37.226  42.795  -3.178  1.00  0.00     0.118 A 
ATOM      9  H2  UNL     1      35.652  43.944  -3.844  1.00  0.00     0.185 HD
HETATM   10  C6  UNL     1      37.936  41.619  -3.257  1.00  0.00     0.074 A 
HETATM   11  C5  UNL     1      37.487  40.681  -4.171  1.00  0.00     0.030 A 
HETATM   12  N5  UNL     1      36.419  40.979  -4.898  1.00  0.00    -0.196 N 
ATOM     13  H5  UNL     1      36.091  40.286  -5.569  1.00  0.00     0.184 HD
BRANCH   8  14
HETATM   14  N1  UNL     1      37.622  43.679  -2.342  1.00  0.00    -0.375 N 
ATOM     15  H1  UNL     1      37.429  44.657  -2.555  1.00  0.00     0.161 HD
BRANCH  14  16
HETATM   16  C8  UNL     1      38.325  43.382  -1.113  1.00  0.00     0.126 C 
BRANCH  16  17
HETATM   17  C9  UNL     1      37.288  43.079  -0.062  1.00  0.00     0.003 A 
HETATM   18  C10 UNL     1      37.678  42.519   1.252  1.00  0.00     0.007 A 
HETATM   19  C11 UNL     1      37.110  41.602   0.228  1.00  0.00     0.007 A 
ENDBRANCH  16  17
ENDBRANCH  14  16
ENDBRANCH   8  14
BRANCH  11  20
HETATM   20  C4  UNL     1      38.237  39.409  -4.270  1.00  0.00     0.058 C 
BRANCH  20  21
HETATM   21  C3  UNL     1      39.210  39.314  -3.109  1.00  0.00     0.006 C 
BRANCH  21  22
HETATM   22  C2  UNL     1      38.945  38.035  -2.340  1.00  0.00    -0.004 C 
HETATM   23  C1  UNL     1      37.871  38.338  -1.319  1.00  0.00     0.005 C 
ENDBRANCH  21  22
ENDBRANCH  20  21
ENDBRANCH  11  20
ENDBRANCH   4   6
ENDBRANCH   1   4
TORSDOF 8
ENDMDL
