MODEL 1
REMARK VINA RESULT: -6.537748288      0.000      0.000
REMARK  8 active torsions:
REMARK  status: ('A' for Active; 'I' for Inactive)
REMARK    1  A    between atoms: C3_5  and  N2_6 
REMARK    2  A    between atoms: N2_6  and  C4_8 
REMARK    3  A    between atoms: C4_8  and  C5_9 
REMARK    4  A    between atoms: C5_9  and  C6_10 
REMARK    5  A    between atoms: C6_10  and  C7_11 
REMARK    6  A    between atoms: C7_11  and  C8_12 
REMARK    7  A    between atoms: C8_12  and  N3_13 
REMARK    8  A    between atoms: C11_18  and  N5_19 
ROOT
HETATM    1  C1  UNL     1      37.635  45.266  -1.025  1.00  0.00     0.069 C 
HETATM    2  C2  UNL     1      37.145  43.926  -1.495  1.00  0.00     0.032 A 
HETATM    3  N1  UNL     1      36.525  43.770  -2.685  1.00  0.00    -0.195 N 
ATOM      4  H1  UNL     1      36.386  44.590  -3.276  1.00  0.00     0.184 HD
HETATM    5  C3  UNL     1      36.083  42.577  -3.118  1.00  0.00     0.679 A 
HETATM    6  N4  UNL     1      36.292  41.513  -2.292  1.00  0.00    -0.177 N 
ATOM      7  H4  UNL     1      35.967  40.593  -2.591  1.00  0.00     0.186 HD
HETATM    8  C11 UNL     1      36.907  41.621  -1.098  1.00  0.00     0.122 A 
HETATM    9  C12 UNL     1      37.358  42.842  -0.657  1.00  0.00     0.005 A 
HETATM   10  C13 UNL     1      38.041  43.046   0.645  1.00  0.00     0.054 C 
ENDROOT
BRANCH   5  11
HETATM   11  N2  UNL     1      35.484  42.404  -4.247  1.00  0.00    -0.226 N 
ATOM     12  H2  UNL     1      34.467  42.319  -4.246  1.00  0.00     0.177 HD
BRANCH  11  13
HETATM   13  C4  UNL     1      36.163  42.323  -5.497  1.00  0.00     0.138 C 
BRANCH  13  14
HETATM   14  C5  UNL     1      35.405  41.861  -6.670  1.00  0.00     0.020 C 
BRANCH  14  15
HETATM   15  C6  UNL     1      34.318  42.694  -7.238  1.00  0.00     0.003 C 
BRANCH  15  16
HETATM   16  C7  UNL     1      34.084  42.524  -8.693  1.00  0.00     0.030 C 
BRANCH  16  17
HETATM   17  C8  UNL     1      33.129  43.450  -9.354  1.00  0.00     0.271 C 
BRANCH  17  18
HETATM   18  N3  UNL     1      33.490  44.038 -10.596  1.00  0.00     0.080 N 
HETATM   19  C9  UNL     1      32.355  44.944 -10.953  1.00  0.00     0.309 C 
HETATM   20  C10 UNL     1      33.453  43.056 -11.673  1.00  0.00     0.309 C 
ENDBRANCH  17  18
ENDBRANCH  16  17
ENDBRANCH  15  16
ENDBRANCH  14  15
ENDBRANCH  13  14
ENDBRANCH  11  13
ENDBRANCH   5  11
BRANCH   8  21
HETATM   21  N5  UNL     1      37.086  40.582  -0.351  1.00  0.00    -0.385 N 
ATOM     22  H52 UNL     1      36.485  39.768  -0.486  1.00  0.00     0.157 HD
ATOM     23  H51 UNL     1      37.813  40.573   0.364  1.00  0.00     0.157 HD
ENDBRANCH   8  21
TORSDOF 8
ENDMDL
MODEL 2
REMARK VINA RESULT: -6.423630190      1.853      8.394
REMARK  8 active torsions:
REMARK  status: ('A' for Active; 'I' for Inactive)
REMARK    1  A    between atoms: C3_5  and  N2_6 
REMARK    2  A    between atoms: N2_6  and  C4_8 
REMARK    3  A    between atoms: C4_8  and  C5_9 
REMARK    4  A    between atoms: C5_9  and  C6_10 
REMARK    5  A    between atoms: C6_10  and  C7_11 
REMARK    6  A    between atoms: C7_11  and  C8_12 
REMARK    7  A    between atoms: C8_12  and  N3_13 
REMARK    8  A    between atoms: C11_18  and  N5_19 
ROOT
HETATM    1  C1  UNL     1      34.508  39.760  -9.728  1.00  0.00     0.069 C 
HETATM    2  C2  UNL     1      34.166  41.008  -8.964  1.00  0.00     0.032 A 
HETATM    3  N1  UNL     1      34.575  41.201  -7.691  1.00  0.00    -0.195 N 
ATOM      4  H1  UNL     1      35.131  40.475  -7.240  1.00  0.00     0.184 HD
HETATM    5  C3  UNL     1      34.278  42.313  -6.997  1.00  0.00     0.679 A 
HETATM    6  N4  UNL     1      33.532  43.253  -7.644  1.00  0.00    -0.177 N 
ATOM      7  H4  UNL     1      33.288  44.108  -7.144  1.00  0.00     0.186 HD
HETATM    8  C11 UNL     1      33.103  43.104  -8.912  1.00  0.00     0.122 A 
HETATM    9  C12 UNL     1      33.409  41.966  -9.620  1.00  0.00     0.005 A 
HETATM   10  C13 UNL     1      32.972  41.725 -11.018  1.00  0.00     0.054 C 
ENDROOT
BRANCH   5  11
HETATM   11  N2  UNL     1      34.653  42.518  -5.780  1.00  0.00    -0.226 N 
ATOM     12  H2  UNL     1      34.165  43.232  -5.239  1.00  0.00     0.177 HD
BRANCH  11  13
HETATM   13  C4  UNL     1      35.711  41.803  -5.150  1.00  0.00     0.138 C 
BRANCH  13  14
HETATM   14  C5  UNL     1      36.737  42.574  -4.431  1.00  0.00     0.020 C 
BRANCH  14  15
HETATM   15  C6  UNL     1      37.924  41.894  -3.857  1.00  0.00     0.003 C 
BRANCH  15  16
HETATM   16  C7  UNL     1      37.983  41.869  -2.375  1.00  0.00     0.030 C 
BRANCH  16  17
HETATM   17  C8  UNL     1      36.780  42.317  -1.626  1.00  0.00     0.271 C 
BRANCH  17  18
HETATM   18  N3  UNL     1      36.901  43.407  -0.722  1.00  0.00     0.080 N 
HETATM   19  C9  UNL     1      36.407  44.602  -1.472  1.00  0.00     0.309 C 
HETATM   20  C10 UNL     1      38.300  43.744  -0.488  1.00  0.00     0.309 C 
ENDBRANCH  17  18
ENDBRANCH  16  17
ENDBRANCH  15  16
ENDBRANCH  14  15
ENDBRANCH  13  14
ENDBRANCH  11  13
ENDBRANCH   5  11
BRANCH   8  21
HETATM   21  N5  UNL     1      32.401  44.026  -9.485  1.00  0.00    -0.385 N 
ATOM     22  H52 UNL     1      32.014  44.778  -8.913  1.00  0.00     0.157 HD
ATOM     23  H51 UNL     1      32.234  44.005 -10.490  1.00  0.00     0.157 HD
ENDBRANCH   8  21
TORSDOF 8
ENDMDL
MODEL 3
REMARK VINA RESULT: -6.401254284      0.813      1.964
REMARK  8 active torsions:
REMARK  status: ('A' for Active; 'I' for Inactive)
REMARK    1  A    between atoms: C3_5  and  N2_6 
REMARK    2  A    between atoms: N2_6  and  C4_8 
REMARK    3  A    between atoms: C4_8  and  C5_9 
REMARK    4  A    between atoms: C5_9  and  C6_10 
REMARK    5  A    between atoms: C6_10  and  C7_11 
REMARK    6  A    between atoms: C7_11  and  C8_12 
REMARK    7  A    between atoms: C8_12  and  N3_13 
REMARK    8  A    between atoms: C11_18  and  N5_19 
ROOT
HETATM    1  C1  UNL     1      36.902  40.254  -0.626  1.00  0.00     0.069 C 
HETATM    2  C2  UNL     1      36.769  41.522  -1.422  1.00  0.00     0.032 A 
HETATM    3  N1  UNL     1      36.292  41.525  -2.686  1.00  0.00    -0.195 N 
ATOM      4  H1  UNL     1      36.017  40.637  -3.107  1.00  0.00     0.184 HD
HETATM    5  C3  UNL     1      36.167  42.651  -3.408  1.00  0.00     0.679 A 
HETATM    6  N4  UNL     1      36.549  43.810  -2.801  1.00  0.00    -0.177 N 
ATOM      7  H4  UNL     1      36.468  44.683  -3.323  1.00  0.00     0.186 HD
HETATM    8  C11 UNL     1      37.029  43.855  -1.543  1.00  0.00     0.122 A 
HETATM    9  C12 UNL     1      37.156  42.702  -0.806  1.00  0.00     0.005 A 
HETATM   10  C13 UNL     1      37.679  42.666   0.583  1.00  0.00     0.054 C 
ENDROOT
BRANCH   5  11
HETATM   11  N2  UNL     1      35.719  42.678  -4.617  1.00  0.00    -0.226 N 
ATOM     12  H2  UNL     1      35.276  43.537  -4.948  1.00  0.00     0.177 HD
BRANCH  11  13
HETATM   13  C4  UNL     1      35.806  41.577  -5.517  1.00  0.00     0.138 C 
BRANCH  13  14
HETATM   14  C5  UNL     1      34.798  41.471  -6.583  1.00  0.00     0.020 C 
BRANCH  14  15
HETATM   15  C6  UNL     1      34.310  42.684  -7.280  1.00  0.00     0.003 C 
BRANCH  15  16
HETATM   16  C7  UNL     1      34.009  42.509  -8.722  1.00  0.00     0.030 C 
BRANCH  16  17
HETATM   17  C8  UNL     1      33.133  43.516  -9.374  1.00  0.00     0.271 C 
BRANCH  17  18
HETATM   18  N3  UNL     1      33.501  44.024 -10.649  1.00  0.00     0.080 N 
HETATM   19  C9  UNL     1      32.398  44.954 -11.041  1.00  0.00     0.309 C 
HETATM   20  C10 UNL     1      33.412  42.990 -11.673  1.00  0.00     0.309 C 
ENDBRANCH  17  18
ENDBRANCH  16  17
ENDBRANCH  15  16
ENDBRANCH  14  15
ENDBRANCH  13  14
ENDBRANCH  11  13
ENDBRANCH   5  11
BRANCH   8  21
HETATM   21  N5  UNL     1      37.375  44.979  -1.008  1.00  0.00    -0.385 N 
ATOM     22  H52 UNL     1      36.780  45.796  -1.148  1.00  0.00     0.157 HD
ATOM     23  H51 UNL     1      38.229  45.053  -0.455  1.00  0.00     0.157 HD
ENDBRANCH   8  21
TORSDOF 8
ENDMDL
MODEL 4
REMARK VINA RESULT: -6.287252598      0.771      1.033
REMARK  8 active torsions:
REMARK  status: ('A' for Active; 'I' for Inactive)
REMARK    1  A    between atoms: C3_5  and  N2_6 
REMARK    2  A    between atoms: N2_6  and  C4_8 
REMARK    3  A    between atoms: C4_8  and  C5_9 
REMARK    4  A    between atoms: C5_9  and  C6_10 
REMARK    5  A    between atoms: C6_10  and  C7_11 
REMARK    6  A    between atoms: C7_11  and  C8_12 
REMARK    7  A    between atoms: C8_12  and  N3_13 
REMARK    8  A    between atoms: C11_18  and  N5_19 
ROOT
HETATM    1  C1  UNL     1      37.648  45.252  -1.021  1.00  0.00     0.069 C 
HETATM    2  C2  UNL     1      37.171  43.882  -1.415  1.00  0.00     0.032 A 
HETATM    3  N1  UNL     1      36.535  43.656  -2.584  1.00  0.00    -0.195 N 
ATOM      4  H1  UNL     1      36.375  44.442  -3.215  1.00  0.00     0.184 HD
HETATM    5  C3  UNL     1      36.105  42.436  -2.949  1.00  0.00     0.679 A 
HETATM    6  N4  UNL     1      36.342  41.419  -2.072  1.00  0.00    -0.177 N 
ATOM      7  H4  UNL     1      36.027  40.481  -2.318  1.00  0.00     0.186 HD
HETATM    8  C11 UNL     1      36.974  41.597  -0.896  1.00  0.00     0.122 A 
HETATM    9  C12 UNL     1      37.412  42.846  -0.525  1.00  0.00     0.005 A 
HETATM   10  C13 UNL     1      38.112  43.126   0.754  1.00  0.00     0.054 C 
ENDROOT
BRANCH   5  11
HETATM   11  N2  UNL     1      35.491  42.196  -4.058  1.00  0.00    -0.226 N 
ATOM     12  H2  UNL     1      34.486  42.023  -4.025  1.00  0.00     0.177 HD
BRANCH  11  13
HETATM   13  C4  UNL     1      36.139  42.158  -5.326  1.00  0.00     0.138 C 
BRANCH  13  14
HETATM   14  C5  UNL     1      35.306  42.260  -6.534  1.00  0.00     0.020 C 
BRANCH  14  15
HETATM   15  C6  UNL     1      35.145  41.094  -7.436  1.00  0.00     0.003 C 
BRANCH  15  16
HETATM   16  C7  UNL     1      33.854  41.033  -8.166  1.00  0.00     0.030 C 
BRANCH  16  17
HETATM   17  C8  UNL     1      33.821  41.551  -9.558  1.00  0.00     0.271 C 
BRANCH  17  18
HETATM   18  N3  UNL     1      33.888  42.955  -9.769  1.00  0.00     0.080 N 
HETATM   19  C9  UNL     1      32.788  43.535  -8.939  1.00  0.00     0.309 C 
HETATM   20  C10 UNL     1      33.473  43.304 -11.122  1.00  0.00     0.309 C 
ENDBRANCH  17  18
ENDBRANCH  16  17
ENDBRANCH  15  16
ENDBRANCH  14  15
ENDBRANCH  13  14
ENDBRANCH  11  13
ENDBRANCH   5  11
BRANCH   8  21
HETATM   21  N5  UNL     1      37.179  40.601  -0.099  1.00  0.00    -0.385 N 
ATOM     22  H52 UNL     1      37.144  40.760   0.909  1.00  0.00     0.157 HD
ATOM     23  H51 UNL     1      37.374  39.671  -0.467  1.00  0.00     0.157 HD
ENDBRANCH   8  21
TORSDOF 8
ENDMDL
MODEL 5
REMARK VINA RESULT: -6.210992447      1.980      2.862
REMARK  8 active torsions:
REMARK  status: ('A' for Active; 'I' for Inactive)
REMARK    1  A    between atoms: C3_5  and  N2_6 
REMARK    2  A    between atoms: N2_6  and  C4_8 
REMARK    3  A    between atoms: C4_8  and  C5_9 
REMARK    4  A    between atoms: C5_9  and  C6_10 
REMARK    5  A    between atoms: C6_10  and  C7_11 
REMARK    6  A    between atoms: C7_11  and  C8_12 
REMARK    7  A    between atoms: C8_12  and  N3_13 
REMARK    8  A    between atoms: C11_18  and  N5_19 
ROOT
HETATM    1  C1  UNL     1      37.333  43.713  -2.522  1.00  0.00     0.069 C 
HETATM    2  C2  UNL     1      36.829  42.747  -3.556  1.00  0.00     0.032 A 
HETATM    3  N1  UNL     1      35.804  43.053  -4.380  1.00  0.00    -0.195 N 
ATOM      4  H1  UNL     1      35.361  43.968  -4.292  1.00  0.00     0.184 HD
HETATM    5  C3  UNL     1      35.345  42.199  -5.311  1.00  0.00     0.679 A 
HETATM    6  N4  UNL     1      35.969  40.990  -5.388  1.00  0.00    -0.177 N 
ATOM      7  H4  UNL     1      35.644  40.318  -6.084  1.00  0.00     0.186 HD
HETATM    8  C11 UNL     1      36.996  40.642  -4.589  1.00  0.00     0.122 A 
HETATM    9  C12 UNL     1      37.463  41.517  -3.638  1.00  0.00     0.005 A 
HETATM   10  C13 UNL     1      38.586  41.208  -2.717  1.00  0.00     0.054 C 
ENDROOT
BRANCH   5  11
HETATM   11  N2  UNL     1      34.365  42.467  -6.106  1.00  0.00    -0.226 N 
ATOM     12  H2  UNL     1      33.419  42.462  -5.723  1.00  0.00     0.177 HD
BRANCH  11  13
HETATM   13  C4  UNL     1      34.530  42.769  -7.488  1.00  0.00     0.138 C 
BRANCH  13  14
HETATM   14  C5  UNL     1      33.340  42.735  -8.352  1.00  0.00     0.020 C 
BRANCH  14  15
HETATM   15  C6  UNL     1      33.222  43.659  -9.506  1.00  0.00     0.003 C 
BRANCH  15  16
HETATM   16  C7  UNL     1      33.376  43.028 -10.840  1.00  0.00     0.030 C 
BRANCH  16  17
HETATM   17  C8  UNL     1      33.354  43.916 -12.032  1.00  0.00     0.271 C 
BRANCH  17  18
HETATM   18  N3  UNL     1      32.646  45.147 -11.958  1.00  0.00     0.080 N 
HETATM   19  C9  UNL     1      31.434  44.961 -12.814  1.00  0.00     0.309 C 
HETATM   20  C10 UNL     1      33.361  46.207 -12.658  1.00  0.00     0.309 C 
ENDBRANCH  17  18
ENDBRANCH  16  17
ENDBRANCH  15  16
ENDBRANCH  14  15
ENDBRANCH  13  14
ENDBRANCH  11  13
ENDBRANCH   5  11
BRANCH   8  21
HETATM   21  N5  UNL     1      37.558  39.484  -4.703  1.00  0.00    -0.385 N 
ATOM     22  H52 UNL     1      38.521  39.369  -4.383  1.00  0.00     0.157 HD
ATOM     23  H51 UNL     1      37.052  38.696  -5.106  1.00  0.00     0.157 HD
ENDBRANCH   8  21
TORSDOF 8
ENDMDL
