MODEL 1
REMARK VINA RESULT: -6.513051663      0.000      0.000
REMARK  7 active torsions:
REMARK  status: ('A' for Active; 'I' for Inactive)
REMARK    1  A    between atoms: N1_1  and  C1_5 
REMARK    2  A    between atoms: C1_5  and  C2_6 
REMARK    3  A    between atoms: C2_6  and  C3_7 
REMARK    4  A    between atoms: C6_12  and  C7_13 
REMARK    5  A    between atoms: C7_13  and  C8_14 
REMARK    6  A    between atoms: C8_14  and  C9_15 
REMARK    7  A    between atoms: C9_15  and  C10_16 
ROOT
HETATM    1  C3  UNL     1      35.455  41.830  -5.168  1.00  0.00     0.205 C 
HETATM    2  C4  UNL     1      36.157  40.775  -5.956  1.00  0.00     0.147 C 
HETATM    3  N2  UNL     1      35.302  40.001  -6.796  1.00  0.00    -0.417 N 
ATOM      4  H2  UNL     1      35.589  39.106  -7.190  1.00  0.00     0.153 HD
HETATM    5  C5  UNL     1      34.019  40.570  -7.042  1.00  0.00     0.147 C 
HETATM    6  C6  UNL     1      33.953  42.046  -7.039  1.00  0.00     0.203 C 
HETATM    7  N3  UNL     1      34.602  42.685  -5.932  1.00  0.00    -0.064 N 
ATOM      8  H31 UNL     1      35.116  43.507  -6.249  1.00  0.00     0.278 HD
ATOM      9  H32 UNL     1      33.912  43.131  -5.326  1.00  0.00     0.278 HD
ENDROOT
BRANCH   6  10
HETATM   10  C7  UNL     1      34.485  42.683  -8.307  1.00  0.00     0.035 C 
BRANCH  10  11
HETATM   11  C8  UNL     1      33.625  42.457  -9.502  1.00  0.00     0.002 C 
BRANCH  11  12
HETATM   12  C9  UNL     1      33.343  43.804 -10.130  1.00  0.00     0.005 C 
BRANCH  12  13
HETATM   13  C10 UNL     1      33.734  43.836 -11.583  1.00  0.00    -0.014 C 
HETATM   14  C11 UNL     1      32.876  42.968 -12.441  1.00  0.00     0.004 C 
HETATM   15  C12 UNL     1      31.419  43.368 -12.398  1.00  0.00     0.000 C 
HETATM   16  C13 UNL     1      31.226  44.831 -12.713  1.00  0.00     0.000 C 
HETATM   17  C14 UNL     1      32.208  45.726 -12.032  1.00  0.00     0.000 C 
HETATM   18  C15 UNL     1      33.626  45.253 -12.095  1.00  0.00     0.004 C 
ENDBRANCH  12  13
ENDBRANCH  11  12
ENDBRANCH  10  11
ENDBRANCH   6  10
BRANCH   1  19
HETATM   19  C2  UNL     1      36.491  42.712  -4.484  1.00  0.00     0.062 C 
BRANCH  19  20
HETATM   20  C1  UNL     1      36.583  42.416  -3.007  1.00  0.00     0.231 C 
BRANCH  20  21
HETATM   21  N1  UNL     1      35.247  42.070  -2.557  1.00  0.00    -0.079 N 
ATOM     22  H13 UNL     1      34.515  42.597  -3.035  1.00  0.00     0.274 HD
ATOM     23  H12 UNL     1      34.953  41.140  -2.854  1.00  0.00     0.274 HD
ATOM     24  H11 UNL     1      35.231  42.192  -1.545  1.00  0.00     0.274 HD
ENDBRANCH  20  21
ENDBRANCH  19  20
ENDBRANCH   1  19
TORSDOF 7
ENDMDL
MODEL 2
REMARK VINA RESULT: -6.388113211      3.969      8.158
REMARK  7 active torsions:
REMARK  status: ('A' for Active; 'I' for Inactive)
REMARK    1  A    between atoms: N1_1  and  C1_5 
REMARK    2  A    between atoms: C1_5  and  C2_6 
REMARK    3  A    between atoms: C2_6  and  C3_7 
REMARK    4  A    between atoms: C6_12  and  C7_13 
REMARK    5  A    between atoms: C7_13  and  C8_14 
REMARK    6  A    between atoms: C8_14  and  C9_15 
REMARK    7  A    between atoms: C9_15  and  C10_16 
ROOT
HETATM    1  C3  UNL     1      34.244  40.235  -7.007  1.00  0.00     0.205 C 
HETATM    2  C4  UNL     1      35.140  40.860  -8.023  1.00  0.00     0.147 C 
HETATM    3  N2  UNL     1      35.409  42.243  -7.798  1.00  0.00    -0.417 N 
ATOM      4  H2  UNL     1      35.787  42.851  -8.524  1.00  0.00     0.153 HD
HETATM    5  C5  UNL     1      35.111  42.712  -6.485  1.00  0.00     0.147 C 
HETATM    6  C6  UNL     1      35.245  41.722  -5.397  1.00  0.00     0.203 C 
HETATM    7  N3  UNL     1      34.630  40.451  -5.649  1.00  0.00    -0.064 N 
ATOM      8  H31 UNL     1      35.236  39.695  -5.327  1.00  0.00     0.278 HD
ATOM      9  H32 UNL     1      33.833  40.314  -5.027  1.00  0.00     0.278 HD
ENDROOT
BRANCH   6  10
HETATM   10  C7  UNL     1      36.679  41.460  -4.984  1.00  0.00     0.035 C 
BRANCH  10  11
HETATM   11  C8  UNL     1      37.424  42.686  -4.583  1.00  0.00     0.002 C 
BRANCH  11  12
HETATM   12  C9  UNL     1      37.668  42.610  -3.092  1.00  0.00     0.005 C 
BRANCH  12  13
HETATM   13  C10 UNL     1      36.618  43.359  -2.316  1.00  0.00    -0.014 C 
HETATM   14  C11 UNL     1      35.775  42.474  -1.461  1.00  0.00     0.004 C 
HETATM   15  C12 UNL     1      36.586  41.718  -0.432  1.00  0.00     0.000 C 
HETATM   16  C13 UNL     1      37.448  42.641   0.395  1.00  0.00     0.000 C 
HETATM   17  C14 UNL     1      38.150  43.686  -0.406  1.00  0.00     0.000 C 
HETATM   18  C15 UNL     1      37.291  44.373  -1.420  1.00  0.00     0.004 C 
ENDBRANCH  12  13
ENDBRANCH  11  12
ENDBRANCH  10  11
ENDBRANCH   6  10
BRANCH   1  19
HETATM   19  C2  UNL     1      34.205  38.730  -7.237  1.00  0.00     0.062 C 
BRANCH  19  20
HETATM   20  C1  UNL     1      32.801  38.244  -7.496  1.00  0.00     0.231 C 
BRANCH  20  21
HETATM   21  N1  UNL     1      32.374  37.521  -6.312  1.00  0.00    -0.079 N 
ATOM     22  H13 UNL     1      32.907  36.667  -6.151  1.00  0.00     0.274 HD
ATOM     23  H12 UNL     1      32.621  37.995  -5.444  1.00  0.00     0.274 HD
ATOM     24  H11 UNL     1      31.372  37.356  -6.408  1.00  0.00     0.274 HD
ENDBRANCH  20  21
ENDBRANCH  19  20
ENDBRANCH   1  19
TORSDOF 7
ENDMDL
MODEL 3
REMARK VINA RESULT: -6.314088240      2.195      8.259
REMARK  7 active torsions:
REMARK  status: ('A' for Active; 'I' for Inactive)
REMARK    1  A    between atoms: N1_1  and  C1_5 
REMARK    2  A    between atoms: C1_5  and  C2_6 
REMARK    3  A    between atoms: C2_6  and  C3_7 
REMARK    4  A    between atoms: C6_12  and  C7_13 
REMARK    5  A    between atoms: C7_13  and  C8_14 
REMARK    6  A    between atoms: C8_14  and  C9_15 
REMARK    7  A    between atoms: C9_15  and  C10_16 
ROOT
HETATM    1  C3  UNL     1      34.278  41.970  -7.952  1.00  0.00     0.205 C 
HETATM    2  C4  UNL     1      33.586  41.016  -7.036  1.00  0.00     0.147 C 
HETATM    3  N2  UNL     1      34.457  40.105  -6.368  1.00  0.00    -0.417 N 
ATOM      4  H2  UNL     1      34.118  39.255  -5.919  1.00  0.00     0.153 HD
HETATM    5  C5  UNL     1      35.835  40.470  -6.375  1.00  0.00     0.147 C 
HETATM    6  C6  UNL     1      36.122  41.919  -6.402  1.00  0.00     0.203 C 
HETATM    7  N3  UNL     1      35.379  42.670  -7.372  1.00  0.00    -0.064 N 
ATOM      8  H31 UNL     1      35.065  43.554  -6.970  1.00  0.00     0.278 HD
ATOM      9  H32 UNL     1      36.001  43.020  -8.101  1.00  0.00     0.278 HD
ENDROOT
BRANCH   6  10
HETATM   10  C7  UNL     1      35.941  42.602  -5.062  1.00  0.00     0.035 C 
BRANCH  10  11
HETATM   11  C8  UNL     1      36.644  41.920  -3.939  1.00  0.00     0.002 C 
BRANCH  11  12
HETATM   12  C9  UNL     1      37.323  42.985  -3.105  1.00  0.00     0.005 C 
BRANCH  12  13
HETATM   13  C10 UNL     1      36.373  43.613  -2.122  1.00  0.00    -0.014 C 
HETATM   14  C11 UNL     1      35.717  42.621  -1.221  1.00  0.00     0.004 C 
HETATM   15  C12 UNL     1      36.713  41.843  -0.392  1.00  0.00     0.000 C 
HETATM   16  C13 UNL     1      37.649  42.753   0.366  1.00  0.00     0.000 C 
HETATM   17  C14 UNL     1      38.167  43.893  -0.447  1.00  0.00     0.000 C 
HETATM   18  C15 UNL     1      37.128  44.598  -1.260  1.00  0.00     0.004 C 
ENDBRANCH  12  13
ENDBRANCH  11  12
ENDBRANCH  10  11
ENDBRANCH   6  10
BRANCH   1  19
HETATM   19  C2  UNL     1      33.277  43.011  -8.435  1.00  0.00     0.062 C 
BRANCH  19  20
HETATM   20  C1  UNL     1      33.598  43.483  -9.831  1.00  0.00     0.231 C 
BRANCH  20  21
HETATM   21  N1  UNL     1      32.498  44.328 -10.259  1.00  0.00    -0.079 N 
ATOM     22  H13 UNL     1      31.979  44.734  -9.480  1.00  0.00     0.274 HD
ATOM     23  H12 UNL     1      32.806  45.203 -10.682  1.00  0.00     0.274 HD
ATOM     24  H11 UNL     1      31.914  43.767 -10.879  1.00  0.00     0.274 HD
ENDBRANCH  20  21
ENDBRANCH  19  20
ENDBRANCH   1  19
TORSDOF 7
ENDMDL
MODEL 4
REMARK VINA RESULT: -6.217042057      4.839      9.424
REMARK  7 active torsions:
REMARK  status: ('A' for Active; 'I' for Inactive)
REMARK    1  A    between atoms: N1_1  and  C1_5 
REMARK    2  A    between atoms: C1_5  and  C2_6 
REMARK    3  A    between atoms: C2_6  and  C3_7 
REMARK    4  A    between atoms: C6_12  and  C7_13 
REMARK    5  A    between atoms: C7_13  and  C8_14 
REMARK    6  A    between atoms: C8_14  and  C9_15 
REMARK    7  A    between atoms: C9_15  and  C10_16 
ROOT
HETATM    1  C3  UNL     1      36.213  42.553  -3.580  1.00  0.00     0.205 C 
HETATM    2  C4  UNL     1      37.521  43.237  -3.358  1.00  0.00     0.147 C 
HETATM    3  N2  UNL     1      37.535  44.132  -2.247  1.00  0.00    -0.417 N 
ATOM      4  H2  UNL     1      38.258  44.841  -2.126  1.00  0.00     0.153 HD
HETATM    5  C5  UNL     1      36.465  43.964  -1.320  1.00  0.00     0.147 C 
HETATM    6  C6  UNL     1      35.932  42.593  -1.187  1.00  0.00     0.203 C 
HETATM    7  N3  UNL     1      35.660  41.921  -2.424  1.00  0.00    -0.064 N 
ATOM      8  H31 UNL     1      35.963  40.948  -2.374  1.00  0.00     0.278 HD
ATOM      9  H32 UNL     1      34.655  41.786  -2.540  1.00  0.00     0.278 HD
ENDROOT
BRANCH   6  10
HETATM   10  C7  UNL     1      36.806  41.676  -0.355  1.00  0.00     0.035 C 
BRANCH  10  11
HETATM   11  C8  UNL     1      36.703  40.238  -0.733  1.00  0.00     0.002 C 
BRANCH  11  12
HETATM   12  C9  UNL     1      38.046  39.807  -1.279  1.00  0.00     0.005 C 
BRANCH  12  13
HETATM   13  C10 UNL     1      37.903  38.761  -2.352  1.00  0.00    -0.014 C 
HETATM   14  C11 UNL     1      38.912  38.896  -3.443  1.00  0.00     0.004 C 
HETATM   15  C12 UNL     1      40.332  38.776  -2.938  1.00  0.00     0.000 C 
HETATM   16  C13 UNL     1      40.540  37.515  -2.136  1.00  0.00     0.000 C 
HETATM   17  C14 UNL     1      39.437  37.227  -1.171  1.00  0.00     0.000 C 
HETATM   18  C15 UNL     1      38.062  37.391  -1.735  1.00  0.00     0.004 C 
ENDBRANCH  12  13
ENDBRANCH  11  12
ENDBRANCH  10  11
ENDBRANCH   6  10
BRANCH   1  19
HETATM   19  C2  UNL     1      36.387  41.482  -4.648  1.00  0.00     0.062 C 
BRANCH  19  20
HETATM   20  C1  UNL     1      35.815  41.922  -5.973  1.00  0.00     0.231 C 
BRANCH  20  21
HETATM   21  N1  UNL     1      34.527  42.533  -5.700  1.00  0.00    -0.079 N 
ATOM     22  H13 UNL     1      34.548  43.552  -5.754  1.00  0.00     0.274 HD
ATOM     23  H12 UNL     1      33.844  42.377  -6.442  1.00  0.00     0.274 HD
ATOM     24  H11 UNL     1      34.218  42.187  -4.792  1.00  0.00     0.274 HD
ENDBRANCH  20  21
ENDBRANCH  19  20
ENDBRANCH   1  19
TORSDOF 7
ENDMDL
MODEL 5
REMARK VINA RESULT: -6.123215287      1.553      3.222
REMARK  7 active torsions:
REMARK  status: ('A' for Active; 'I' for Inactive)
REMARK    1  A    between atoms: N1_1  and  C1_5 
REMARK    2  A    between atoms: C1_5  and  C2_6 
REMARK    3  A    between atoms: C2_6  and  C3_7 
REMARK    4  A    between atoms: C6_12  and  C7_13 
REMARK    5  A    between atoms: C7_13  and  C8_14 
REMARK    6  A    between atoms: C8_14  and  C9_15 
REMARK    7  A    between atoms: C9_15  and  C10_16 
ROOT
HETATM    1  C3  UNL     1      35.284  40.111  -7.786  1.00  0.00     0.205 C 
HETATM    2  C4  UNL     1      34.698  40.049  -6.415  1.00  0.00     0.147 C 
HETATM    3  N2  UNL     1      34.992  41.181  -5.598  1.00  0.00    -0.417 N 
ATOM      4  H2  UNL     1      34.877  41.168  -4.585  1.00  0.00     0.153 HD
HETATM    5  C5  UNL     1      35.458  42.331  -6.301  1.00  0.00     0.147 C 
HETATM    6  C6  UNL     1      34.953  42.495  -7.679  1.00  0.00     0.203 C 
HETATM    7  N3  UNL     1      35.021  41.321  -8.499  1.00  0.00    -0.064 N 
ATOM      8  H31 UNL     1      34.170  41.227  -9.055  1.00  0.00     0.278 HD
ATOM      9  H32 UNL     1      35.705  41.449  -9.246  1.00  0.00     0.278 HD
ENDROOT
BRANCH   6  10
HETATM   10  C7  UNL     1      33.533  43.019  -7.751  1.00  0.00     0.035 C 
BRANCH  10  11
HETATM   11  C8  UNL     1      32.856  42.747  -9.051  1.00  0.00     0.002 C 
BRANCH  11  12
HETATM   12  C9  UNL     1      32.858  44.033  -9.849  1.00  0.00     0.005 C 
BRANCH  12  13
HETATM   13  C10 UNL     1      33.617  43.886 -11.140  1.00  0.00    -0.014 C 
HETATM   14  C11 UNL     1      33.047  42.845 -12.043  1.00  0.00     0.004 C 
HETATM   15  C12 UNL     1      31.617  43.139 -12.437  1.00  0.00     0.000 C 
HETATM   16  C13 UNL     1      31.465  44.525 -13.015  1.00  0.00     0.000 C 
HETATM   17  C14 UNL     1      32.202  45.577 -12.254  1.00  0.00     0.000 C 
HETATM   18  C15 UNL     1      33.602  45.205 -11.878  1.00  0.00     0.004 C 
ENDBRANCH  12  13
ENDBRANCH  11  12
ENDBRANCH  10  11
ENDBRANCH   6  10
BRANCH   1  19
HETATM   19  C2  UNL     1      34.730  38.961  -8.616  1.00  0.00     0.062 C 
BRANCH  19  20
HETATM   20  C1  UNL     1      33.263  38.737  -8.345  1.00  0.00     0.231 C 
BRANCH  20  21
HETATM   21  N1  UNL     1      32.541  39.147  -9.535  1.00  0.00    -0.079 N 
ATOM     22  H13 UNL     1      32.370  38.379 -10.185  1.00  0.00     0.274 HD
ATOM     23  H12 UNL     1      31.566  39.382  -9.351  1.00  0.00     0.274 HD
ATOM     24  H11 UNL     1      33.065  39.915  -9.953  1.00  0.00     0.274 HD
ENDBRANCH  20  21
ENDBRANCH  19  20
ENDBRANCH   1  19
TORSDOF 7
ENDMDL
