MODEL 1
REMARK VINA RESULT: -5.590978320      0.000      0.000
REMARK  7 active torsions:
REMARK  status: ('A' for Active; 'I' for Inactive)
REMARK    1  A    between atoms: C2_2  and  N1_3 
REMARK    2  A    between atoms: C4_8  and  N3_9 
REMARK    3  A    between atoms: C7_16  and  C8_17 
REMARK    4  A    between atoms: C8_17  and  C9_18 
REMARK    5  A    between atoms: C9_18  and  N5_19 
REMARK    6  A    between atoms: N5_19  and  C10_20 
REMARK    7  A    between atoms: N5_19  and  C12_22 
ROOT
HETATM    1  N1  UNL     1      33.533  42.484  -9.932  1.00  0.00    -0.376 N 
ATOM      2  H1  UNL     1      33.132  41.822 -10.597  1.00  0.00     0.161 HD
HETATM    3  C3  UNL     1      33.812  42.037  -8.777  1.00  0.00     0.125 A 
HETATM    4  N2  UNL     1      34.354  42.813  -7.791  1.00  0.00    -0.177 N 
ATOM      5  H2  UNL     1      34.548  43.797  -7.980  1.00  0.00     0.186 HD
HETATM    6  C4  UNL     1      34.637  42.311  -6.586  1.00  0.00     0.677 A 
HETATM    7  N4  UNL     1      34.418  41.021  -6.236  1.00  0.00    -0.196 N 
ATOM      8  H4  UNL     1      34.646  40.669  -5.306  1.00  0.00     0.184 HD
HETATM    9  C5  UNL     1      33.885  40.229  -7.181  1.00  0.00     0.032 A 
HETATM   10  C6  UNL     1      33.627  38.803  -6.858  1.00  0.00     0.069 C 
HETATM   11  C7  UNL     1      33.584  40.721  -8.435  1.00  0.00     0.011 A 
ENDROOT
BRANCH  11  12
HETATM   12  C8  UNL     1      32.995  39.835  -9.490  1.00  0.00     0.064 C 
BRANCH  12  13
HETATM   13  C9  UNL     1      31.507  39.993  -9.627  1.00  0.00     0.132 C 
BRANCH  13  14
HETATM   14  N5  UNL     1      30.914  38.744  -9.932  1.00  0.00    -0.374 N 
BRANCH  14  15
HETATM   15  C10 UNL     1      31.378  37.596  -9.292  1.00  0.00     0.058 C 
HETATM   16  C11 UNL     1      30.498  37.094  -8.167  1.00  0.00     0.055 C 
ENDBRANCH  14  15
BRANCH  14  17
HETATM   17  C12 UNL     1      29.790  38.744 -10.755  1.00  0.00     0.058 C 
HETATM   18  C13 UNL     1      29.187  40.122 -10.865  1.00  0.00     0.055 C 
ENDBRANCH  14  17
ENDBRANCH  13  14
ENDBRANCH  12  13
ENDBRANCH  11  12
BRANCH   1  19
HETATM   19  C2  UNL     1      33.727  43.828 -10.394  1.00  0.00     0.116 C 
HETATM   20  C1  UNL     1      33.401  43.974 -11.872  1.00  0.00     0.026 C 
ENDBRANCH   1  19
BRANCH   6  21
HETATM   21  N3  UNL     1      35.148  43.074  -5.681  1.00  0.00    -0.234 N 
ATOM     22  H32 UNL     1      34.848  44.049  -5.684  1.00  0.00     0.174 HD
ATOM     23  H31 UNL     1      35.816  42.687  -5.013  1.00  0.00     0.174 HD
ENDBRANCH   6  21
TORSDOF 7
ENDMDL
MODEL 2
REMARK VINA RESULT: -5.527223496      0.091      1.645
REMARK  7 active torsions:
REMARK  status: ('A' for Active; 'I' for Inactive)
REMARK    1  A    between atoms: C2_2  and  N1_3 
REMARK    2  A    between atoms: C4_8  and  N3_9 
REMARK    3  A    between atoms: C7_16  and  C8_17 
REMARK    4  A    between atoms: C8_17  and  C9_18 
REMARK    5  A    between atoms: C9_18  and  N5_19 
REMARK    6  A    between atoms: N5_19  and  C10_20 
REMARK    7  A    between atoms: N5_19  and  C12_22 
ROOT
HETATM    1  N1  UNL     1      33.499  42.453  -9.903  1.00  0.00    -0.376 N 
ATOM      2  H1  UNL     1      33.092  41.789 -10.562  1.00  0.00     0.161 HD
HETATM    3  C3  UNL     1      33.790  42.009  -8.749  1.00  0.00     0.125 A 
HETATM    4  N2  UNL     1      34.342  42.789  -7.771  1.00  0.00    -0.177 N 
ATOM      5  H2  UNL     1      34.532  43.772  -7.965  1.00  0.00     0.186 HD
HETATM    6  C4  UNL     1      34.637  42.291  -6.568  1.00  0.00     0.677 A 
HETATM    7  N4  UNL     1      34.423  41.001  -6.212  1.00  0.00    -0.196 N 
ATOM      8  H4  UNL     1      34.661  40.653  -5.283  1.00  0.00     0.184 HD
HETATM    9  C5  UNL     1      33.881  40.206  -7.149  1.00  0.00     0.032 A 
HETATM   10  C6  UNL     1      33.628  38.781  -6.819  1.00  0.00     0.069 C 
HETATM   11  C7  UNL     1      33.567  40.694  -8.401  1.00  0.00     0.011 A 
ENDROOT
BRANCH  11  12
HETATM   12  C8  UNL     1      32.968  39.804  -9.447  1.00  0.00     0.064 C 
BRANCH  12  13
HETATM   13  C9  UNL     1      31.498  40.044  -9.651  1.00  0.00     0.132 C 
BRANCH  13  14
HETATM   14  N5  UNL     1      30.820  38.807  -9.778  1.00  0.00    -0.374 N 
BRANCH  14  15
HETATM   15  C10 UNL     1      29.698  38.727 -10.601  1.00  0.00     0.058 C 
HETATM   16  C11 UNL     1      29.031  40.053 -10.898  1.00  0.00     0.055 C 
ENDBRANCH  14  15
BRANCH  14  17
HETATM   17  C12 UNL     1      31.398  37.688  -9.182  1.00  0.00     0.058 C 
HETATM   18  C13 UNL     1      30.482  37.077  -8.151  1.00  0.00     0.055 C 
ENDBRANCH  14  17
ENDBRANCH  13  14
ENDBRANCH  12  13
ENDBRANCH  11  12
BRANCH   1  19
HETATM   19  C2  UNL     1      33.686  43.796 -10.371  1.00  0.00     0.116 C 
HETATM   20  C1  UNL     1      33.420  43.921 -11.862  1.00  0.00     0.026 C 
ENDBRANCH   1  19
BRANCH   6  21
HETATM   21  N3  UNL     1      35.157  43.057  -5.670  1.00  0.00    -0.234 N 
ATOM     22  H32 UNL     1      34.817  44.018  -5.639  1.00  0.00     0.174 HD
ATOM     23  H31 UNL     1      35.870  42.685  -5.041  1.00  0.00     0.174 HD
ENDBRANCH   6  21
TORSDOF 7
ENDMDL
MODEL 3
REMARK VINA RESULT: -5.481636309      1.965      4.081
REMARK  7 active torsions:
REMARK  status: ('A' for Active; 'I' for Inactive)
REMARK    1  A    between atoms: C2_2  and  N1_3 
REMARK    2  A    between atoms: C4_8  and  N3_9 
REMARK    3  A    between atoms: C7_16  and  C8_17 
REMARK    4  A    between atoms: C8_17  and  C9_18 
REMARK    5  A    between atoms: C9_18  and  N5_19 
REMARK    6  A    between atoms: N5_19  and  C10_20 
REMARK    7  A    between atoms: N5_19  and  C12_22 
ROOT
HETATM    1  N1  UNL     1      36.015  39.044  -7.381  1.00  0.00    -0.376 N 
ATOM      2  H1  UNL     1      35.775  38.806  -8.344  1.00  0.00     0.161 HD
HETATM    3  C3  UNL     1      35.555  40.139  -6.931  1.00  0.00     0.125 A 
HETATM    4  N2  UNL     1      35.797  40.579  -5.660  1.00  0.00    -0.177 N 
ATOM      5  H2  UNL     1      36.372  40.013  -5.036  1.00  0.00     0.186 HD
HETATM    6  C4  UNL     1      35.297  41.735  -5.217  1.00  0.00     0.677 A 
HETATM    7  N4  UNL     1      34.524  42.559  -5.964  1.00  0.00    -0.196 N 
ATOM      8  H4  UNL     1      34.158  43.437  -5.594  1.00  0.00     0.184 HD
HETATM    9  C5  UNL     1      34.266  42.158  -7.220  1.00  0.00     0.032 A 
HETATM   10  C6  UNL     1      33.419  43.017  -8.086  1.00  0.00     0.069 C 
HETATM   11  C7  UNL     1      34.769  40.967  -7.703  1.00  0.00     0.011 A 
ENDROOT
BRANCH  11  12
HETATM   12  C8  UNL     1      34.475  40.518  -9.102  1.00  0.00     0.064 C 
BRANCH  12  13
HETATM   13  C9  UNL     1      33.157  39.807  -9.227  1.00  0.00     0.132 C 
BRANCH  13  14
HETATM   14  N5  UNL     1      32.415  40.349 -10.304  1.00  0.00    -0.374 N 
BRANCH  14  15
HETATM   15  C10 UNL     1      33.070  40.658 -11.494  1.00  0.00     0.058 C 
HETATM   16  C11 UNL     1      32.889  42.084 -11.969  1.00  0.00     0.055 C 
ENDBRANCH  14  15
BRANCH  14  17
HETATM   17  C12 UNL     1      31.030  40.413 -10.169  1.00  0.00     0.058 C 
HETATM   18  C13 UNL     1      30.422  39.037 -10.057  1.00  0.00     0.055 C 
ENDBRANCH  14  17
ENDBRANCH  13  14
ENDBRANCH  12  13
ENDBRANCH  11  12
BRANCH   1  19
HETATM   19  C2  UNL     1      36.839  38.111  -6.670  1.00  0.00     0.116 C 
HETATM   20  C1  UNL     1      37.430  37.056  -7.592  1.00  0.00     0.026 C 
ENDBRANCH   1  19
BRANCH   6  21
HETATM   21  N3  UNL     1      35.547  42.119  -4.010  1.00  0.00    -0.234 N 
ATOM     22  H32 UNL     1      34.997  41.681  -3.271  1.00  0.00     0.174 HD
ATOM     23  H31 UNL     1      36.264  42.825  -3.843  1.00  0.00     0.174 HD
ENDBRANCH   6  21
TORSDOF 7
ENDMDL
MODEL 4
REMARK VINA RESULT: -5.441468317      4.431      7.958
REMARK  7 active torsions:
REMARK  status: ('A' for Active; 'I' for Inactive)
REMARK    1  A    between atoms: C2_2  and  N1_3 
REMARK    2  A    between atoms: C4_8  and  N3_9 
REMARK    3  A    between atoms: C7_16  and  C8_17 
REMARK    4  A    between atoms: C8_17  and  C9_18 
REMARK    5  A    between atoms: C9_18  and  N5_19 
REMARK    6  A    between atoms: N5_19  and  C10_20 
REMARK    7  A    between atoms: N5_19  and  C12_22 
ROOT
HETATM    1  N1  UNL     1      35.041  42.267  -5.599  1.00  0.00    -0.376 N 
ATOM      2  H1  UNL     1      35.104  43.078  -4.983  1.00  0.00     0.161 HD
HETATM    3  C3  UNL     1      35.870  41.327  -5.394  1.00  0.00     0.125 A 
HETATM    4  N2  UNL     1      35.895  40.183  -6.142  1.00  0.00    -0.177 N 
ATOM      5  H2  UNL     1      35.224  40.069  -6.902  1.00  0.00     0.186 HD
HETATM    6  C4  UNL     1      36.779  39.212  -5.900  1.00  0.00     0.677 A 
HETATM    7  N4  UNL     1      37.709  39.267  -4.916  1.00  0.00    -0.196 N 
ATOM      8  H4  UNL     1      38.370  38.506  -4.758  1.00  0.00     0.184 HD
HETATM    9  C5  UNL     1      37.713  40.377  -4.160  1.00  0.00     0.032 A 
HETATM   10  C6  UNL     1      38.707  40.492  -3.063  1.00  0.00     0.069 C 
HETATM   11  C7  UNL     1      36.810  41.396  -4.389  1.00  0.00     0.011 A 
ENDROOT
BRANCH  11  12
HETATM   12  C8  UNL     1      36.812  42.631  -3.541  1.00  0.00     0.064 C 
BRANCH  12  13
HETATM   13  C9  UNL     1      36.038  42.469  -2.263  1.00  0.00     0.132 C 
BRANCH  13  14
HETATM   14  N5  UNL     1      36.598  43.288  -1.251  1.00  0.00    -0.374 N 
BRANCH  14  15
HETATM   15  C10 UNL     1      37.296  42.692  -0.203  1.00  0.00     0.058 C 
HETATM   16  C11 UNL     1      36.955  41.239   0.046  1.00  0.00     0.055 C 
ENDBRANCH  14  15
BRANCH  14  17
HETATM   17  C12 UNL     1      36.545  44.668  -1.433  1.00  0.00     0.058 C 
HETATM   18  C13 UNL     1      37.831  45.330  -1.007  1.00  0.00     0.055 C 
ENDBRANCH  14  17
ENDBRANCH  13  14
ENDBRANCH  12  13
ENDBRANCH  11  12
BRANCH   1  19
HETATM   19  C2  UNL     1      34.025  42.301  -6.611  1.00  0.00     0.116 C 
HETATM   20  C1  UNL     1      34.560  42.822  -7.935  1.00  0.00     0.026 C 
ENDBRANCH   1  19
BRANCH   6  21
HETATM   21  N3  UNL     1      36.773  38.147  -6.627  1.00  0.00    -0.234 N 
ATOM     22  H32 UNL     1      37.537  38.049  -7.296  1.00  0.00     0.174 HD
ATOM     23  H31 UNL     1      36.027  37.460  -6.510  1.00  0.00     0.174 HD
ENDBRANCH   6  21
TORSDOF 7
ENDMDL
MODEL 5
REMARK VINA RESULT: -5.429233256      1.968      3.947
REMARK  7 active torsions:
REMARK  status: ('A' for Active; 'I' for Inactive)
REMARK    1  A    between atoms: C2_2  and  N1_3 
REMARK    2  A    between atoms: C4_8  and  N3_9 
REMARK    3  A    between atoms: C7_16  and  C8_17 
REMARK    4  A    between atoms: C8_17  and  C9_18 
REMARK    5  A    between atoms: C9_18  and  N5_19 
REMARK    6  A    between atoms: N5_19  and  C10_20 
REMARK    7  A    between atoms: N5_19  and  C12_22 
ROOT
HETATM    1  N1  UNL     1      35.998  39.022  -7.418  1.00  0.00    -0.376 N 
ATOM      2  H1  UNL     1      35.765  38.788  -8.383  1.00  0.00     0.161 HD
HETATM    3  C3  UNL     1      35.531  40.113  -6.964  1.00  0.00     0.125 A 
HETATM    4  N2  UNL     1      35.764  40.547  -5.689  1.00  0.00    -0.177 N 
ATOM      5  H2  UNL     1      36.337  39.979  -5.065  1.00  0.00     0.186 HD
HETATM    6  C4  UNL     1      35.256  41.698  -5.243  1.00  0.00     0.677 A 
HETATM    7  N4  UNL     1      34.484  42.523  -5.990  1.00  0.00    -0.196 N 
ATOM      8  H4  UNL     1      34.112  43.397  -5.617  1.00  0.00     0.184 HD
HETATM    9  C5  UNL     1      34.235  42.127  -7.249  1.00  0.00     0.032 A 
HETATM   10  C6  UNL     1      33.390  42.988  -8.115  1.00  0.00     0.069 C 
HETATM   11  C7  UNL     1      34.746  40.942  -7.736  1.00  0.00     0.011 A 
ENDROOT
BRANCH  11  12
HETATM   12  C8  UNL     1      34.462  40.499  -9.140  1.00  0.00     0.064 C 
BRANCH  12  13
HETATM   13  C9  UNL     1      33.137  39.804  -9.281  1.00  0.00     0.132 C 
BRANCH  13  14
HETATM   14  N5  UNL     1      32.435  40.324 -10.395  1.00  0.00    -0.374 N 
BRANCH  14  15
HETATM   15  C10 UNL     1      31.057  40.514 -10.304  1.00  0.00     0.058 C 
HETATM   16  C11 UNL     1      30.246  39.243 -10.175  1.00  0.00     0.055 C 
ENDBRANCH  14  15
BRANCH  14  17
HETATM   17  C12 UNL     1      33.183  40.757 -11.487  1.00  0.00     0.058 C 
HETATM   18  C13 UNL     1      32.728  42.114 -11.966  1.00  0.00     0.055 C 
ENDBRANCH  14  17
ENDBRANCH  13  14
ENDBRANCH  12  13
ENDBRANCH  11  12
BRANCH   1  19
HETATM   19  C2  UNL     1      36.822  38.088  -6.707  1.00  0.00     0.116 C 
HETATM   20  C1  UNL     1      37.427  37.045  -7.632  1.00  0.00     0.026 C 
ENDBRANCH   1  19
BRANCH   6  21
HETATM   21  N3  UNL     1      35.497  42.075  -4.033  1.00  0.00    -0.234 N 
ATOM     22  H32 UNL     1      35.745  41.342  -3.369  1.00  0.00     0.174 HD
ATOM     23  H31 UNL     1      35.432  43.064  -3.790  1.00  0.00     0.174 HD
ENDBRANCH   6  21
TORSDOF 7
ENDMDL
