MODEL 1
REMARK VINA RESULT: -6.904346053      0.000      0.000
REMARK  8 active torsions:
REMARK  status: ('A' for Active; 'I' for Inactive)
REMARK    1  A    between atoms: C2_2  and  C3_3 
REMARK    2  A    between atoms: C3_3  and  C4_4 
REMARK    3  A    between atoms: C4_4  and  O1_5 
REMARK    4  A    between atoms: O1_5  and  C5_6 
REMARK    5  A    between atoms: C8_9  and  C9_10 
REMARK    6  A    between atoms: C9_10  and  O2_11 
REMARK    7  A    between atoms: C14_17  and  O3_18 
REMARK    8  A    between atoms: C15_20  and  O4_21 
ROOT
HETATM    1  C9  UNL     1      18.669   6.660  12.722  1.00  0.00     0.093 C 
HETATM    2  C10 UNL     1      18.866   7.946  11.947  1.00  0.00     0.051 C 
HETATM    3  C11 UNL     1      19.689   7.486  10.761  1.00  0.00     0.026 C 
HETATM    4  C12 UNL     1      19.787   5.970  10.835  1.00  0.00     0.018 C 
HETATM    5  C13 UNL     1      18.450   5.713  11.569  1.00  0.00     0.057 C 
HETATM    6  C14 UNL     1      17.344   6.039  10.635  1.00  0.00     0.157 C 
HETATM    7  C15 UNL     1      17.736   6.772   9.392  1.00  0.00     0.181 C 
HETATM    8  C16 UNL     1      18.858   7.745   9.518  1.00  0.00     0.205 C 
HETATM    9  F1  UNL     1      19.711   7.546   8.418  1.00  0.00    -0.246 F 
ENDROOT
BRANCH   1  10
HETATM   10  C8  UNL     1      17.733   6.684  13.777  1.00  0.00    -0.008 A 
HETATM   11  C7  UNL     1      17.301   7.874  14.388  1.00  0.00     0.016 A 
HETATM   12  C6  UNL     1      16.404   7.822  15.441  1.00  0.00     0.057 A 
HETATM   13  C5  UNL     1      15.880   6.689  15.961  1.00  0.00     0.141 A 
HETATM   14  N1  UNL     1      16.349   5.541  15.302  1.00  0.00    -0.346 N 
HETATM   15  C17 UNL     1      17.198   5.506  14.300  1.00  0.00     0.100 A 
ATOM     16  H1  UNL     1      15.994   4.644  15.635  1.00  0.00     0.167 HD
BRANCH  13  17
HETATM   17  O1  UNL     1      15.075   6.410  16.924  1.00  0.00    -0.336 OA
BRANCH  17  18
HETATM   18  C4  UNL     1      14.374   5.822  17.849  1.00  0.00     0.177 C 
BRANCH  18  19
HETATM   19  C3  UNL     1      15.063   4.697  18.623  1.00  0.00     0.026 C 
BRANCH  19  20
HETATM   20  C2  UNL     1      15.131   3.446  17.792  1.00  0.00    -0.002 C 
HETATM   21  C1  UNL     1      13.853   3.160  17.073  1.00  0.00     0.005 C 
ENDBRANCH  19  20
ENDBRANCH  18  19
ENDBRANCH  17  18
ENDBRANCH  13  17
ENDBRANCH   1  10
BRANCH   1  22
HETATM   22  O2  UNL     1      20.000   6.354  13.173  1.00  0.00    -0.384 OA
ATOM     23  H2  UNL     1      20.563   6.055  12.469  1.00  0.00     0.211 HD
ENDBRANCH   1  22
BRANCH   6  24
HETATM   24  O3  UNL     1      16.227   6.634  11.189  1.00  0.00    -0.392 OA
ATOM     25  H3  UNL     1      16.157   7.577  11.090  1.00  0.00     0.210 HD
ENDBRANCH   6  24
BRANCH   7  26
HETATM   26  O4  UNL     1      17.912   5.903   8.301  1.00  0.00    -0.390 OA
ATOM     27  H4  UNL     1      18.708   6.094   7.818  1.00  0.00     0.210 HD
ENDBRANCH   7  26
TORSDOF 8
ENDMDL
MODEL 2
REMARK VINA RESULT: -6.507299051      3.598      7.701
REMARK  8 active torsions:
REMARK  status: ('A' for Active; 'I' for Inactive)
REMARK    1  A    between atoms: C2_2  and  C3_3 
REMARK    2  A    between atoms: C3_3  and  C4_4 
REMARK    3  A    between atoms: C4_4  and  O1_5 
REMARK    4  A    between atoms: O1_5  and  C5_6 
REMARK    5  A    between atoms: C8_9  and  C9_10 
REMARK    6  A    between atoms: C9_10  and  O2_11 
REMARK    7  A    between atoms: C14_17  and  O3_18 
REMARK    8  A    between atoms: C15_20  and  O4_21 
ROOT
HETATM    1  C9  UNL     1      15.960   5.220  14.834  1.00  0.00     0.093 C 
HETATM    2  C10 UNL     1      15.853   5.827  16.218  1.00  0.00     0.051 C 
HETATM    3  C11 UNL     1      14.652   5.106  16.795  1.00  0.00     0.026 C 
HETATM    4  C12 UNL     1      14.237   4.039  15.794  1.00  0.00     0.018 C 
HETATM    5  C13 UNL     1      15.631   3.788  15.171  1.00  0.00     0.057 C 
HETATM    6  C14 UNL     1      16.479   3.129  16.195  1.00  0.00     0.157 C 
HETATM    7  C15 UNL     1      15.934   3.126  17.587  1.00  0.00     0.181 C 
HETATM    8  C16 UNL     1      15.142   4.319  17.996  1.00  0.00     0.205 C 
HETATM    9  F1  UNL     1      13.996   3.854  18.664  1.00  0.00    -0.246 F 
ENDROOT
BRANCH   1  10
HETATM   10  C8  UNL     1      17.132   5.500  14.100  1.00  0.00    -0.008 A 
HETATM   11  C7  UNL     1      18.015   6.540  14.439  1.00  0.00     0.016 A 
HETATM   12  C6  UNL     1      19.130   6.780  13.655  1.00  0.00     0.057 A 
HETATM   13  C5  UNL     1      19.467   6.081  12.548  1.00  0.00     0.141 A 
HETATM   14  N1  UNL     1      18.547   5.057  12.270  1.00  0.00    -0.346 N 
HETATM   15  C17 UNL     1      17.468   4.767  12.962  1.00  0.00     0.100 A 
ATOM     16  H1  UNL     1      18.735   4.480  11.450  1.00  0.00     0.167 HD
BRANCH  13  17
HETATM   17  O1  UNL     1      20.412   6.142  11.678  1.00  0.00    -0.336 OA
BRANCH  17  18
HETATM   18  C4  UNL     1      21.559   6.162  11.064  1.00  0.00     0.177 C 
BRANCH  18  19
HETATM   19  C3  UNL     1      22.587   7.180  11.559  1.00  0.00     0.026 C 
BRANCH  19  20
HETATM   20  C2  UNL     1      23.983   6.726  11.233  1.00  0.00    -0.002 C 
HETATM   21  C1  UNL     1      24.904   6.806  12.406  1.00  0.00     0.005 C 
ENDBRANCH  19  20
ENDBRANCH  18  19
ENDBRANCH  17  18
ENDBRANCH  13  17
ENDBRANCH   1  10
BRANCH   1  22
HETATM   22  O2  UNL     1      14.773   5.704  14.182  1.00  0.00    -0.384 OA
ATOM     23  H2  UNL     1      14.609   5.267  13.355  1.00  0.00     0.211 HD
ENDBRANCH   1  22
BRANCH   6  24
HETATM   24  O3  UNL     1      17.810   3.497  16.221  1.00  0.00    -0.392 OA
ATOM     25  H3  UNL     1      18.209   3.699  15.382  1.00  0.00     0.210 HD
ENDBRANCH   6  24
BRANCH   7  26
HETATM   26  O4  UNL     1      15.272   1.923  17.892  1.00  0.00    -0.390 OA
ATOM     27  H4  UNL     1      14.333   1.990  17.757  1.00  0.00     0.210 HD
ENDBRANCH   7  26
TORSDOF 8
ENDMDL
MODEL 3
REMARK VINA RESULT: -6.480594361      1.387      2.342
REMARK  8 active torsions:
REMARK  status: ('A' for Active; 'I' for Inactive)
REMARK    1  A    between atoms: C2_2  and  C3_3 
REMARK    2  A    between atoms: C3_3  and  C4_4 
REMARK    3  A    between atoms: C4_4  and  O1_5 
REMARK    4  A    between atoms: O1_5  and  C5_6 
REMARK    5  A    between atoms: C8_9  and  C9_10 
REMARK    6  A    between atoms: C9_10  and  O2_11 
REMARK    7  A    between atoms: C14_17  and  O3_18 
REMARK    8  A    between atoms: C15_20  and  O4_21 
ROOT
HETATM    1  C9  UNL     1      17.551   7.580  12.502  1.00  0.00     0.093 C 
HETATM    2  C10 UNL     1      17.682   6.429  11.525  1.00  0.00     0.051 C 
HETATM    3  C11 UNL     1      18.706   6.956  10.541  1.00  0.00     0.026 C 
HETATM    4  C12 UNL     1      19.212   8.286  11.077  1.00  0.00     0.018 C 
HETATM    5  C13 UNL     1      18.998   7.996  12.582  1.00  0.00     0.057 C 
HETATM    6  C14 UNL     1      19.973   6.954  12.991  1.00  0.00     0.157 C 
HETATM    7  C15 UNL     1      20.686   6.257  11.878  1.00  0.00     0.181 C 
HETATM    8  C16 UNL     1      19.912   6.038  10.623  1.00  0.00     0.205 C 
HETATM    9  F1  UNL     1      20.750   6.382   9.548  1.00  0.00    -0.246 F 
ENDROOT
BRANCH   1  10
HETATM   10  C8  UNL     1      16.841   7.330  13.695  1.00  0.00    -0.008 A 
HETATM   11  C7  UNL     1      16.872   8.201  14.799  1.00  0.00     0.016 A 
HETATM   12  C6  UNL     1      16.178   7.877  15.951  1.00  0.00     0.057 A 
HETATM   13  C5  UNL     1      15.442   6.756  16.127  1.00  0.00     0.141 A 
HETATM   14  N1  UNL     1      15.450   5.936  14.987  1.00  0.00    -0.346 N 
HETATM   15  C17 UNL     1      16.083   6.171  13.860  1.00  0.00     0.100 A 
ATOM     16  H1  UNL     1      14.912   5.071  15.041  1.00  0.00     0.167 HD
BRANCH  13  17
HETATM   17  O1  UNL     1      14.755   6.253  17.091  1.00  0.00    -0.336 OA
BRANCH  17  18
HETATM   18  C4  UNL     1      14.357   5.646  18.171  1.00  0.00     0.177 C 
BRANCH  18  19
HETATM   19  C3  UNL     1      15.145   4.404  18.592  1.00  0.00     0.026 C 
BRANCH  19  20
HETATM   20  C2  UNL     1      15.144   3.378  17.492  1.00  0.00    -0.002 C 
HETATM   21  C1  UNL     1      13.767   2.939  17.114  1.00  0.00     0.005 C 
ENDBRANCH  19  20
ENDBRANCH  18  19
ENDBRANCH  17  18
ENDBRANCH  13  17
ENDBRANCH   1  10
BRANCH   1  22
HETATM   22  O2  UNL     1      16.939   8.607  11.702  1.00  0.00    -0.384 OA
ATOM     23  H2  UNL     1      16.781   9.404  12.194  1.00  0.00     0.211 HD
ENDBRANCH   1  22
BRANCH   6  24
HETATM   24  O3  UNL     1      19.528   6.023  13.909  1.00  0.00    -0.392 OA
ATOM     25  H3  UNL     1      20.181   5.667  14.501  1.00  0.00     0.210 HD
ENDBRANCH   6  24
BRANCH   7  26
HETATM   26  O4  UNL     1      21.949   6.820  11.627  1.00  0.00    -0.390 OA
ATOM     27  H4  UNL     1      22.473   6.886  12.417  1.00  0.00     0.210 HD
ENDBRANCH   7  26
TORSDOF 8
ENDMDL
MODEL 4
REMARK VINA RESULT: -6.468292432      1.677      3.013
REMARK  8 active torsions:
REMARK  status: ('A' for Active; 'I' for Inactive)
REMARK    1  A    between atoms: C2_2  and  C3_3 
REMARK    2  A    between atoms: C3_3  and  C4_4 
REMARK    3  A    between atoms: C4_4  and  O1_5 
REMARK    4  A    between atoms: O1_5  and  C5_6 
REMARK    5  A    between atoms: C8_9  and  C9_10 
REMARK    6  A    between atoms: C9_10  and  O2_11 
REMARK    7  A    between atoms: C14_17  and  O3_18 
REMARK    8  A    between atoms: C15_20  and  O4_21 
ROOT
HETATM    1  C9  UNL     1      17.793   6.245  11.808  1.00  0.00     0.093 C 
HETATM    2  C10 UNL     1      18.091   5.721  10.419  1.00  0.00     0.051 C 
HETATM    3  C11 UNL     1      18.773   6.906   9.766  1.00  0.00     0.026 C 
HETATM    4  C12 UNL     1      18.965   7.969  10.837  1.00  0.00     0.018 C 
HETATM    5  C13 UNL     1      19.065   7.018  12.053  1.00  0.00     0.057 C 
HETATM    6  C14 UNL     1      20.339   6.265  11.944  1.00  0.00     0.157 C 
HETATM    7  C15 UNL     1      21.044   6.367  10.630  1.00  0.00     0.181 C 
HETATM    8  C16 UNL     1      20.184   6.469   9.417  1.00  0.00     0.205 C 
HETATM    9  F1  UNL     1      20.725   7.479   8.602  1.00  0.00    -0.246 F 
ENDROOT
BRANCH   1  10
HETATM   10  C8  UNL     1      17.366   5.306  12.770  1.00  0.00    -0.008 A 
HETATM   11  C7  UNL     1      16.954   4.004  12.435  1.00  0.00     0.016 A 
HETATM   12  C6  UNL     1      16.516   3.143  13.426  1.00  0.00     0.057 A 
HETATM   13  C5  UNL     1      16.441   3.447  14.742  1.00  0.00     0.141 A 
HETATM   14  N1  UNL     1      16.871   4.758  15.006  1.00  0.00    -0.346 N 
HETATM   15  C17 UNL     1      17.299   5.633  14.124  1.00  0.00     0.100 A 
ATOM     16  H1  UNL     1      16.849   5.060  15.980  1.00  0.00     0.167 HD
BRANCH  13  17
HETATM   17  O1  UNL     1      16.053   2.833  15.804  1.00  0.00    -0.336 OA
BRANCH  17  18
HETATM   18  C4  UNL     1      15.430   2.448  16.879  1.00  0.00     0.177 C 
BRANCH  18  19
HETATM   19  C3  UNL     1      14.375   3.401  17.442  1.00  0.00     0.026 C 
BRANCH  19  20
HETATM   20  C2  UNL     1      15.029   4.551  18.158  1.00  0.00    -0.002 C 
HETATM   21  C1  UNL     1      14.687   5.875  17.556  1.00  0.00     0.005 C 
ENDBRANCH  19  20
ENDBRANCH  18  19
ENDBRANCH  17  18
ENDBRANCH  13  17
ENDBRANCH   1  10
BRANCH   1  22
HETATM   22  O2  UNL     1      16.811   7.265  11.559  1.00  0.00    -0.384 OA
ATOM     23  H2  UNL     1      16.948   7.708  10.730  1.00  0.00     0.211 HD
ENDBRANCH   1  22
BRANCH   6  24
HETATM   24  O3  UNL     1      20.309   4.946  12.351  1.00  0.00    -0.392 OA
ATOM     25  H3  UNL     1      19.618   4.706  12.957  1.00  0.00     0.210 HD
ENDBRANCH   6  24
BRANCH   7  26
HETATM   26  O4  UNL     1      22.051   7.348  10.646  1.00  0.00    -0.390 OA
ATOM     27  H4  UNL     1      22.907   6.982  10.454  1.00  0.00     0.210 HD
ENDBRANCH   7  26
TORSDOF 8
ENDMDL
MODEL 5
REMARK VINA RESULT: -6.455816565      0.722      1.109
REMARK  8 active torsions:
REMARK  status: ('A' for Active; 'I' for Inactive)
REMARK    1  A    between atoms: C2_2  and  C3_3 
REMARK    2  A    between atoms: C3_3  and  C4_4 
REMARK    3  A    between atoms: C4_4  and  O1_5 
REMARK    4  A    between atoms: O1_5  and  C5_6 
REMARK    5  A    between atoms: C8_9  and  C9_10 
REMARK    6  A    between atoms: C9_10  and  O2_11 
REMARK    7  A    between atoms: C14_17  and  O3_18 
REMARK    8  A    between atoms: C15_20  and  O4_21 
ROOT
HETATM    1  C9  UNL     1      18.842   6.640  12.265  1.00  0.00     0.093 C 
HETATM    2  C10 UNL     1      18.805   8.009  11.618  1.00  0.00     0.051 C 
HETATM    3  C11 UNL     1      19.593   7.786  10.343  1.00  0.00     0.026 C 
HETATM    4  C12 UNL     1      19.901   6.300  10.252  1.00  0.00     0.018 C 
HETATM    5  C13 UNL     1      18.669   5.786  11.034  1.00  0.00     0.057 C 
HETATM    6  C14 UNL     1      17.462   6.040  10.207  1.00  0.00     0.157 C 
HETATM    7  C15 UNL     1      17.659   6.936   9.027  1.00  0.00     0.181 C 
HETATM    8  C16 UNL     1      18.645   8.042   9.186  1.00  0.00     0.205 C 
HETATM    9  F1  UNL     1      19.434   8.073   8.023  1.00  0.00    -0.246 F 
ENDROOT
BRANCH   1  10
HETATM   10  C8  UNL     1      17.992   6.429  13.371  1.00  0.00    -0.008 A 
HETATM   11  C7  UNL     1      17.512   5.159  13.734  1.00  0.00     0.016 A 
HETATM   12  C6  UNL     1      16.655   5.029  14.813  1.00  0.00     0.057 A 
HETATM   13  C5  UNL     1      16.215   6.050  15.583  1.00  0.00     0.141 A 
HETATM   14  N1  UNL     1      16.736   7.286  15.169  1.00  0.00    -0.346 N 
HETATM   15  C17 UNL     1      17.551   7.492  14.159  1.00  0.00     0.100 A 
ATOM     16  H1  UNL     1      16.453   8.107  15.706  1.00  0.00     0.167 HD
BRANCH  13  17
HETATM   17  O1  UNL     1      15.420   6.163  16.588  1.00  0.00    -0.336 OA
BRANCH  17  18
HETATM   18  C4  UNL     1      14.554   5.960  17.538  1.00  0.00     0.177 C 
BRANCH  18  19
HETATM   19  C3  UNL     1      14.881   4.854  18.542  1.00  0.00     0.026 C 
BRANCH  19  20
HETATM   20  C2  UNL     1      15.099   3.544  17.836  1.00  0.00    -0.002 C 
HETATM   21  C1  UNL     1      13.869   3.047  17.150  1.00  0.00     0.005 C 
ENDBRANCH  19  20
ENDBRANCH  18  19
ENDBRANCH  17  18
ENDBRANCH  13  17
ENDBRANCH   1  10
BRANCH   1  22
HETATM   22  O2  UNL     1      20.232   6.485  12.601  1.00  0.00    -0.384 OA
ATOM     23  H2  UNL     1      20.804   6.969  12.016  1.00  0.00     0.211 HD
ENDBRANCH   1  22
BRANCH   6  24
HETATM   24  O3  UNL     1      16.320   6.414  10.886  1.00  0.00    -0.392 OA
ATOM     25  H3  UNL     1      15.883   7.200  10.579  1.00  0.00     0.210 HD
ENDBRANCH   6  24
BRANCH   7  26
HETATM   26  O4  UNL     1      17.869   6.209   7.842  1.00  0.00    -0.390 OA
ATOM     27  H4  UNL     1      18.452   6.664   7.244  1.00  0.00     0.210 HD
ENDBRANCH   7  26
TORSDOF 8
ENDMDL
