MODEL 1
REMARK VINA RESULT: -7.599847528      0.000      0.000
REMARK  5 active torsions:
REMARK  status: ('A' for Active; 'I' for Inactive)
REMARK    1  A    between atoms: C7_8  and  N1_9 
REMARK    2  A    between atoms: N1_9  and  C8_11 
REMARK    3  A    between atoms: C8_11  and  C9_12 
REMARK    4  A    between atoms: C9_12  and  C10_13 
REMARK    5  A    between atoms: N2_14  and  C11_16 
ROOT
HETATM    1  C11 UNL     1      17.325   6.932  12.462  1.00  0.00     0.138 A 
HETATM    2  N3  UNL     1      16.841   5.672  12.464  1.00  0.00    -0.318 N 
ATOM      3  H3  UNL     1      15.833   5.534  12.535  1.00  0.00     0.169 HD
HETATM    4  C12 UNL     1      17.635   4.597  12.377  1.00  0.00     0.191 A 
HETATM    5  C13 UNL     1      17.037   3.268  12.390  1.00  0.00     0.137 C 
HETATM    6  N4  UNL     1      16.551   2.216  12.419  1.00  0.00    -0.188 NA
HETATM    7  N5  UNL     1      18.975   4.741  12.281  1.00  0.00    -0.318 N 
ATOM      8  H5  UNL     1      19.561   3.908  12.215  1.00  0.00     0.169 HD
HETATM    9  C14 UNL     1      19.556   5.950  12.271  1.00  0.00     0.139 A 
HETATM   10  N6  UNL     1      20.813   6.421  12.186  1.00  0.00    -0.337 N 
ATOM     11  H6  UNL     1      21.644   5.837  12.108  1.00  0.00     0.168 HD
HETATM   12  C15 UNL     1      20.829   7.763  12.217  1.00  0.00     0.182 A 
HETATM   13  N7  UNL     1      19.521   8.134  12.326  1.00  0.00    -0.346 N 
ATOM     14  H7  UNL     1      19.188   9.097  12.375  1.00  0.00     0.167 HD
HETATM   15  C16 UNL     1      18.732   7.043  12.361  1.00  0.00     0.122 A 
ENDROOT
BRANCH   1  16
HETATM   16  N2  UNL     1      16.699   7.984  12.532  1.00  0.00    -0.354 N 
HETATM   17  C10 UNL     1      15.520   8.643  12.667  1.00  0.00     0.064 C 
ATOM     18  H2  UNL     1      17.403   8.717  12.447  1.00  0.00     0.166 HD
BRANCH  17  19
HETATM   19  C9  UNL     1      14.441   7.984  13.490  1.00  0.00     0.063 C 
BRANCH  19  20
HETATM   20  C8  UNL     1      14.898   7.566  14.848  1.00  0.00     0.119 C 
BRANCH  20  21
HETATM   21  N1  UNL     1      14.763   6.149  15.036  1.00  0.00    -0.416 N 
ATOM     22  H1  UNL     1      14.138   5.592  14.454  1.00  0.00     0.153 HD
BRANCH  21  23
HETATM   23  C7  UNL     1      15.546   5.552  16.081  1.00  0.00     0.083 C 
HETATM   24  C2  UNL     1      15.634   4.069  16.002  1.00  0.00     0.038 C 
HETATM   25  C1  UNL     1      17.049   3.540  16.090  1.00  0.00     0.015 C 
HETATM   26  C3  UNL     1      14.701   3.329  16.934  1.00  0.00     0.175 C 
HETATM   27  F1  UNL     1      13.422   3.760  16.611  1.00  0.00    -0.249 F 
HETATM   28  C4  UNL     1      14.987   3.804  18.337  1.00  0.00     0.038 C 
HETATM   29  C5  UNL     1      14.527   5.245  18.387  1.00  0.00     0.005 C 
HETATM   30  C6  UNL     1      15.227   6.126  17.433  1.00  0.00     0.025 C 
ENDBRANCH  21  23
ENDBRANCH  20  21
ENDBRANCH  19  20
ENDBRANCH  17  19
ENDBRANCH   1  16
TORSDOF 5
ENDMDL
MODEL 2
REMARK VINA RESULT: -7.502923518      2.981      5.770
REMARK  5 active torsions:
REMARK  status: ('A' for Active; 'I' for Inactive)
REMARK    1  A    between atoms: C7_8  and  N1_9 
REMARK    2  A    between atoms: N1_9  and  C8_11 
REMARK    3  A    between atoms: C8_11  and  C9_12 
REMARK    4  A    between atoms: C9_12  and  C10_13 
REMARK    5  A    between atoms: N2_14  and  C11_16 
ROOT
HETATM    1  C11 UNL     1      15.620   5.299  14.615  1.00  0.00     0.138 A 
HETATM    2  N3  UNL     1      15.846   5.199  13.288  1.00  0.00    -0.318 N 
ATOM      3  H3  UNL     1      15.620   5.993  12.691  1.00  0.00     0.169 HD
HETATM    4  C12 UNL     1      16.356   4.094  12.727  1.00  0.00     0.191 A 
HETATM    5  C13 UNL     1      16.568   4.061  11.286  1.00  0.00     0.137 C 
HETATM    6  N4  UNL     1      16.715   4.040  10.136  1.00  0.00    -0.188 NA
HETATM    7  N5  UNL     1      16.669   3.021  13.488  1.00  0.00    -0.318 N 
ATOM      8  H5  UNL     1      17.057   2.191  13.039  1.00  0.00     0.169 HD
HETATM    9  C14 UNL     1      16.482   3.019  14.816  1.00  0.00     0.139 A 
HETATM   10  N6  UNL     1      16.684   2.150  15.822  1.00  0.00    -0.337 N 
ATOM     11  H6  UNL     1      17.067   1.213  15.707  1.00  0.00     0.168 HD
HETATM   12  C15 UNL     1      16.315   2.680  16.999  1.00  0.00     0.182 A 
HETATM   13  N7  UNL     1      15.865   3.932  16.702  1.00  0.00    -0.346 N 
ATOM     14  H7  UNL     1      15.509   4.603  17.384  1.00  0.00     0.167 HD
HETATM   15  C16 UNL     1      15.959   4.156  15.378  1.00  0.00     0.122 A 
ENDROOT
BRANCH   1  16
HETATM   16  N2  UNL     1      15.165   6.253  15.236  1.00  0.00    -0.354 N 
HETATM   17  C10 UNL     1      15.359   7.363  15.993  1.00  0.00     0.064 C 
ATOM     18  H2  UNL     1      14.153   6.177  15.133  1.00  0.00     0.166 HD
BRANCH  17  19
HETATM   19  C9  UNL     1      16.621   8.157  15.759  1.00  0.00     0.063 C 
BRANCH  19  20
HETATM   20  C8  UNL     1      17.212   7.953  14.404  1.00  0.00     0.119 C 
BRANCH  20  21
HETATM   21  N1  UNL     1      16.750   8.943  13.473  1.00  0.00    -0.416 N 
ATOM     22  H1  UNL     1      17.000   9.926  13.572  1.00  0.00     0.153 HD
BRANCH  21  23
HETATM   23  C7  UNL     1      15.919   8.486  12.395  1.00  0.00     0.083 C 
HETATM   24  C2  UNL     1      16.379   8.920  11.047  1.00  0.00     0.038 C 
HETATM   25  C1  UNL     1      16.473   7.789  10.046  1.00  0.00     0.015 C 
HETATM   26  C3  UNL     1      15.640  10.110  10.478  1.00  0.00     0.175 C 
HETATM   27  F1  UNL     1      15.801  11.133  11.403  1.00  0.00    -0.249 F 
HETATM   28  C4  UNL     1      14.172   9.766  10.453  1.00  0.00     0.038 C 
HETATM   29  C5  UNL     1      13.739   9.692  11.901  1.00  0.00     0.005 C 
HETATM   30  C6  UNL     1      14.455   8.669  12.685  1.00  0.00     0.025 C 
ENDBRANCH  21  23
ENDBRANCH  20  21
ENDBRANCH  19  20
ENDBRANCH  17  19
ENDBRANCH   1  16
TORSDOF 5
ENDMDL
MODEL 3
REMARK VINA RESULT: -7.474594402      1.536      1.863
REMARK  5 active torsions:
REMARK  status: ('A' for Active; 'I' for Inactive)
REMARK    1  A    between atoms: C7_8  and  N1_9 
REMARK    2  A    between atoms: N1_9  and  C8_11 
REMARK    3  A    between atoms: C8_11  and  C9_12 
REMARK    4  A    between atoms: C9_12  and  C10_13 
REMARK    5  A    between atoms: N2_14  and  C11_16 
ROOT
HETATM    1  C11 UNL     1      17.514   6.721  12.716  1.00  0.00     0.138 A 
HETATM    2  N3  UNL     1      17.266   5.427  13.007  1.00  0.00    -0.318 N 
ATOM      3  H3  UNL     1      17.240   5.141  13.986  1.00  0.00     0.169 HD
HETATM    4  C12 UNL     1      17.052   4.505  12.059  1.00  0.00     0.191 A 
HETATM    5  C13 UNL     1      16.793   3.127  12.453  1.00  0.00     0.137 C 
HETATM    6  N4  UNL     1      16.606   2.029  12.779  1.00  0.00    -0.188 NA
HETATM    7  N5  UNL     1      17.077   4.848  10.752  1.00  0.00    -0.318 N 
ATOM      8  H5  UNL     1      16.911   4.129  10.047  1.00  0.00     0.169 HD
HETATM    9  C14 UNL     1      17.316   6.107  10.357  1.00  0.00     0.139 A 
HETATM   10  N6  UNL     1      17.403   6.755   9.182  1.00  0.00    -0.337 N 
ATOM     11  H6  UNL     1      17.285   6.315   8.270  1.00  0.00     0.168 HD
HETATM   12  C15 UNL     1      17.666   8.059   9.367  1.00  0.00     0.182 A 
HETATM   13  N7  UNL     1      17.744   8.219  10.719  1.00  0.00    -0.346 N 
ATOM     14  H7  UNL     1      17.934   9.102  11.193  1.00  0.00     0.167 HD
HETATM   15  C16 UNL     1      17.534   7.042  11.338  1.00  0.00     0.122 A 
ENDROOT
BRANCH   1  16
HETATM   16  N2  UNL     1      17.719   7.647  13.494  1.00  0.00    -0.354 N 
HETATM   17  C10 UNL     1      17.326   8.403  14.550  1.00  0.00     0.064 C 
ATOM     18  H2  UNL     1      18.618   8.037  13.210  1.00  0.00     0.166 HD
BRANCH  17  19
HETATM   19  C9  UNL     1      16.491   7.735  15.615  1.00  0.00     0.063 C 
BRANCH  19  20
HETATM   20  C8  UNL     1      15.081   7.481  15.195  1.00  0.00     0.119 C 
BRANCH  20  21
HETATM   21  N1  UNL     1      14.658   6.155  15.545  1.00  0.00    -0.416 N 
ATOM     22  H1  UNL     1      13.803   5.750  15.164  1.00  0.00     0.153 HD
BRANCH  21  23
HETATM   23  C7  UNL     1      15.492   5.424  16.457  1.00  0.00     0.083 C 
HETATM   24  C2  UNL     1      15.719   4.005  16.069  1.00  0.00     0.038 C 
HETATM   25  C1  UNL     1      17.177   3.600  16.074  1.00  0.00     0.015 C 
HETATM   26  C3  UNL     1      14.857   3.002  16.803  1.00  0.00     0.175 C 
HETATM   27  F1  UNL     1      13.544   3.374  16.551  1.00  0.00    -0.249 F 
HETATM   28  C4  UNL     1      15.094   3.192  18.280  1.00  0.00     0.038 C 
HETATM   29  C5  UNL     1      14.502   4.542  18.623  1.00  0.00     0.005 C 
HETATM   30  C6  UNL     1      15.118   5.665  17.893  1.00  0.00     0.025 C 
ENDBRANCH  21  23
ENDBRANCH  20  21
ENDBRANCH  19  20
ENDBRANCH  17  19
ENDBRANCH   1  16
TORSDOF 5
ENDMDL
MODEL 4
REMARK VINA RESULT: -7.366708509      3.380      6.191
REMARK  5 active torsions:
REMARK  status: ('A' for Active; 'I' for Inactive)
REMARK    1  A    between atoms: C7_8  and  N1_9 
REMARK    2  A    between atoms: N1_9  and  C8_11 
REMARK    3  A    between atoms: C8_11  and  C9_12 
REMARK    4  A    between atoms: C9_12  and  C10_13 
REMARK    5  A    between atoms: N2_14  and  C11_16 
ROOT
HETATM    1  C11 UNL     1      16.595   4.527  13.877  1.00  0.00     0.138 A 
HETATM    2  N3  UNL     1      16.423   3.504  14.741  1.00  0.00    -0.318 N 
ATOM      3  H3  UNL     1      16.874   2.612  14.541  1.00  0.00     0.169 HD
HETATM    4  C12 UNL     1      15.683   3.619  15.851  1.00  0.00     0.191 A 
HETATM    5  C13 UNL     1      15.541   2.468  16.733  1.00  0.00     0.137 C 
HETATM    6  N4  UNL     1      15.422   1.540  17.418  1.00  0.00    -0.188 NA
HETATM    7  N5  UNL     1      15.070   4.787  16.149  1.00  0.00    -0.318 N 
ATOM      8  H5  UNL     1      14.512   4.851  17.001  1.00  0.00     0.169 HD
HETATM    9  C14 UNL     1      15.178   5.862  15.356  1.00  0.00     0.139 A 
HETATM   10  N6  UNL     1      14.717   7.126  15.367  1.00  0.00    -0.337 N 
ATOM     11  H6  UNL     1      14.118   7.515  16.094  1.00  0.00     0.168 HD
HETATM   12  C15 UNL     1      15.148   7.807  14.293  1.00  0.00     0.182 A 
HETATM   13  N7  UNL     1      15.910   6.921  13.590  1.00  0.00    -0.346 N 
ATOM     14  H7  UNL     1      16.388   7.128  12.713  1.00  0.00     0.167 HD
HETATM   15  C16 UNL     1      15.939   5.732  14.221  1.00  0.00     0.122 A 
ENDROOT
BRANCH   1  16
HETATM   16  N2  UNL     1      17.249   4.540  12.839  1.00  0.00    -0.354 N 
HETATM   17  C10 UNL     1      18.213   5.100  12.064  1.00  0.00     0.064 C 
ATOM     18  H2  UNL     1      16.901   3.748  12.298  1.00  0.00     0.166 HD
BRANCH  17  19
HETATM   19  C9  UNL     1      19.368   5.773  12.763  1.00  0.00     0.063 C 
BRANCH  19  20
HETATM   20  C8  UNL     1      19.370   7.259  12.616  1.00  0.00     0.119 C 
BRANCH  20  21
HETATM   21  N1  UNL     1      19.254   7.914  13.887  1.00  0.00    -0.416 N 
ATOM     22  H1  UNL     1      19.640   7.502  14.736  1.00  0.00     0.153 HD
BRANCH  21  23
HETATM   23  C7  UNL     1      18.570   9.177  13.911  1.00  0.00     0.083 C 
HETATM   24  C2  UNL     1      19.093  10.169  12.932  1.00  0.00     0.038 C 
HETATM   25  C1  UNL     1      18.016  10.803  12.079  1.00  0.00     0.015 C 
HETATM   26  C3  UNL     1      20.026  11.205  13.517  1.00  0.00     0.175 C 
HETATM   27  F1  UNL     1      21.068  10.493  14.095  1.00  0.00    -0.249 F 
HETATM   28  C4  UNL     1      19.291  11.900  14.636  1.00  0.00     0.038 C 
HETATM   29  C5  UNL     1      19.124  10.864  15.727  1.00  0.00     0.005 C 
HETATM   30  C6  UNL     1      18.349   9.681  15.310  1.00  0.00     0.025 C 
ENDBRANCH  21  23
ENDBRANCH  20  21
ENDBRANCH  19  20
ENDBRANCH  17  19
ENDBRANCH   1  16
TORSDOF 5
ENDMDL
MODEL 5
REMARK VINA RESULT: -7.338367683      2.812      6.165
REMARK  5 active torsions:
REMARK  status: ('A' for Active; 'I' for Inactive)
REMARK    1  A    between atoms: C7_8  and  N1_9 
REMARK    2  A    between atoms: N1_9  and  C8_11 
REMARK    3  A    between atoms: C8_11  and  C9_12 
REMARK    4  A    between atoms: C9_12  and  C10_13 
REMARK    5  A    between atoms: N2_14  and  C11_16 
ROOT
HETATM    1  C11 UNL     1      15.680   5.716  15.537  1.00  0.00     0.138 A 
HETATM    2  N3  UNL     1      16.065   5.048  14.430  1.00  0.00    -0.318 N 
ATOM      3  H3  UNL     1      16.238   5.574  13.574  1.00  0.00     0.169 HD
HETATM    4  C12 UNL     1      16.230   3.718  14.414  1.00  0.00     0.191 A 
HETATM    5  C13 UNL     1      16.644   3.067  13.179  1.00  0.00     0.137 C 
HETATM    6  N4  UNL     1      16.958   2.559  12.184  1.00  0.00    -0.188 NA
HETATM    7  N5  UNL     1      16.011   2.987  15.530  1.00  0.00    -0.318 N 
ATOM      8  H5  UNL     1      16.143   1.976  15.495  1.00  0.00     0.169 HD
HETATM    9  C14 UNL     1      15.625   3.556  16.682  1.00  0.00     0.139 A 
HETATM   10  N6  UNL     1      15.338   3.131  17.925  1.00  0.00    -0.337 N 
ATOM     11  H6  UNL     1      15.374   2.157  18.224  1.00  0.00     0.168 HD
HETATM   12  C15 UNL     1      14.998   4.158  18.721  1.00  0.00     0.182 A 
HETATM   13  N7  UNL     1      15.080   5.265  17.929  1.00  0.00    -0.346 N 
ATOM     14  H7  UNL     1      14.883   6.218  18.235  1.00  0.00     0.167 HD
HETATM   15  C16 UNL     1      15.460   4.918  16.685  1.00  0.00     0.122 A 
ENDROOT
BRANCH   1  16
HETATM   16  N2  UNL     1      15.503   6.922  15.670  1.00  0.00    -0.354 N 
HETATM   17  C10 UNL     1      15.998   8.163  15.909  1.00  0.00     0.064 C 
ATOM     18  H2  UNL     1      14.501   7.058  15.537  1.00  0.00     0.166 HD
BRANCH  17  19
HETATM   19  C9  UNL     1      17.408   8.453  15.456  1.00  0.00     0.063 C 
BRANCH  19  20
HETATM   20  C8  UNL     1      17.631   8.199  14.002  1.00  0.00     0.119 C 
BRANCH  20  21
HETATM   21  N1  UNL     1      16.925   9.146  13.187  1.00  0.00    -0.416 N 
ATOM     22  H1  UNL     1      17.051  10.150  13.307  1.00  0.00     0.153 HD
BRANCH  21  23
HETATM   23  C7  UNL     1      16.034   8.615  12.194  1.00  0.00     0.083 C 
HETATM   24  C2  UNL     1      16.277   9.133  10.820  1.00  0.00     0.038 C 
HETATM   25  C1  UNL     1      16.388   8.045   9.774  1.00  0.00     0.015 C 
HETATM   26  C3  UNL     1      15.340  10.236  10.383  1.00  0.00     0.175 C 
HETATM   27  F1  UNL     1      15.484  11.249  11.321  1.00  0.00    -0.249 F 
HETATM   28  C4  UNL     1      13.930   9.714  10.512  1.00  0.00     0.038 C 
HETATM   29  C5  UNL     1      13.683   9.554  11.997  1.00  0.00     0.005 C 
HETATM   30  C6  UNL     1      14.603   8.609  12.656  1.00  0.00     0.025 C 
ENDBRANCH  21  23
ENDBRANCH  20  21
ENDBRANCH  19  20
ENDBRANCH  17  19
ENDBRANCH   1  16
TORSDOF 5
ENDMDL
