MODEL 1
REMARK VINA RESULT: -7.465147878      0.000      0.000
REMARK  11 active torsions:
REMARK  status: ('A' for Active; 'I' for Inactive)
REMARK    1  A    between atoms: C2_2  and  C3_3 
REMARK    2  A    between atoms: C4_5  and  O2_6 
REMARK    3  A    between atoms: O2_6  and  C5_7 
REMARK    4  A    between atoms: C5_7  and  O3_9 
REMARK    5  A    between atoms: C5_7  and  C7_11 
REMARK    6  A    between atoms: C7_11  and  C8_13 
REMARK    7  A    between atoms: C8_13  and  C10_15 
REMARK    8  A    between atoms: C10_15  and  O4_16 
REMARK    9  A    between atoms: C10_15  and  N1_18 
REMARK   10  A    between atoms: N1_18  and  C11_20 
REMARK   11  A    between atoms: C16_25  and  O5_26 
ROOT
HETATM    1  C8  UNL     1      17.593   4.971  11.786  1.00  0.00     0.029 C 
HETATM    2  C9  UNL     1      17.169   5.633  10.496  1.00  0.00     0.056 C 
ENDROOT
BRANCH   1   3
HETATM    3  C7  UNL     1      18.768   5.236  12.305  1.00  0.00     0.165 C 
HETATM    4  F1  UNL     1      19.877   4.465  12.037  1.00  0.00    -0.204 F 
BRANCH   3   5
HETATM    5  C5  UNL     1      19.051   6.365  13.251  1.00  0.00     0.217 C 
HETATM    6  C6  UNL     1      19.919   7.367  12.559  1.00  0.00     0.087 C 
BRANCH   5   7
HETATM    7  O2  UNL     1      17.869   6.943  13.624  1.00  0.00    -0.316 OA
BRANCH   7   8
HETATM    8  C4  UNL     1      17.929   8.258  13.974  1.00  0.00     0.297 A 
HETATM    9  C3  UNL     1      17.526   8.785  15.285  1.00  0.00     0.202 A 
HETATM   10  O1  UNL     1      16.793   9.050  14.017  1.00  0.00    -0.344 OA
BRANCH   9  11
HETATM   11  C2  UNL     1      18.199  10.011  15.816  1.00  0.00    -0.001 C 
HETATM   12  C1  UNL     1      19.487  10.210  15.553  1.00  0.00     0.009 C 
ENDBRANCH   9  11
ENDBRANCH   7   8
ENDBRANCH   5   7
BRANCH   5  13
HETATM   13  O3  UNL     1      19.738   5.816  14.348  1.00  0.00    -0.360 OA
ATOM     14  H3  UNL     1      19.747   6.407  15.093  1.00  0.00     0.213 HD
ENDBRANCH   5  13
ENDBRANCH   3   5
ENDBRANCH   1   3
BRANCH   1  15
HETATM   15  C10 UNL     1      16.657   4.065  12.377  1.00  0.00     0.145 C 
BRANCH  15  16
HETATM   16  O4  UNL     1      15.595   3.851  11.633  1.00  0.00    -0.346 OA
ATOM     17  H4  UNL     1      14.974   3.248  12.025  1.00  0.00     0.219 HD
ENDBRANCH  15  16
BRANCH  15  18
HETATM   18  N1  UNL     1      16.675   3.377  13.587  1.00  0.00    -0.363 N 
ATOM     19  H1  UNL     1      16.823   2.369  13.568  1.00  0.00     0.162 HD
BRANCH  18  20
HETATM   20  C11 UNL     1      16.492   4.027  14.886  1.00  0.00     0.112 C 
HETATM   21  C12 UNL     1      15.314   4.969  14.713  1.00  0.00     0.028 C 
HETATM   22  C13 UNL     1      15.324   5.850  15.934  1.00  0.00     0.002 C 
HETATM   23  C14 UNL     1      15.170   5.063  17.178  1.00  0.00     0.003 C 
HETATM   24  C15 UNL     1      15.282   3.590  17.045  1.00  0.00     0.034 C 
HETATM   25  C16 UNL     1      16.142   3.070  15.967  1.00  0.00     0.140 C 
BRANCH  25  26
HETATM   26  O5  UNL     1      17.351   2.533  16.468  1.00  0.00    -0.394 OA
ATOM     27  H5  UNL     1      17.479   1.684  16.059  1.00  0.00     0.210 HD
ENDBRANCH  25  26
ENDBRANCH  18  20
ENDBRANCH  15  18
ENDBRANCH   1  15
TORSDOF 11
ENDMDL
MODEL 2
REMARK VINA RESULT: -7.413199855      2.192      4.385
REMARK  11 active torsions:
REMARK  status: ('A' for Active; 'I' for Inactive)
REMARK    1  A    between atoms: C2_2  and  C3_3 
REMARK    2  A    between atoms: C4_5  and  O2_6 
REMARK    3  A    between atoms: O2_6  and  C5_7 
REMARK    4  A    between atoms: C5_7  and  O3_9 
REMARK    5  A    between atoms: C5_7  and  C7_11 
REMARK    6  A    between atoms: C7_11  and  C8_13 
REMARK    7  A    between atoms: C8_13  and  C10_15 
REMARK    8  A    between atoms: C10_15  and  O4_16 
REMARK    9  A    between atoms: C10_15  and  N1_18 
REMARK   10  A    between atoms: N1_18  and  C11_20 
REMARK   11  A    between atoms: C16_25  and  O5_26 
ROOT
HETATM    1  C8  UNL     1      16.852   7.457  14.260  1.00  0.00     0.029 C 
HETATM    2  C9  UNL     1      17.301   8.442  15.314  1.00  0.00     0.056 C 
ENDROOT
BRANCH   1   3
HETATM    3  C7  UNL     1      16.003   7.830  13.332  1.00  0.00     0.165 C 
HETATM    4  F1  UNL     1      14.644   7.854  13.551  1.00  0.00    -0.204 F 
BRANCH   3   5
HETATM    5  C5  UNL     1      16.382   8.245  11.942  1.00  0.00     0.217 C 
HETATM    6  C6  UNL     1      17.046   9.583  12.003  1.00  0.00     0.087 C 
BRANCH   5   7
HETATM    7  O2  UNL     1      17.238   7.317  11.416  1.00  0.00    -0.316 OA
BRANCH   7   8
HETATM    8  C4  UNL     1      16.659   6.232  10.829  1.00  0.00     0.297 A 
HETATM    9  C3  UNL     1      17.170   4.859  10.940  1.00  0.00     0.202 A 
HETATM   10  O1  UNL     1      17.187   5.658   9.684  1.00  0.00    -0.344 OA
BRANCH   9  11
HETATM   11  C2  UNL     1      16.208   3.715  10.870  1.00  0.00    -0.001 C 
HETATM   12  C1  UNL     1      16.256   2.770  11.803  1.00  0.00     0.009 C 
ENDBRANCH   9  11
ENDBRANCH   7   8
ENDBRANCH   5   7
BRANCH   5  13
HETATM   13  O3  UNL     1      15.189   8.338  11.203  1.00  0.00    -0.360 OA
ATOM     14  H3  UNL     1      15.143   9.145  10.704  1.00  0.00     0.213 HD
ENDBRANCH   5  13
ENDBRANCH   3   5
ENDBRANCH   1   3
BRANCH   1  15
HETATM   15  C10 UNL     1      17.396   6.137  14.344  1.00  0.00     0.145 C 
BRANCH  15  16
HETATM   16  O4  UNL     1      18.676   6.079  14.048  1.00  0.00    -0.346 OA
ATOM     17  H4  UNL     1      19.031   5.198  14.078  1.00  0.00     0.219 HD
ENDBRANCH  15  16
BRANCH  15  18
HETATM   18  N1  UNL     1      16.816   4.918  14.682  1.00  0.00    -0.363 N 
ATOM     19  H1  UNL     1      16.629   4.249  13.936  1.00  0.00     0.162 HD
BRANCH  18  20
HETATM   20  C11 UNL     1      16.460   4.548  16.053  1.00  0.00     0.112 C 
HETATM   21  C12 UNL     1      15.196   5.324  16.375  1.00  0.00     0.028 C 
HETATM   22  C13 UNL     1      15.010   5.186  17.863  1.00  0.00     0.002 C 
HETATM   23  C14 UNL     1      14.856   3.770  18.266  1.00  0.00     0.003 C 
HETATM   24  C15 UNL     1      15.151   2.752  17.228  1.00  0.00     0.034 C 
HETATM   25  C16 UNL     1      16.145   3.103  16.198  1.00  0.00     0.140 C 
BRANCH  25  26
HETATM   26  O5  UNL     1      17.368   2.417  16.388  1.00  0.00    -0.394 OA
ATOM     27  H5  UNL     1      17.807   2.376  15.547  1.00  0.00     0.210 HD
ENDBRANCH  25  26
ENDBRANCH  18  20
ENDBRANCH  15  18
ENDBRANCH   1  15
TORSDOF 11
ENDMDL
MODEL 3
REMARK VINA RESULT: -7.357894652      2.505      3.433
REMARK  11 active torsions:
REMARK  status: ('A' for Active; 'I' for Inactive)
REMARK    1  A    between atoms: C2_2  and  C3_3 
REMARK    2  A    between atoms: C4_5  and  O2_6 
REMARK    3  A    between atoms: O2_6  and  C5_7 
REMARK    4  A    between atoms: C5_7  and  O3_9 
REMARK    5  A    between atoms: C5_7  and  C7_11 
REMARK    6  A    between atoms: C7_11  and  C8_13 
REMARK    7  A    between atoms: C8_13  and  C10_15 
REMARK    8  A    between atoms: C10_15  and  O4_16 
REMARK    9  A    between atoms: C10_15  and  N1_18 
REMARK   10  A    between atoms: N1_18  and  C11_20 
REMARK   11  A    between atoms: C16_25  and  O5_26 
ROOT
HETATM    1  C8  UNL     1      17.062   5.657  12.761  1.00  0.00     0.029 C 
HETATM    2  C9  UNL     1      17.197   5.835  11.268  1.00  0.00     0.056 C 
ENDROOT
BRANCH   1   3
HETATM    3  C7  UNL     1      17.153   6.696  13.557  1.00  0.00     0.165 C 
HETATM    4  F1  UNL     1      18.335   7.049  14.169  1.00  0.00    -0.204 F 
BRANCH   3   5
HETATM    5  C5  UNL     1      16.012   7.601  13.916  1.00  0.00     0.217 C 
HETATM    6  C6  UNL     1      16.196   8.072  15.323  1.00  0.00     0.087 C 
BRANCH   5   7
HETATM    7  O2  UNL     1      15.998   8.666  13.059  1.00  0.00    -0.316 OA
BRANCH   7   8
HETATM    8  C4  UNL     1      14.991   8.685  12.142  1.00  0.00     0.297 A 
HETATM    9  C3  UNL     1      14.440   9.908  11.542  1.00  0.00     0.202 A 
HETATM   10  O1  UNL     1      13.697   9.036  12.492  1.00  0.00    -0.344 OA
BRANCH   9  11
HETATM   11  C2  UNL     1      13.873   9.850  10.159  1.00  0.00    -0.001 C 
HETATM   12  C1  UNL     1      14.491   9.122   9.235  1.00  0.00     0.009 C 
ENDBRANCH   9  11
ENDBRANCH   7   8
ENDBRANCH   5   7
BRANCH   5  13
HETATM   13  O3  UNL     1      14.837   6.834  13.820  1.00  0.00    -0.360 OA
ATOM     14  H3  UNL     1      14.732   6.251  14.563  1.00  0.00     0.213 HD
ENDBRANCH   5  13
ENDBRANCH   3   5
ENDBRANCH   1   3
BRANCH   1  15
HETATM   15  C10 UNL     1      16.840   4.324  13.230  1.00  0.00     0.145 C 
BRANCH  15  16
HETATM   16  O4  UNL     1      17.698   3.451  12.749  1.00  0.00    -0.346 OA
ATOM     17  H4  UNL     1      17.803   2.683  13.298  1.00  0.00     0.219 HD
ENDBRANCH  15  16
BRANCH  15  18
HETATM   18  N1  UNL     1      15.888   3.795  14.096  1.00  0.00    -0.363 N 
ATOM     19  H1  UNL     1      15.092   3.299  13.695  1.00  0.00     0.162 HD
BRANCH  18  20
HETATM   20  C11 UNL     1      15.969   3.915  15.552  1.00  0.00     0.112 C 
HETATM   21  C12 UNL     1      14.732   4.687  15.973  1.00  0.00     0.028 C 
HETATM   22  C13 UNL     1      14.970   5.074  17.408  1.00  0.00     0.002 C 
HETATM   23  C14 UNL     1      15.148   3.886  18.273  1.00  0.00     0.003 C 
HETATM   24  C15 UNL     1      15.310   2.584  17.581  1.00  0.00     0.034 C 
HETATM   25  C16 UNL     1      15.929   2.600  16.244  1.00  0.00     0.140 C 
BRANCH  25  26
HETATM   26  O5  UNL     1      17.249   2.090  16.267  1.00  0.00    -0.394 OA
ATOM     27  H5  UNL     1      17.753   2.626  16.869  1.00  0.00     0.210 HD
ENDBRANCH  25  26
ENDBRANCH  18  20
ENDBRANCH  15  18
ENDBRANCH   1  15
TORSDOF 11
ENDMDL
MODEL 4
REMARK VINA RESULT: -7.355323757      1.485      1.889
REMARK  11 active torsions:
REMARK  status: ('A' for Active; 'I' for Inactive)
REMARK    1  A    between atoms: C2_2  and  C3_3 
REMARK    2  A    between atoms: C4_5  and  O2_6 
REMARK    3  A    between atoms: O2_6  and  C5_7 
REMARK    4  A    between atoms: C5_7  and  O3_9 
REMARK    5  A    between atoms: C5_7  and  C7_11 
REMARK    6  A    between atoms: C7_11  and  C8_13 
REMARK    7  A    between atoms: C8_13  and  C10_15 
REMARK    8  A    between atoms: C10_15  and  O4_16 
REMARK    9  A    between atoms: C10_15  and  N1_18 
REMARK   10  A    between atoms: N1_18  and  C11_20 
REMARK   11  A    between atoms: C16_25  and  O5_26 
ROOT
HETATM    1  C8  UNL     1      16.854   4.497  12.796  1.00  0.00     0.029 C 
HETATM    2  C9  UNL     1      16.746   2.994  12.691  1.00  0.00     0.056 C 
ENDROOT
BRANCH   1   3
HETATM    3  C7  UNL     1      17.593   5.163  11.942  1.00  0.00     0.165 C 
HETATM    4  F1  UNL     1      17.161   5.448  10.665  1.00  0.00    -0.204 F 
BRANCH   3   5
HETATM    5  C5  UNL     1      18.976   5.671  12.221  1.00  0.00     0.217 C 
HETATM    6  C6  UNL     1      19.403   6.553  11.092  1.00  0.00     0.087 C 
BRANCH   5   7
HETATM    7  O2  UNL     1      18.967   6.375  13.392  1.00  0.00    -0.316 OA
BRANCH   7   8
HETATM    8  C4  UNL     1      18.768   7.719  13.283  1.00  0.00     0.297 A 
HETATM    9  C3  UNL     1      18.538   8.618  14.422  1.00  0.00     0.202 A 
HETATM   10  O1  UNL     1      17.506   8.278  13.405  1.00  0.00    -0.344 OA
BRANCH   9  11
HETATM   11  C2  UNL     1      18.979  10.044  14.326  1.00  0.00    -0.001 C 
HETATM   12  C1  UNL     1      19.130  10.752  15.440  1.00  0.00     0.009 C 
ENDBRANCH   9  11
ENDBRANCH   7   8
ENDBRANCH   5   7
BRANCH   5  13
HETATM   13  O3  UNL     1      19.818   4.546  12.291  1.00  0.00    -0.360 OA
ATOM     14  H3  UNL     1      20.208   4.341  11.449  1.00  0.00     0.213 HD
ENDBRANCH   5  13
ENDBRANCH   3   5
ENDBRANCH   1   3
BRANCH   1  15
HETATM   15  C10 UNL     1      16.123   5.118  13.858  1.00  0.00     0.145 C 
BRANCH  15  16
HETATM   16  O4  UNL     1      14.826   5.155  13.648  1.00  0.00    -0.346 OA
ATOM     17  H4  UNL     1      14.327   4.645  14.275  1.00  0.00     0.219 HD
ENDBRANCH  15  16
BRANCH  15  18
HETATM   18  N1  UNL     1      16.540   5.683  15.059  1.00  0.00    -0.363 N 
ATOM     19  H1  UNL     1      17.042   6.570  15.028  1.00  0.00     0.162 HD
BRANCH  18  20
HETATM   20  C11 UNL     1      16.296   5.069  16.365  1.00  0.00     0.112 C 
HETATM   21  C12 UNL     1      14.970   5.633  16.845  1.00  0.00     0.028 C 
HETATM   22  C13 UNL     1      14.875   5.249  18.298  1.00  0.00     0.002 C 
HETATM   23  C14 UNL     1      14.899   3.781  18.478  1.00  0.00     0.003 C 
HETATM   24  C15 UNL     1      15.253   2.975  17.285  1.00  0.00     0.034 C 
HETATM   25  C16 UNL     1      16.150   3.592  16.292  1.00  0.00     0.140 C 
BRANCH  25  26
HETATM   26  O5  UNL     1      17.449   3.033  16.333  1.00  0.00    -0.394 OA
ATOM     27  H5  UNL     1      18.007   3.563  15.776  1.00  0.00     0.210 HD
ENDBRANCH  25  26
ENDBRANCH  18  20
ENDBRANCH  15  18
ENDBRANCH   1  15
TORSDOF 11
ENDMDL
MODEL 5
REMARK VINA RESULT: -7.323058495      1.886      2.305
REMARK  11 active torsions:
REMARK  status: ('A' for Active; 'I' for Inactive)
REMARK    1  A    between atoms: C2_2  and  C3_3 
REMARK    2  A    between atoms: C4_5  and  O2_6 
REMARK    3  A    between atoms: O2_6  and  C5_7 
REMARK    4  A    between atoms: C5_7  and  O3_9 
REMARK    5  A    between atoms: C5_7  and  C7_11 
REMARK    6  A    between atoms: C7_11  and  C8_13 
REMARK    7  A    between atoms: C8_13  and  C10_15 
REMARK    8  A    between atoms: C10_15  and  O4_16 
REMARK    9  A    between atoms: C10_15  and  N1_18 
REMARK   10  A    between atoms: N1_18  and  C11_20 
REMARK   11  A    between atoms: C16_25  and  O5_26 
ROOT
HETATM    1  C8  UNL     1      17.035   4.895  11.983  1.00  0.00     0.029 C 
HETATM    2  C9  UNL     1      16.235   3.964  11.103  1.00  0.00     0.056 C 
ENDROOT
BRANCH   1   3
HETATM    3  C7  UNL     1      17.763   5.844  11.444  1.00  0.00     0.165 C 
HETATM    4  F1  UNL     1      18.965   5.583  10.825  1.00  0.00    -0.204 F 
BRANCH   3   5
HETATM    5  C5  UNL     1      17.407   7.301  11.448  1.00  0.00     0.217 C 
HETATM    6  C6  UNL     1      17.780   7.892  10.127  1.00  0.00     0.087 C 
BRANCH   5   7
HETATM    7  O2  UNL     1      16.063   7.433  11.661  1.00  0.00    -0.316 OA
BRANCH   7   8
HETATM    8  C4  UNL     1      15.697   8.118  12.781  1.00  0.00     0.297 A 
HETATM    9  C3  UNL     1      14.999   7.519  13.927  1.00  0.00     0.202 A 
HETATM   10  O1  UNL     1      14.386   8.507  12.998  1.00  0.00    -0.344 OA
BRANCH   9  11
HETATM   11  C2  UNL     1      15.220   8.087  15.293  1.00  0.00    -0.001 C 
HETATM   12  C1  UNL     1      16.442   8.066  15.815  1.00  0.00     0.009 C 
ENDBRANCH   9  11
ENDBRANCH   7   8
ENDBRANCH   5   7
BRANCH   5  13
HETATM   13  O3  UNL     1      18.163   7.903  12.470  1.00  0.00    -0.360 OA
ATOM     14  H3  UNL     1      18.260   7.333  13.223  1.00  0.00     0.213 HD
ENDBRANCH   5  13
ENDBRANCH   3   5
ENDBRANCH   1   3
BRANCH   1  15
HETATM   15  C10 UNL     1      16.951   4.673  13.394  1.00  0.00     0.145 C 
BRANCH  15  16
HETATM   16  O4  UNL     1      17.885   5.296  14.078  1.00  0.00    -0.346 OA
ATOM     17  H4  UNL     1      18.670   5.471  13.572  1.00  0.00     0.219 HD
ENDBRANCH  15  16
BRANCH  15  18
HETATM   18  N1  UNL     1      16.062   3.924  14.160  1.00  0.00    -0.363 N 
ATOM     19  H1  UNL     1      15.404   3.313  13.677  1.00  0.00     0.162 HD
BRANCH  18  20
HETATM   20  C11 UNL     1      16.024   3.969  15.622  1.00  0.00     0.112 C 
HETATM   21  C12 UNL     1      14.725   4.668  15.979  1.00  0.00     0.028 C 
HETATM   22  C13 UNL     1      14.833   4.987  17.447  1.00  0.00     0.002 C 
HETATM   23  C14 UNL     1      14.994   3.763  18.263  1.00  0.00     0.003 C 
HETATM   24  C15 UNL     1      15.267   2.507  17.522  1.00  0.00     0.034 C 
HETATM   25  C16 UNL     1      15.988   2.619  16.241  1.00  0.00     0.140 C 
BRANCH  25  26
HETATM   26  O5  UNL     1      17.323   2.162  16.345  1.00  0.00    -0.394 OA
ATOM     27  H5  UNL     1      17.304   1.321  16.787  1.00  0.00     0.210 HD
ENDBRANCH  25  26
ENDBRANCH  18  20
ENDBRANCH  15  18
ENDBRANCH   1  15
TORSDOF 11
ENDMDL
