MODEL 1
REMARK VINA RESULT: -6.676957174      0.000      0.000
REMARK  8 active torsions:
REMARK  status: ('A' for Active; 'I' for Inactive)
REMARK       I    between atoms: N2_3  and  C2_5 
REMARK    1  A    between atoms: C2_5  and  O2_7 
REMARK    2  A    between atoms: O2_7  and  C3_8 
REMARK    3  A    between atoms: C3_8  and  O3_9 
REMARK    4  A    between atoms: C3_8  and  C4_11 
REMARK    5  A    between atoms: C4_11  and  N3_12 
REMARK    6  A    between atoms: C4_11  and  C5_16 
REMARK    7  A    between atoms: C5_16  and  N4_17 
REMARK    8  A    between atoms: C5_16  and  C6_21 
ROOT
HETATM    1  N1  UNL     1      11.484  54.318  11.774  1.00  0.00    -0.172 NA
HETATM    2  C1  UNL     1      12.571  54.144  12.133  1.00  0.00     0.186 C 
HETATM    3  N2  UNL     1      13.888  53.924  12.552  1.00  0.00    -0.239 N 
ATOM      4  H2  UNL     1      14.649  53.849  11.878  1.00  0.00     0.183 HD
HETATM    5  C2  UNL     1      14.129  53.809  13.950  1.00  0.00     0.376 C 
HETATM    6  O1  UNL     1      13.201  53.898  14.795  1.00  0.00    -0.237 OA
ENDROOT
BRANCH   5   7
HETATM    7  O2  UNL     1      15.407  53.589  14.462  1.00  0.00    -0.270 OA
BRANCH   7   8
HETATM    8  C3  UNL     1      15.662  52.468  15.296  1.00  0.00     0.301 C 
BRANCH   8   9
HETATM    9  O3  UNL     1      15.108  52.821  16.548  1.00  0.00    -0.368 OA
ATOM     10  H3  UNL     1      14.181  52.632  16.463  1.00  0.00     0.212 HD
ENDBRANCH   8   9
BRANCH   8  11
HETATM   11  C4  UNL     1      17.156  52.224  15.419  1.00  0.00     0.273 C 
BRANCH  11  12
HETATM   12  N3  UNL     1      17.785  53.286  14.615  1.00  0.00    -0.068 N 
ATOM     13  H33 UNL     1      17.347  53.429  13.705  1.00  0.00     0.275 HD
ATOM     14  H32 UNL     1      17.620  54.226  14.973  1.00  0.00     0.275 HD
ATOM     15  H31 UNL     1      18.771  53.030  14.563  1.00  0.00     0.275 HD
ENDBRANCH  11  12
BRANCH  11  16
HETATM   16  C5  UNL     1      17.579  50.934  14.801  1.00  0.00     0.251 C 
BRANCH  16  17
HETATM   17  N4  UNL     1      18.901  51.174  14.204  1.00  0.00    -0.069 N 
ATOM     18  H43 UNL     1      18.858  51.463  13.227  1.00  0.00     0.275 HD
ATOM     19  H42 UNL     1      19.362  52.011  14.563  1.00  0.00     0.275 HD
ATOM     20  H41 UNL     1      19.442  50.321  14.349  1.00  0.00     0.275 HD
ENDBRANCH  16  17
BRANCH  16  21
HETATM   21  C6  UNL     1      17.668  49.790  15.707  1.00  0.00    -0.026 A 
HETATM   22  C7  UNL     1      17.930  49.993  17.043  1.00  0.00     0.009 A 
HETATM   23  C8  UNL     1      18.022  48.919  17.937  1.00  0.00     0.001 A 
HETATM   24  C9  UNL     1      17.844  47.640  17.460  1.00  0.00     0.000 A 
HETATM   25  C10 UNL     1      17.582  47.413  16.130  1.00  0.00     0.001 A 
HETATM   26  C11 UNL     1      17.497  48.497  15.271  1.00  0.00     0.009 A 
ENDBRANCH  16  21
ENDBRANCH  11  16
ENDBRANCH   8  11
ENDBRANCH   7   8
ENDBRANCH   5   7
TORSDOF 8
ENDMDL
MODEL 2
REMARK VINA RESULT: -6.579821840      7.516      9.055
REMARK  8 active torsions:
REMARK  status: ('A' for Active; 'I' for Inactive)
REMARK       I    between atoms: N2_3  and  C2_5 
REMARK    1  A    between atoms: C2_5  and  O2_7 
REMARK    2  A    between atoms: O2_7  and  C3_8 
REMARK    3  A    between atoms: C3_8  and  O3_9 
REMARK    4  A    between atoms: C3_8  and  C4_11 
REMARK    5  A    between atoms: C4_11  and  N3_12 
REMARK    6  A    between atoms: C4_11  and  C5_16 
REMARK    7  A    between atoms: C5_16  and  N4_17 
REMARK    8  A    between atoms: C5_16  and  C6_21 
ROOT
HETATM    1  N1  UNL     1      16.872  46.344  19.138  1.00  0.00    -0.172 NA
HETATM    2  C1  UNL     1      16.299  45.568  18.498  1.00  0.00     0.186 C 
HETATM    3  N2  UNL     1      15.591  44.637  17.730  1.00  0.00    -0.239 N 
ATOM      4  H2  UNL     1      14.744  44.904  17.229  1.00  0.00     0.183 HD
HETATM    5  C2  UNL     1      16.092  43.307  17.670  1.00  0.00     0.376 C 
HETATM    6  O1  UNL     1      17.136  42.960  18.281  1.00  0.00    -0.237 OA
ENDROOT
BRANCH   5   7
HETATM    7  O2  UNL     1      15.455  42.311  16.931  1.00  0.00    -0.270 OA
BRANCH   7   8
HETATM    8  C3  UNL     1      16.049  41.808  15.744  1.00  0.00     0.301 C 
BRANCH   8   9
HETATM    9  O3  UNL     1      17.301  41.298  16.159  1.00  0.00    -0.368 OA
ATOM     10  H3  UNL     1      17.243  40.363  16.004  1.00  0.00     0.212 HD
ENDBRANCH   8   9
BRANCH   8  11
HETATM   11  C4  UNL     1      16.234  42.921  14.726  1.00  0.00     0.273 C 
BRANCH  11  12
HETATM   12  N3  UNL     1      15.785  42.347  13.446  1.00  0.00    -0.068 N 
ATOM     13  H33 UNL     1      15.661  41.334  13.468  1.00  0.00     0.275 HD
ATOM     14  H32 UNL     1      14.821  42.577  13.206  1.00  0.00     0.275 HD
ATOM     15  H31 UNL     1      16.468  42.664  12.759  1.00  0.00     0.275 HD
ENDBRANCH  11  12
BRANCH  11  16
HETATM   16  C5  UNL     1      17.665  43.290  14.532  1.00  0.00     0.251 C 
BRANCH  16  17
HETATM   17  N4  UNL     1      17.897  43.308  13.080  1.00  0.00    -0.069 N 
ATOM     18  H43 UNL     1      18.016  42.378  12.678  1.00  0.00     0.275 HD
ATOM     19  H42 UNL     1      17.071  43.573  12.542  1.00  0.00     0.275 HD
ATOM     20  H41 UNL     1      18.696  43.922  12.923  1.00  0.00     0.275 HD
ENDBRANCH  16  17
BRANCH  16  21
HETATM   21  C6  UNL     1      18.075  44.577  15.094  1.00  0.00    -0.026 A 
HETATM   22  C7  UNL     1      17.365  45.715  14.789  1.00  0.00     0.009 A 
HETATM   23  C8  UNL     1      17.732  46.962  15.309  1.00  0.00     0.001 A 
HETATM   24  C9  UNL     1      18.825  47.040  16.142  1.00  0.00     0.000 A 
HETATM   25  C10 UNL     1      19.550  45.916  16.461  1.00  0.00     0.001 A 
HETATM   26  C11 UNL     1      19.161  44.697  15.929  1.00  0.00     0.009 A 
ENDBRANCH  16  21
ENDBRANCH  11  16
ENDBRANCH   8  11
ENDBRANCH   7   8
ENDBRANCH   5   7
TORSDOF 8
ENDMDL
MODEL 3
REMARK VINA RESULT: -6.541034562      1.831      2.388
REMARK  8 active torsions:
REMARK  status: ('A' for Active; 'I' for Inactive)
REMARK       I    between atoms: N2_3  and  C2_5 
REMARK    1  A    between atoms: C2_5  and  O2_7 
REMARK    2  A    between atoms: O2_7  and  C3_8 
REMARK    3  A    between atoms: C3_8  and  O3_9 
REMARK    4  A    between atoms: C3_8  and  C4_11 
REMARK    5  A    between atoms: C4_11  and  N3_12 
REMARK    6  A    between atoms: C4_11  and  C5_16 
REMARK    7  A    between atoms: C5_16  and  N4_17 
REMARK    8  A    between atoms: C5_16  and  C6_21 
ROOT
HETATM    1  N1  UNL     1      13.159  53.836  12.598  1.00  0.00    -0.172 NA
HETATM    2  C1  UNL     1      14.177  53.855  13.148  1.00  0.00     0.186 C 
HETATM    3  N2  UNL     1      15.415  53.880  13.799  1.00  0.00    -0.239 N 
ATOM      4  H2  UNL     1      16.171  54.480  13.469  1.00  0.00     0.183 HD
HETATM    5  C2  UNL     1      15.586  53.040  14.934  1.00  0.00     0.376 C 
HETATM    6  O1  UNL     1      14.665  52.293  15.355  1.00  0.00    -0.237 OA
ENDROOT
BRANCH   5   7
HETATM    7  O2  UNL     1      16.784  52.997  15.646  1.00  0.00    -0.270 OA
BRANCH   7   8
HETATM    8  C3  UNL     1      17.853  52.176  15.201  1.00  0.00     0.301 C 
BRANCH   8   9
HETATM    9  O3  UNL     1      17.825  52.285  13.791  1.00  0.00    -0.368 OA
ATOM     10  H3  UNL     1      18.723  52.470  13.546  1.00  0.00     0.212 HD
ENDBRANCH   8   9
BRANCH   8  11
HETATM   11  C4  UNL     1      17.637  50.736  15.633  1.00  0.00     0.273 C 
BRANCH  11  12
HETATM   12  N3  UNL     1      17.071  50.825  16.990  1.00  0.00    -0.068 N 
ATOM     13  H33 UNL     1      16.363  50.119  17.190  1.00  0.00     0.275 HD
ATOM     14  H32 UNL     1      17.721  50.551  17.727  1.00  0.00     0.275 HD
ATOM     15  H31 UNL     1      16.733  51.784  17.074  1.00  0.00     0.275 HD
ENDBRANCH  11  12
BRANCH  11  16
HETATM   16  C5  UNL     1      18.915  49.980  15.768  1.00  0.00     0.251 C 
BRANCH  16  17
HETATM   17  N4  UNL     1      19.541  50.442  17.016  1.00  0.00    -0.069 N 
ATOM     18  H43 UNL     1      20.209  51.200  16.876  1.00  0.00     0.275 HD
ATOM     19  H42 UNL     1      18.900  50.949  17.626  1.00  0.00     0.275 HD
ATOM     20  H41 UNL     1      19.951  49.618  17.455  1.00  0.00     0.275 HD
ENDBRANCH  16  17
BRANCH  16  21
HETATM   21  C6  UNL     1      18.794  48.523  15.810  1.00  0.00    -0.026 A 
HETATM   22  C7  UNL     1      19.778  47.770  16.407  1.00  0.00     0.009 A 
HETATM   23  C8  UNL     1      19.694  46.374  16.463  1.00  0.00     0.001 A 
HETATM   24  C9  UNL     1      18.598  45.752  15.907  1.00  0.00     0.000 A 
HETATM   25  C10 UNL     1      17.602  46.483  15.306  1.00  0.00     0.001 A 
HETATM   26  C11 UNL     1      17.716  47.863  15.267  1.00  0.00     0.009 A 
ENDBRANCH  16  21
ENDBRANCH  11  16
ENDBRANCH   8  11
ENDBRANCH   7   8
ENDBRANCH   5   7
TORSDOF 8
ENDMDL
MODEL 4
REMARK VINA RESULT: -6.533601028      2.856      3.631
REMARK  8 active torsions:
REMARK  status: ('A' for Active; 'I' for Inactive)
REMARK       I    between atoms: N2_3  and  C2_5 
REMARK    1  A    between atoms: C2_5  and  O2_7 
REMARK    2  A    between atoms: O2_7  and  C3_8 
REMARK    3  A    between atoms: C3_8  and  O3_9 
REMARK    4  A    between atoms: C3_8  and  C4_11 
REMARK    5  A    between atoms: C4_11  and  N3_12 
REMARK    6  A    between atoms: C4_11  and  C5_16 
REMARK    7  A    between atoms: C5_16  and  N4_17 
REMARK    8  A    between atoms: C5_16  and  C6_21 
ROOT
HETATM    1  N1  UNL     1      13.975  54.988  17.581  1.00  0.00    -0.172 NA
HETATM    2  C1  UNL     1      14.595  54.533  16.715  1.00  0.00     0.186 C 
HETATM    3  N2  UNL     1      15.333  53.993  15.656  1.00  0.00    -0.239 N 
ATOM      4  H2  UNL     1      15.538  54.544  14.822  1.00  0.00     0.183 HD
HETATM    5  C2  UNL     1      15.788  52.652  15.781  1.00  0.00     0.376 C 
HETATM    6  O1  UNL     1      15.545  51.958  16.802  1.00  0.00    -0.237 OA
ENDROOT
BRANCH   5   7
HETATM    7  O2  UNL     1      16.530  52.028  14.779  1.00  0.00    -0.270 OA
BRANCH   7   8
HETATM    8  C3  UNL     1      17.949  52.029  14.831  1.00  0.00     0.301 C 
BRANCH   8   9
HETATM    9  O3  UNL     1      18.355  52.363  13.519  1.00  0.00    -0.368 OA
ATOM     10  H3  UNL     1      18.640  53.267  13.578  1.00  0.00     0.212 HD
ENDBRANCH   8   9
BRANCH   8  11
HETATM   11  C4  UNL     1      18.469  50.656  15.222  1.00  0.00     0.273 C 
BRANCH  11  12
HETATM   12  N3  UNL     1      17.332  49.743  15.014  1.00  0.00    -0.068 N 
ATOM     13  H33 UNL     1      16.985  49.314  15.872  1.00  0.00     0.275 HD
ATOM     14  H32 UNL     1      16.465  50.215  14.761  1.00  0.00     0.275 HD
ATOM     15  H31 UNL     1      17.655  49.071  14.319  1.00  0.00     0.275 HD
ENDBRANCH  11  12
BRANCH  11  16
HETATM   16  C5  UNL     1      18.814  50.563  16.669  1.00  0.00     0.251 C 
BRANCH  16  17
HETATM   17  N4  UNL     1      17.629  50.010  17.343  1.00  0.00    -0.069 N 
ATOM     18  H43 UNL     1      17.598  50.219  18.341  1.00  0.00     0.275 HD
ATOM     19  H42 UNL     1      16.762  50.482  17.087  1.00  0.00     0.275 HD
ATOM     20  H41 UNL     1      17.621  49.011  17.139  1.00  0.00     0.275 HD
ENDBRANCH  16  17
BRANCH  16  21
HETATM   21  C6  UNL     1      19.975  49.738  16.998  1.00  0.00    -0.026 A 
HETATM   22  C7  UNL     1      20.815  50.114  18.021  1.00  0.00     0.009 A 
HETATM   23  C8  UNL     1      21.936  49.347  18.361  1.00  0.00     0.001 A 
HETATM   24  C9  UNL     1      22.193  48.195  17.652  1.00  0.00     0.000 A 
HETATM   25  C10 UNL     1      21.368  47.799  16.627  1.00  0.00     0.001 A 
HETATM   26  C11 UNL     1      20.268  48.580  16.315  1.00  0.00     0.009 A 
ENDBRANCH  16  21
ENDBRANCH  11  16
ENDBRANCH   8  11
ENDBRANCH   7   8
ENDBRANCH   5   7
TORSDOF 8
ENDMDL
MODEL 5
REMARK VINA RESULT: -6.523310415      2.385      3.024
REMARK  8 active torsions:
REMARK  status: ('A' for Active; 'I' for Inactive)
REMARK       I    between atoms: N2_3  and  C2_5 
REMARK    1  A    between atoms: C2_5  and  O2_7 
REMARK    2  A    between atoms: O2_7  and  C3_8 
REMARK    3  A    between atoms: C3_8  and  O3_9 
REMARK    4  A    between atoms: C3_8  and  C4_11 
REMARK    5  A    between atoms: C4_11  and  N3_12 
REMARK    6  A    between atoms: C4_11  and  C5_16 
REMARK    7  A    between atoms: C5_16  and  N4_17 
REMARK    8  A    between atoms: C5_16  and  C6_21 
ROOT
HETATM    1  N1  UNL     1      13.262  53.878  13.186  1.00  0.00    -0.172 NA
HETATM    2  C1  UNL     1      14.379  53.870  13.490  1.00  0.00     0.186 C 
HETATM    3  N2  UNL     1      15.733  53.864  13.841  1.00  0.00    -0.239 N 
ATOM      4  H2  UNL     1      16.383  54.541  13.442  1.00  0.00     0.183 HD
HETATM    5  C2  UNL     1      16.173  52.884  14.773  1.00  0.00     0.376 C 
HETATM    6  O1  UNL     1      15.386  52.041  15.275  1.00  0.00    -0.237 OA
ENDROOT
BRANCH   5   7
HETATM    7  O2  UNL     1      17.503  52.800  15.182  1.00  0.00    -0.270 OA
BRANCH   7   8
HETATM    8  C3  UNL     1      18.449  52.080  14.405  1.00  0.00     0.301 C 
BRANCH   8   9
HETATM    9  O3  UNL     1      17.835  51.934  13.139  1.00  0.00    -0.368 OA
ATOM     10  H3  UNL     1      17.866  51.001  12.963  1.00  0.00     0.212 HD
ENDBRANCH   8   9
BRANCH   8  11
HETATM   11  C4  UNL     1      18.727  50.722  15.027  1.00  0.00     0.273 C 
BRANCH  11  12
HETATM   12  N3  UNL     1      17.553  49.899  14.688  1.00  0.00    -0.068 N 
ATOM     13  H33 UNL     1      16.686  50.429  14.608  1.00  0.00     0.275 HD
ATOM     14  H32 UNL     1      17.561  49.543  13.732  1.00  0.00     0.275 HD
ATOM     15  H31 UNL     1      17.527  49.169  15.400  1.00  0.00     0.275 HD
ENDBRANCH  11  12
BRANCH  11  16
HETATM   16  C5  UNL     1      18.779  50.772  16.516  1.00  0.00     0.251 C 
BRANCH  16  17
HETATM   17  N4  UNL     1      17.467  50.311  16.993  1.00  0.00    -0.069 N 
ATOM     18  H43 UNL     1      16.819  50.084  16.239  1.00  0.00     0.275 HD
ATOM     19  H42 UNL     1      17.494  49.385  17.420  1.00  0.00     0.275 HD
ATOM     20  H41 UNL     1      17.117  51.035  17.621  1.00  0.00     0.275 HD
ENDBRANCH  16  17
BRANCH  16  21
HETATM   21  C6  UNL     1      19.823  49.966  17.146  1.00  0.00    -0.026 A 
HETATM   22  C7  UNL     1      20.310  50.321  18.383  1.00  0.00     0.009 A 
HETATM   23  C8  UNL     1      21.310  49.572  19.014  1.00  0.00     0.001 A 
HETATM   24  C9  UNL     1      21.809  48.458  18.376  1.00  0.00     0.000 A 
HETATM   25  C10 UNL     1      21.337  48.084  17.140  1.00  0.00     0.001 A 
HETATM   26  C11 UNL     1      20.348  48.847  16.543  1.00  0.00     0.009 A 
ENDBRANCH  16  21
ENDBRANCH  11  16
ENDBRANCH   8  11
ENDBRANCH   7   8
ENDBRANCH   5   7
TORSDOF 8
ENDMDL
