MODEL 1
REMARK VINA RESULT: -5.970883245      0.000      0.000
REMARK  4 active torsions:
REMARK  status: ('A' for Active; 'I' for Inactive)
REMARK    1  A    between atoms: C2_2  and  S1_3 
REMARK    2  A    between atoms: S1_3  and  C3_4 
REMARK    3  A    between atoms: C4_8  and  C5_9 
REMARK    4  A    between atoms: C6_13  and  N3_14 
REMARK       I    between atoms: N3_14  and  C7_16 
ROOT
HETATM    1  C3  UNL     1      17.205  52.192  15.646  1.00  0.00     0.209 C 
HETATM    2  N1  UNL     1      18.109  51.612  14.675  1.00  0.00    -0.123 NA
HETATM    3  N2  UNL     1      19.164  50.936  15.252  1.00  0.00    -0.301 N 
ATOM      4  H2  UNL     1      20.136  51.150  15.029  1.00  0.00     0.179 HD
HETATM    5  C4  UNL     1      18.801  49.915  16.184  1.00  0.00     0.337 C 
HETATM    6  O3  UNL     1      17.408  49.991  16.382  1.00  0.00    -0.328 OA
HETATM    7  C6  UNL     1      17.191  51.301  16.865  1.00  0.00     0.258 C 
ENDROOT
BRANCH   7   8
HETATM    8  N3  UNL     1      15.922  51.401  17.543  1.00  0.00    -0.316 N 
HETATM    9  C7  UNL     1      15.789  51.282  18.933  1.00  0.00     0.330 C 
HETATM   10  N4  UNL     1      14.515  51.390  19.537  1.00  0.00    -0.040 NA
HETATM   11  O4  UNL     1      16.804  51.081  19.634  1.00  0.00    -0.251 OA
ATOM     12  H3  UNL     1      15.084  51.567  16.986  1.00  0.00     0.166 HD
ENDBRANCH   7   8
BRANCH   1  13
HETATM   13  S1  UNL     1      15.517  52.300  15.022  1.00  0.00    -0.142 SA
BRANCH  13  14
HETATM   14  C2  UNL     1      15.185  53.848  14.160  1.00  0.00     0.071 C 
HETATM   15  C1  UNL     1      13.902  53.782  13.366  1.00  0.00     0.016 C 
ENDBRANCH  13  14
ENDBRANCH   1  13
BRANCH   5  16
HETATM   16  C5  UNL     1      19.196  48.562  15.773  1.00  0.00     0.225 C 
HETATM   17  O1  UNL     1      18.326  47.735  15.413  1.00  0.00    -0.645 OA
HETATM   18  O2  UNL     1      20.545  48.231  15.792  1.00  0.00    -0.645 OA
ENDBRANCH   5  16
TORSDOF 4
ENDMDL
MODEL 2
REMARK VINA RESULT: -5.967109103      2.987      5.257
REMARK  4 active torsions:
REMARK  status: ('A' for Active; 'I' for Inactive)
REMARK    1  A    between atoms: C2_2  and  S1_3 
REMARK    2  A    between atoms: S1_3  and  C3_4 
REMARK    3  A    between atoms: C4_8  and  C5_9 
REMARK    4  A    between atoms: C6_13  and  N3_14 
REMARK       I    between atoms: N3_14  and  C7_16 
ROOT
HETATM    1  C3  UNL     1      17.243  50.774  17.095  1.00  0.00     0.209 C 
HETATM    2  N1  UNL     1      17.157  50.038  18.340  1.00  0.00    -0.123 NA
HETATM    3  N2  UNL     1      16.750  50.816  19.404  1.00  0.00    -0.301 N 
ATOM      4  H2  UNL     1      17.291  50.888  20.265  1.00  0.00     0.179 HD
HETATM    5  C4  UNL     1      15.516  51.514  19.215  1.00  0.00     0.337 C 
HETATM    6  O3  UNL     1      15.119  51.329  17.877  1.00  0.00    -0.328 OA
HETATM    7  C6  UNL     1      16.188  51.854  17.115  1.00  0.00     0.258 C 
ENDROOT
BRANCH   7   8
HETATM    8  N3  UNL     1      15.766  52.166  15.772  1.00  0.00    -0.316 N 
HETATM    9  C7  UNL     1      15.020  53.308  15.453  1.00  0.00     0.330 C 
HETATM   10  N4  UNL     1      14.636  53.556  14.115  1.00  0.00    -0.040 NA
HETATM   11  O4  UNL     1      14.696  54.105  16.360  1.00  0.00    -0.251 OA
ATOM     12  H3  UNL     1      16.022  51.526  15.020  1.00  0.00     0.166 HD
ENDBRANCH   7   8
BRANCH   1  13
HETATM   13  S1  UNL     1      16.932  49.725  15.662  1.00  0.00    -0.142 SA
BRANCH  13  14
HETATM   14  C2  UNL     1      18.087  48.347  15.539  1.00  0.00     0.071 C 
HETATM   15  C1  UNL     1      17.397  47.079  15.093  1.00  0.00     0.016 C 
ENDBRANCH  13  14
ENDBRANCH   1  13
BRANCH   5  16
HETATM   16  C5  UNL     1      14.450  51.101  20.136  1.00  0.00     0.225 C 
HETATM   17  O1  UNL     1      13.539  50.337  19.743  1.00  0.00    -0.645 OA
HETATM   18  O2  UNL     1      14.482  51.577  21.441  1.00  0.00    -0.645 OA
ENDBRANCH   5  16
TORSDOF 4
ENDMDL
MODEL 3
REMARK VINA RESULT: -5.794420525      3.380      4.233
REMARK  4 active torsions:
REMARK  status: ('A' for Active; 'I' for Inactive)
REMARK    1  A    between atoms: C2_2  and  S1_3 
REMARK    2  A    between atoms: S1_3  and  C3_4 
REMARK    3  A    between atoms: C4_8  and  C5_9 
REMARK    4  A    between atoms: C6_13  and  N3_14 
REMARK       I    between atoms: N3_14  and  C7_16 
ROOT
HETATM    1  C3  UNL     1      18.159  48.392  15.503  1.00  0.00     0.209 C 
HETATM    2  N1  UNL     1      17.496  47.359  14.734  1.00  0.00    -0.123 NA
HETATM    3  N2  UNL     1      17.654  46.097  15.270  1.00  0.00    -0.301 N 
ATOM      4  H2  UNL     1      18.029  45.318  14.729  1.00  0.00     0.179 HD
HETATM    5  C4  UNL     1      17.256  45.958  16.636  1.00  0.00     0.337 C 
HETATM    6  O3  UNL     1      16.945  47.241  17.125  1.00  0.00    -0.328 OA
HETATM    7  C6  UNL     1      18.137  47.983  16.956  1.00  0.00     0.258 C 
ENDROOT
BRANCH   7   8
HETATM    8  N3  UNL     1      18.148  49.148  17.804  1.00  0.00    -0.316 N 
HETATM    9  C7  UNL     1      19.085  49.336  18.829  1.00  0.00     0.330 C 
HETATM   10  N4  UNL     1      19.041  50.503  19.626  1.00  0.00    -0.040 NA
HETATM   11  O4  UNL     1      19.957  48.466  19.033  1.00  0.00    -0.251 OA
ATOM     12  H3  UNL     1      17.443  49.869  17.651  1.00  0.00     0.166 HD
ENDBRANCH   7   8
BRANCH   1  13
HETATM   13  S1  UNL     1      17.324  49.983  15.364  1.00  0.00    -0.142 SA
BRANCH  13  14
HETATM   14  C2  UNL     1      18.328  51.233  14.540  1.00  0.00     0.071 C 
HETATM   15  C1  UNL     1      17.652  52.584  14.544  1.00  0.00     0.016 C 
ENDBRANCH  13  14
ENDBRANCH   1  13
BRANCH   5  16
HETATM   16  C5  UNL     1      16.131  45.036  16.839  1.00  0.00     0.225 C 
HETATM   17  O1  UNL     1      15.336  45.214  17.790  1.00  0.00    -0.645 OA
HETATM   18  O2  UNL     1      15.977  43.975  15.956  1.00  0.00    -0.645 OA
ENDBRANCH   5  16
TORSDOF 4
ENDMDL
MODEL 4
REMARK VINA RESULT: -5.759107117      2.964      5.614
REMARK  4 active torsions:
REMARK  status: ('A' for Active; 'I' for Inactive)
REMARK    1  A    between atoms: C2_2  and  S1_3 
REMARK    2  A    between atoms: S1_3  and  C3_4 
REMARK    3  A    between atoms: C4_8  and  C5_9 
REMARK    4  A    between atoms: C6_13  and  N3_14 
REMARK       I    between atoms: N3_14  and  C7_16 
ROOT
HETATM    1  C3  UNL     1      18.219  48.736  17.290  1.00  0.00     0.209 C 
HETATM    2  N1  UNL     1      17.437  48.505  18.487  1.00  0.00    -0.123 NA
HETATM    3  N2  UNL     1      17.312  49.627  19.279  1.00  0.00    -0.301 N 
ATOM      4  H2  UNL     1      17.576  49.631  20.264  1.00  0.00     0.179 HD
HETATM    5  C4  UNL     1      16.786  50.784  18.624  1.00  0.00     0.337 C 
HETATM    6  O3  UNL     1      16.683  50.488  17.250  1.00  0.00    -0.328 OA
HETATM    7  C6  UNL     1      18.003  50.167  16.858  1.00  0.00     0.258 C 
ENDROOT
BRANCH   7   8
HETATM    8  N3  UNL     1      18.166  50.289  15.431  1.00  0.00    -0.316 N 
HETATM    9  C7  UNL     1      18.197  51.523  14.769  1.00  0.00     0.330 C 
HETATM   10  N4  UNL     1      18.359  51.574  13.366  1.00  0.00    -0.040 NA
HETATM   11  O4  UNL     1      18.082  52.578  15.429  1.00  0.00    -0.251 OA
ATOM     12  H3  UNL     1      18.262  49.437  14.877  1.00  0.00     0.166 HD
ENDBRANCH   7   8
BRANCH   1  13
HETATM   13  S1  UNL     1      17.712  47.667  15.930  1.00  0.00    -0.142 SA
BRANCH  13  14
HETATM   14  C2  UNL     1      17.300  45.996  16.468  1.00  0.00     0.071 C 
HETATM   15  C1  UNL     1      17.068  45.073  15.295  1.00  0.00     0.016 C 
ENDBRANCH  13  14
ENDBRANCH   1  13
BRANCH   5  16
HETATM   16  C5  UNL     1      15.495  51.237  19.157  1.00  0.00     0.225 C 
HETATM   17  O1  UNL     1      15.058  52.374  18.864  1.00  0.00    -0.645 OA
HETATM   18  O2  UNL     1      14.782  50.379  19.984  1.00  0.00    -0.645 OA
ENDBRANCH   5  16
TORSDOF 4
ENDMDL
MODEL 5
REMARK VINA RESULT: -5.692685866      2.831      5.486
REMARK  4 active torsions:
REMARK  status: ('A' for Active; 'I' for Inactive)
REMARK    1  A    between atoms: C2_2  and  S1_3 
REMARK    2  A    between atoms: S1_3  and  C3_4 
REMARK    3  A    between atoms: C4_8  and  C5_9 
REMARK    4  A    between atoms: C6_13  and  N3_14 
REMARK       I    between atoms: N3_14  and  C7_16 
ROOT
HETATM    1  C3  UNL     1      19.055  50.467  16.134  1.00  0.00     0.209 C 
HETATM    2  N1  UNL     1      18.821  51.896  16.098  1.00  0.00    -0.123 NA
HETATM    3  N2  UNL     1      17.808  52.259  15.236  1.00  0.00    -0.301 N 
ATOM      4  H2  UNL     1      17.944  52.943  14.491  1.00  0.00     0.179 HD
HETATM    5  C4  UNL     1      16.553  51.610  15.457  1.00  0.00     0.337 C 
HETATM    6  O3  UNL     1      16.750  50.620  16.440  1.00  0.00    -0.328 OA
HETATM    7  C6  UNL     1      17.737  49.770  15.892  1.00  0.00     0.258 C 
ENDROOT
BRANCH   7   8
HETATM    8  N3  UNL     1      17.728  48.480  16.537  1.00  0.00    -0.316 N 
HETATM    9  C7  UNL     1      17.621  47.275  15.830  1.00  0.00     0.330 C 
HETATM   10  N4  UNL     1      17.617  46.043  16.522  1.00  0.00    -0.040 NA
HETATM   11  O4  UNL     1      17.528  47.298  14.584  1.00  0.00    -0.251 OA
ATOM     12  H3  UNL     1      17.803  48.443  17.554  1.00  0.00     0.166 HD
ENDBRANCH   7   8
BRANCH   1  13
HETATM   13  S1  UNL     1      19.682  49.922  17.734  1.00  0.00    -0.142 SA
BRANCH  13  14
HETATM   14  C2  UNL     1      21.314  49.164  17.626  1.00  0.00     0.071 C 
HETATM   15  C1  UNL     1      21.324  47.991  16.674  1.00  0.00     0.016 C 
ENDBRANCH  13  14
ENDBRANCH   1  13
BRANCH   5  16
HETATM   16  C5  UNL     1      15.470  52.522  15.846  1.00  0.00     0.225 C 
HETATM   17  O1  UNL     1      15.108  52.596  17.043  1.00  0.00    -0.645 OA
HETATM   18  O2  UNL     1      14.866  53.291  14.859  1.00  0.00    -0.645 OA
ENDBRANCH   5  16
TORSDOF 4
ENDMDL
