MODEL 1
REMARK VINA RESULT: -5.843992998      0.000      0.000
REMARK  10 active torsions:
REMARK  status: ('A' for Active; 'I' for Inactive)
REMARK    1  A    between atoms: C2_2  and  O1_3 
REMARK    2  A    between atoms: C2_2  and  C3_5 
REMARK    3  A    between atoms: C3_5  and  N1_6 
REMARK    4  A    between atoms: C3_5  and  C4_10 
REMARK    5  A    between atoms: C4_10  and  O2_11 
REMARK    6  A    between atoms: C4_10  and  C5_13 
REMARK    7  A    between atoms: C7_15  and  N2_16 
REMARK    8  A    between atoms: C8_20  and  N3_21 
REMARK    9  A    between atoms: N3_21  and  N4_23 
REMARK   10  A    between atoms: N4_23  and  N5_24 
ROOT
HETATM    1  C5  UNL     1      17.034  51.348  16.142  1.00  0.00     0.218 C 
HETATM    2  C6  UNL     1      17.396  50.218  15.255  1.00  0.00     0.070 C 
HETATM    3  C7  UNL     1      18.829  49.794  15.605  1.00  0.00     0.212 C 
HETATM    4  C8  UNL     1      18.790  49.231  16.990  1.00  0.00     0.170 C 
HETATM    5  C9  UNL     1      18.201  50.233  17.951  1.00  0.00     0.262 C 
HETATM    6  N6  UNL     1      16.970  50.790  17.510  1.00  0.00    -0.066 N 
ATOM      7  H61 UNL     1      16.216  50.107  17.587  1.00  0.00     0.277 HD
ATOM      8  H62 UNL     1      16.632  51.489  18.170  1.00  0.00     0.277 HD
ENDROOT
BRANCH   1   9
HETATM    9  C4  UNL     1      15.637  51.894  15.924  1.00  0.00     0.181 C 
BRANCH   9  10
HETATM   10  C3  UNL     1      15.570  53.225  15.264  1.00  0.00     0.242 C 
BRANCH  10  11
HETATM   11  C2  UNL     1      14.165  53.379  14.677  1.00  0.00     0.147 C 
HETATM   12  C1  UNL     1      14.239  53.940  13.273  1.00  0.00     0.041 C 
BRANCH  11  13
HETATM   13  O1  UNL     1      13.439  54.282  15.439  1.00  0.00    -0.394 OA
ATOM     14  H1  UNL     1      12.550  53.952  15.491  1.00  0.00     0.210 HD
ENDBRANCH  11  13
ENDBRANCH  10  11
BRANCH  10  15
HETATM   15  N1  UNL     1      16.467  53.399  14.140  1.00  0.00    -0.070 N 
ATOM     16  H13 UNL     1      16.516  54.358  13.794  1.00  0.00     0.274 HD
ATOM     17  H12 UNL     1      17.454  53.312  14.382  1.00  0.00     0.274 HD
ATOM     18  H11 UNL     1      16.151  52.725  13.443  1.00  0.00     0.274 HD
ENDBRANCH  10  15
ENDBRANCH   9  10
BRANCH   9  19
HETATM   19  O2  UNL     1      15.164  52.129  17.249  1.00  0.00    -0.391 OA
ATOM     20  H2  UNL     1      14.282  52.463  17.131  1.00  0.00     0.210 HD
ENDBRANCH   9  19
ENDBRANCH   1   9
BRANCH   3  21
HETATM   21  N2  UNL     1      19.744  50.908  15.487  1.00  0.00    -0.073 N 
ATOM     22  H23 UNL     1      19.386  51.623  14.853  1.00  0.00     0.274 HD
ATOM     23  H22 UNL     1      19.775  51.462  16.343  1.00  0.00     0.274 HD
ATOM     24  H21 UNL     1      20.672  50.591  15.210  1.00  0.00     0.274 HD
ENDBRANCH   3  21
BRANCH   4  25
HETATM   25  N3  UNL     1      20.151  48.942  17.438  1.00  0.00    -0.244 N 
ATOM     26  H3  UNL     1      20.497  49.239  18.351  1.00  0.00     0.197 HD
BRANCH  25  27
HETATM   27  N4  UNL     1      20.863  48.310  16.633  1.00  0.00    -0.248 NA
BRANCH  27  28
HETATM   28  N5  UNL     1      21.721  47.559  16.127  1.00  0.00    -0.261 N 
ATOM     29  H52 UNL     1      22.011  47.165  17.022  1.00  0.00     0.193 HD
ATOM     30  H51 UNL     1      22.326  47.067  15.469  1.00  0.00     0.193 HD
ENDBRANCH  27  28
ENDBRANCH  25  27
ENDBRANCH   4  25
TORSDOF 10
ENDMDL
MODEL 2
REMARK VINA RESULT: -5.600097119      5.226      6.669
REMARK  10 active torsions:
REMARK  status: ('A' for Active; 'I' for Inactive)
REMARK    1  A    between atoms: C2_2  and  O1_3 
REMARK    2  A    between atoms: C2_2  and  C3_5 
REMARK    3  A    between atoms: C3_5  and  N1_6 
REMARK    4  A    between atoms: C3_5  and  C4_10 
REMARK    5  A    between atoms: C4_10  and  O2_11 
REMARK    6  A    between atoms: C4_10  and  C5_13 
REMARK    7  A    between atoms: C7_15  and  N2_16 
REMARK    8  A    between atoms: C8_20  and  N3_21 
REMARK    9  A    between atoms: N3_21  and  N4_23 
REMARK   10  A    between atoms: N4_23  and  N5_24 
ROOT
HETATM    1  C5  UNL     1      17.160  46.077  16.220  1.00  0.00     0.218 C 
HETATM    2  C6  UNL     1      17.713  45.025  17.103  1.00  0.00     0.070 C 
HETATM    3  C7  UNL     1      17.353  43.665  16.487  1.00  0.00     0.212 C 
HETATM    4  C8  UNL     1      18.108  43.558  15.200  1.00  0.00     0.170 C 
HETATM    5  C9  UNL     1      17.796  44.732  14.306  1.00  0.00     0.262 C 
HETATM    6  N6  UNL     1      17.921  45.991  14.955  1.00  0.00    -0.066 N 
ATOM      7  H61 UNL     1      18.902  46.224  15.106  1.00  0.00     0.277 HD
ATOM      8  H62 UNL     1      17.662  46.750  14.325  1.00  0.00     0.277 HD
ENDROOT
BRANCH   1   9
HETATM    9  C4  UNL     1      17.427  47.493  16.690  1.00  0.00     0.181 C 
BRANCH   9  10
HETATM   10  C3  UNL     1      18.030  48.398  15.675  1.00  0.00     0.242 C 
BRANCH  10  11
HETATM   11  C2  UNL     1      19.360  48.902  16.239  1.00  0.00     0.147 C 
HETATM   12  C1  UNL     1      19.585  50.347  15.847  1.00  0.00     0.041 C 
BRANCH  11  13
HETATM   13  O1  UNL     1      20.404  48.165  15.696  1.00  0.00    -0.394 OA
ATOM     14  H1  UNL     1      20.014  47.474  15.174  1.00  0.00     0.210 HD
ENDBRANCH  11  13
ENDBRANCH  10  11
BRANCH  10  15
HETATM   15  N1  UNL     1      17.266  49.595  15.389  1.00  0.00    -0.070 N 
ATOM     16  H13 UNL     1      17.109  50.190  16.203  1.00  0.00     0.274 HD
ATOM     17  H12 UNL     1      17.773  50.286  14.836  1.00  0.00     0.274 HD
ATOM     18  H11 UNL     1      16.408  49.263  14.949  1.00  0.00     0.274 HD
ENDBRANCH  10  15
ENDBRANCH   9  10
BRANCH   9  19
HETATM   19  O2  UNL     1      18.448  47.328  17.672  1.00  0.00    -0.391 OA
ATOM     20  H2  UNL     1      17.980  47.091  18.464  1.00  0.00     0.210 HD
ENDBRANCH   9  19
ENDBRANCH   1   9
BRANCH   3  21
HETATM   21  N2  UNL     1      15.924  43.542  16.302  1.00  0.00    -0.073 N 
ATOM     22  H23 UNL     1      15.457  44.446  16.360  1.00  0.00     0.274 HD
ATOM     23  H22 UNL     1      15.689  43.309  15.337  1.00  0.00     0.274 HD
ATOM     24  H21 UNL     1      15.527  42.870  16.959  1.00  0.00     0.274 HD
ENDBRANCH   3  21
BRANCH   4  25
HETATM   25  N3  UNL     1      17.695  42.347  14.492  1.00  0.00    -0.244 N 
ATOM     26  H3  UNL     1      18.140  41.444  14.656  1.00  0.00     0.197 HD
BRANCH  25  27
HETATM   27  N4  UNL     1      16.765  42.490  13.675  1.00  0.00    -0.248 NA
BRANCH  27  28
HETATM   28  N5  UNL     1      15.830  42.279  12.875  1.00  0.00    -0.261 N 
ATOM     29  H52 UNL     1      16.272  42.786  12.108  1.00  0.00     0.193 HD
ATOM     30  H51 UNL     1      14.957  41.967  12.450  1.00  0.00     0.193 HD
ENDBRANCH  27  28
ENDBRANCH  25  27
ENDBRANCH   4  25
TORSDOF 10
ENDMDL
MODEL 3
REMARK VINA RESULT: -5.507976726      5.284      6.537
REMARK  10 active torsions:
REMARK  status: ('A' for Active; 'I' for Inactive)
REMARK    1  A    between atoms: C2_2  and  O1_3 
REMARK    2  A    between atoms: C2_2  and  C3_5 
REMARK    3  A    between atoms: C3_5  and  N1_6 
REMARK    4  A    between atoms: C3_5  and  C4_10 
REMARK    5  A    between atoms: C4_10  and  O2_11 
REMARK    6  A    between atoms: C4_10  and  C5_13 
REMARK    7  A    between atoms: C7_15  and  N2_16 
REMARK    8  A    between atoms: C8_20  and  N3_21 
REMARK    9  A    between atoms: N3_21  and  N4_23 
REMARK   10  A    between atoms: N4_23  and  N5_24 
ROOT
HETATM    1  C5  UNL     1      17.382  46.273  17.048  1.00  0.00     0.218 C 
HETATM    2  C6  UNL     1      17.684  45.240  18.066  1.00  0.00     0.070 C 
HETATM    3  C7  UNL     1      16.553  44.204  18.025  1.00  0.00     0.212 C 
HETATM    4  C8  UNL     1      16.641  43.513  16.701  1.00  0.00     0.170 C 
HETATM    5  C9  UNL     1      16.587  44.518  15.578  1.00  0.00     0.262 C 
HETATM    6  N6  UNL     1      17.494  45.600  15.736  1.00  0.00    -0.066 N 
ATOM      7  H61 UNL     1      18.453  45.297  15.566  1.00  0.00     0.277 HD
ATOM      8  H62 UNL     1      17.393  46.272  14.976  1.00  0.00     0.277 HD
ENDROOT
BRANCH   1   9
HETATM    9  C4  UNL     1      18.410  47.384  16.958  1.00  0.00     0.181 C 
BRANCH   9  10
HETATM   10  C3  UNL     1      17.856  48.749  16.755  1.00  0.00     0.242 C 
BRANCH  10  11
HETATM   11  C2  UNL     1      18.097  49.131  15.293  1.00  0.00     0.147 C 
HETATM   12  C1  UNL     1      18.021  50.634  15.121  1.00  0.00     0.041 C 
BRANCH  11  13
HETATM   13  O1  UNL     1      17.103  48.580  14.498  1.00  0.00    -0.394 OA
ATOM     14  H1  UNL     1      17.320  47.663  14.376  1.00  0.00     0.210 HD
ENDBRANCH  11  13
ENDBRANCH  10  11
BRANCH  10  15
HETATM   15  N1  UNL     1      18.499  49.793  17.526  1.00  0.00    -0.070 N 
ATOM     16  H13 UNL     1      19.095  49.445  18.277  1.00  0.00     0.274 HD
ATOM     17  H12 UNL     1      19.228  50.292  17.018  1.00  0.00     0.274 HD
ATOM     18  H11 UNL     1      17.737  50.391  17.848  1.00  0.00     0.274 HD
ENDBRANCH  10  15
ENDBRANCH   9  10
BRANCH   9  19
HETATM   19  O2  UNL     1      19.102  47.095  15.744  1.00  0.00    -0.391 OA
ATOM     20  H2  UNL     1      18.875  46.193  15.550  1.00  0.00     0.210 HD
ENDBRANCH   9  19
ENDBRANCH   1   9
BRANCH   3  21
HETATM   21  N2  UNL     1      15.266  44.832  18.236  1.00  0.00    -0.073 N 
ATOM     22  H23 UNL     1      14.607  44.596  17.494  1.00  0.00     0.274 HD
ATOM     23  H22 UNL     1      14.769  44.416  19.023  1.00  0.00     0.274 HD
ATOM     24  H21 UNL     1      15.366  45.841  18.344  1.00  0.00     0.274 HD
ENDBRANCH   3  21
BRANCH   4  25
HETATM   25  N3  UNL     1      15.499  42.615  16.542  1.00  0.00    -0.244 N 
ATOM     26  H3  UNL     1      14.998  42.227  17.341  1.00  0.00     0.197 HD
BRANCH  25  27
HETATM   27  N4  UNL     1      15.179  42.353  15.366  1.00  0.00    -0.248 NA
BRANCH  27  28
HETATM   28  N5  UNL     1      15.001  41.778  14.273  1.00  0.00    -0.261 N 
ATOM     29  H52 UNL     1      15.581  42.433  13.749  1.00  0.00     0.193 HD
ATOM     30  H51 UNL     1      14.696  41.132  13.545  1.00  0.00     0.193 HD
ENDBRANCH  27  28
ENDBRANCH  25  27
ENDBRANCH   4  25
TORSDOF 10
ENDMDL
MODEL 4
REMARK VINA RESULT: -5.458735130      4.842      6.014
REMARK  10 active torsions:
REMARK  status: ('A' for Active; 'I' for Inactive)
REMARK    1  A    between atoms: C2_2  and  O1_3 
REMARK    2  A    between atoms: C2_2  and  C3_5 
REMARK    3  A    between atoms: C3_5  and  N1_6 
REMARK    4  A    between atoms: C3_5  and  C4_10 
REMARK    5  A    between atoms: C4_10  and  O2_11 
REMARK    6  A    between atoms: C4_10  and  C5_13 
REMARK    7  A    between atoms: C7_15  and  N2_16 
REMARK    8  A    between atoms: C8_20  and  N3_21 
REMARK    9  A    between atoms: N3_21  and  N4_23 
REMARK   10  A    between atoms: N4_23  and  N5_24 
ROOT
HETATM    1  C5  UNL     1      18.411  46.475  16.515  1.00  0.00     0.218 C 
HETATM    2  C6  UNL     1      17.642  46.292  15.263  1.00  0.00     0.070 C 
HETATM    3  C7  UNL     1      17.206  44.822  15.195  1.00  0.00     0.212 C 
HETATM    4  C8  UNL     1      16.231  44.606  16.309  1.00  0.00     0.170 C 
HETATM    5  C9  UNL     1      16.844  44.999  17.630  1.00  0.00     0.262 C 
HETATM    6  N6  UNL     1      17.445  46.287  17.619  1.00  0.00    -0.066 N 
ATOM      7  H61 UNL     1      16.733  47.018  17.606  1.00  0.00     0.277 HD
ATOM      8  H62 UNL     1      17.880  46.492  18.519  1.00  0.00     0.277 HD
ENDROOT
BRANCH   1   9
HETATM    9  C4  UNL     1      18.922  47.885  16.737  1.00  0.00     0.181 C 
BRANCH   9  10
HETATM   10  C3  UNL     1      17.917  48.963  16.546  1.00  0.00     0.242 C 
BRANCH  10  11
HETATM   11  C2  UNL     1      18.433  49.884  15.438  1.00  0.00     0.147 C 
HETATM   12  C1  UNL     1      18.263  51.335  15.836  1.00  0.00     0.041 C 
BRANCH  11  13
HETATM   13  O1  UNL     1      17.686  49.688  14.286  1.00  0.00    -0.394 OA
ATOM     14  H1  UNL     1      18.300  49.620  13.564  1.00  0.00     0.210 HD
ENDBRANCH  11  13
ENDBRANCH  10  11
BRANCH  10  15
HETATM   15  N1  UNL     1      17.720  49.829  17.691  1.00  0.00    -0.070 N 
ATOM     16  H13 UNL     1      17.840  50.821  17.486  1.00  0.00     0.274 HD
ATOM     17  H12 UNL     1      16.750  49.890  18.001  1.00  0.00     0.274 HD
ATOM     18  H11 UNL     1      18.359  49.475  18.403  1.00  0.00     0.274 HD
ENDBRANCH  10  15
ENDBRANCH   9  10
BRANCH   9  19
HETATM   19  O2  UNL     1      19.851  48.070  15.670  1.00  0.00    -0.391 OA
ATOM     20  H2  UNL     1      19.499  48.798  15.172  1.00  0.00     0.210 HD
ENDBRANCH   9  19
ENDBRANCH   1   9
BRANCH   3  21
HETATM   21  N2  UNL     1      18.348  43.938  15.281  1.00  0.00    -0.073 N 
ATOM     22  H23 UNL     1      18.070  42.958  15.231  1.00  0.00     0.274 HD
ATOM     23  H22 UNL     1      18.920  43.980  14.437  1.00  0.00     0.274 HD
ATOM     24  H21 UNL     1      18.897  44.131  16.118  1.00  0.00     0.274 HD
ENDBRANCH   3  21
BRANCH   4  25
HETATM   25  N3  UNL     1      15.890  43.187  16.390  1.00  0.00    -0.244 N 
ATOM     26  H3  UNL     1      16.025  42.643  17.243  1.00  0.00     0.197 HD
BRANCH  25  27
HETATM   27  N4  UNL     1      15.422  42.684  15.350  1.00  0.00    -0.248 NA
BRANCH  27  28
HETATM   28  N5  UNL     1      14.985  41.882  14.499  1.00  0.00    -0.261 N 
ATOM     29  H52 UNL     1      14.869  41.120  15.166  1.00  0.00     0.193 HD
ATOM     30  H51 UNL     1      14.668  41.455  13.629  1.00  0.00     0.193 HD
ENDBRANCH  27  28
ENDBRANCH  25  27
ENDBRANCH   4  25
TORSDOF 10
ENDMDL
MODEL 5
REMARK VINA RESULT: -5.444018443      5.294      6.578
REMARK  10 active torsions:
REMARK  status: ('A' for Active; 'I' for Inactive)
REMARK    1  A    between atoms: C2_2  and  O1_3 
REMARK    2  A    between atoms: C2_2  and  C3_5 
REMARK    3  A    between atoms: C3_5  and  N1_6 
REMARK    4  A    between atoms: C3_5  and  C4_10 
REMARK    5  A    between atoms: C4_10  and  O2_11 
REMARK    6  A    between atoms: C4_10  and  C5_13 
REMARK    7  A    between atoms: C7_15  and  N2_16 
REMARK    8  A    between atoms: C8_20  and  N3_21 
REMARK    9  A    between atoms: N3_21  and  N4_23 
REMARK   10  A    between atoms: N4_23  and  N5_24 
ROOT
HETATM    1  C5  UNL     1      17.614  45.886  16.093  1.00  0.00     0.218 C 
HETATM    2  C6  UNL     1      17.409  45.627  14.649  1.00  0.00     0.070 C 
HETATM    3  C7  UNL     1      17.529  44.113  14.427  1.00  0.00     0.212 C 
HETATM    4  C8  UNL     1      16.370  43.477  15.126  1.00  0.00     0.170 C 
HETATM    5  C9  UNL     1      16.345  43.879  16.580  1.00  0.00     0.262 C 
HETATM    6  N6  UNL     1      16.455  45.281  16.786  1.00  0.00    -0.066 N 
ATOM      7  H61 UNL     1      15.590  45.754  16.525  1.00  0.00     0.277 HD
ATOM      8  H62 UNL     1      16.475  45.500  17.781  1.00  0.00     0.277 HD
ENDROOT
BRANCH   1   9
HETATM    9  C4  UNL     1      17.528  47.348  16.486  1.00  0.00     0.181 C 
BRANCH   9  10
HETATM   10  C3  UNL     1      18.086  48.306  15.496  1.00  0.00     0.242 C 
BRANCH  10  11
HETATM   11  C2  UNL     1      19.286  48.997  16.148  1.00  0.00     0.147 C 
HETATM   12  C1  UNL     1      19.345  50.453  15.736  1.00  0.00     0.041 C 
BRANCH  11  13
HETATM   13  O1  UNL     1      20.460  48.402  15.709  1.00  0.00    -0.394 OA
ATOM     14  H1  UNL     1      20.764  48.905  14.962  1.00  0.00     0.210 HD
ENDBRANCH  11  13
ENDBRANCH  10  11
BRANCH  10  15
HETATM   15  N1  UNL     1      17.196  49.383  15.115  1.00  0.00    -0.070 N 
ATOM     16  H13 UNL     1      16.223  49.231  15.383  1.00  0.00     0.274 HD
ATOM     17  H12 UNL     1      17.331  50.240  15.650  1.00  0.00     0.274 HD
ATOM     18  H11 UNL     1      17.334  49.498  14.111  1.00  0.00     0.274 HD
ENDBRANCH  10  15
ENDBRANCH   9  10
BRANCH   9  19
HETATM   19  O2  UNL     1      18.407  47.440  17.607  1.00  0.00    -0.391 OA
ATOM     20  H2  UNL     1      18.110  48.209  18.078  1.00  0.00     0.210 HD
ENDBRANCH   9  19
ENDBRANCH   1   9
BRANCH   3  21
HETATM   21  N2  UNL     1      18.802  43.618  14.906  1.00  0.00    -0.073 N 
ATOM     22  H23 UNL     1      18.744  42.639  15.183  1.00  0.00     0.274 HD
ATOM     23  H22 UNL     1      19.478  43.525  14.148  1.00  0.00     0.274 HD
ATOM     24  H21 UNL     1      19.160  44.202  15.661  1.00  0.00     0.274 HD
ENDBRANCH   3  21
BRANCH   4  25
HETATM   25  N3  UNL     1      16.508  42.022  15.076  1.00  0.00    -0.244 N 
ATOM     26  H3  UNL     1      16.272  41.483  14.243  1.00  0.00     0.197 HD
BRANCH  25  27
HETATM   27  N4  UNL     1      16.931  41.484  16.118  1.00  0.00    -0.248 NA
BRANCH  27  28
HETATM   28  N5  UNL     1      17.523  40.740  16.925  1.00  0.00    -0.261 N 
ATOM     29  H52 UNL     1      16.667  40.430  17.384  1.00  0.00     0.193 HD
ATOM     30  H51 UNL     1      18.240  40.231  17.444  1.00  0.00     0.193 HD
ENDBRANCH  27  28
ENDBRANCH  25  27
ENDBRANCH   4  25
TORSDOF 10
ENDMDL
