MODEL 1
REMARK VINA RESULT: -6.506148649      0.000      0.000
REMARK  6 active torsions:
REMARK  status: ('A' for Active; 'I' for Inactive)
REMARK    1  A    between atoms: O1_2  and  N1_3 
REMARK    2  A    between atoms: C2_5  and  C4_7 
REMARK    3  A    between atoms: C4_7  and  N2_8 
REMARK    4  A    between atoms: C4_7  and  C5_12 
REMARK       I    between atoms: C5_12  and  N3_14 
REMARK    5  A    between atoms: N3_14  and  C6_16 
REMARK    6  A    between atoms: C9_21  and  N6_22 
ROOT
HETATM    1  C5  UNL     1      18.207  51.147  15.755  1.00  0.00     0.254 C 
HETATM    2  O2  UNL     1      18.621  51.296  16.934  1.00  0.00    -0.271 OA
HETATM    3  N3  UNL     1      18.059  49.817  15.275  1.00  0.00    -0.351 N 
ATOM      4  H3  UNL     1      17.724  49.676  14.321  1.00  0.00     0.163 HD
ENDROOT
BRANCH   1   5
HETATM    5  C4  UNL     1      17.902  52.329  14.947  1.00  0.00     0.321 C 
BRANCH   5   6
HETATM    6  C2  UNL     1      16.504  52.754  14.995  1.00  0.00     0.045 C 
HETATM    7  N1  UNL     1      16.049  53.616  14.162  1.00  0.00    -0.273 N 
ATOM      8  H1  UNL     1      16.681  54.002  13.461  1.00  0.00     0.193 HD
HETATM    9  C3  UNL     1      15.583  52.197  16.009  1.00  0.00     0.068 C 
BRANCH   7  10
HETATM   10  O1  UNL     1      14.740  54.039  14.179  1.00  0.00    -0.285 OA
HETATM   11  C1  UNL     1      13.850  53.873  13.111  1.00  0.00     0.237 C 
ENDBRANCH   7  10
ENDBRANCH   5   6
BRANCH   5  12
HETATM   12  N2  UNL     1      18.356  52.092  13.574  1.00  0.00    -0.061 N 
ATOM     13  H23 UNL     1      18.561  51.106  13.417  1.00  0.00     0.275 HD
ATOM     14  H22 UNL     1      17.593  52.206  12.907  1.00  0.00     0.275 HD
ATOM     15  H21 UNL     1      19.153  52.680  13.328  1.00  0.00     0.275 HD
ENDBRANCH   5  12
ENDBRANCH   1   5
BRANCH   3  16
HETATM   16  C6  UNL     1      18.358  48.674  16.068  1.00  0.00     0.133 C 
HETATM   17  C7  UNL     1      17.546  47.447  15.676  1.00  0.00     0.046 C 
HETATM   18  C8  UNL     1      17.661  46.490  16.853  1.00  0.00     0.132 C 
HETATM   19  N4  UNL     1      19.049  46.321  17.146  1.00  0.00    -0.146 NA
HETATM   20  N5  UNL     1      19.905  46.843  16.195  1.00  0.00    -0.113 NA
HETATM   21  C9  UNL     1      19.806  48.272  16.043  1.00  0.00     0.313 C 
BRANCH  21  22
HETATM   22  N6  UNL     1      20.569  48.889  17.107  1.00  0.00    -0.058 N 
ATOM     23  H63 UNL     1      20.084  49.704  17.483  1.00  0.00     0.276 HD
ATOM     24  H62 UNL     1      20.576  48.303  17.942  1.00  0.00     0.276 HD
ATOM     25  H61 UNL     1      21.518  49.128  16.818  1.00  0.00     0.276 HD
ENDBRANCH  21  22
ENDBRANCH   3  16
TORSDOF 6
ENDMDL
MODEL 2
REMARK VINA RESULT: -6.184332269      2.718      6.472
REMARK  6 active torsions:
REMARK  status: ('A' for Active; 'I' for Inactive)
REMARK    1  A    between atoms: O1_2  and  N1_3 
REMARK    2  A    between atoms: C2_5  and  C4_7 
REMARK    3  A    between atoms: C4_7  and  N2_8 
REMARK    4  A    between atoms: C4_7  and  C5_12 
REMARK       I    between atoms: C5_12  and  N3_14 
REMARK    5  A    between atoms: N3_14  and  C6_16 
REMARK    6  A    between atoms: C9_21  and  N6_22 
ROOT
HETATM    1  C5  UNL     1      17.528  48.328  15.565  1.00  0.00     0.254 C 
HETATM    2  O2  UNL     1      17.187  48.257  14.356  1.00  0.00    -0.271 OA
HETATM    3  N3  UNL     1      17.410  49.592  16.206  1.00  0.00    -0.351 N 
ATOM      4  H3  UNL     1      17.681  49.670  17.187  1.00  0.00     0.163 HD
ENDROOT
BRANCH   1   5
HETATM    5  C4  UNL     1      18.021  47.129  16.244  1.00  0.00     0.321 C 
BRANCH   5   6
HETATM    6  C2  UNL     1      17.354  45.890  15.847  1.00  0.00     0.045 C 
HETATM    7  N1  UNL     1      17.500  45.414  14.665  1.00  0.00    -0.273 N 
ATOM      8  H1  UNL     1      18.092  45.916  14.003  1.00  0.00     0.193 HD
HETATM    9  C3  UNL     1      16.496  45.157  16.801  1.00  0.00     0.068 C 
BRANCH   7  10
HETATM   10  O1  UNL     1      16.888  44.251  14.257  1.00  0.00    -0.285 OA
HETATM   11  C1  UNL     1      17.579  43.103  13.850  1.00  0.00     0.237 C 
ENDBRANCH   7  10
ENDBRANCH   5   6
BRANCH   5  12
HETATM   12  N2  UNL     1      17.957  47.346  17.691  1.00  0.00    -0.061 N 
ATOM     13  H23 UNL     1      18.360  48.246  17.949  1.00  0.00     0.275 HD
ATOM     14  H22 UNL     1      16.999  47.504  18.001  1.00  0.00     0.275 HD
ATOM     15  H21 UNL     1      18.393  46.583  18.211  1.00  0.00     0.275 HD
ENDBRANCH   5  12
ENDBRANCH   1   5
BRANCH   3  16
HETATM   16  C6  UNL     1      16.930  50.753  15.538  1.00  0.00     0.133 C 
HETATM   17  C7  UNL     1      16.089  51.652  16.433  1.00  0.00     0.046 C 
HETATM   18  C8  UNL     1      15.327  52.569  15.489  1.00  0.00     0.132 C 
HETATM   19  N4  UNL     1      16.274  53.180  14.611  1.00  0.00    -0.146 NA
HETATM   20  N5  UNL     1      17.595  52.989  14.969  1.00  0.00    -0.113 NA
HETATM   21  C9  UNL     1      18.012  51.610  14.943  1.00  0.00     0.313 C 
BRANCH  21  22
HETATM   22  N6  UNL     1      18.305  51.257  13.570  1.00  0.00    -0.058 N 
ATOM     23  H63 UNL     1      19.303  51.093  13.438  1.00  0.00     0.276 HD
ATOM     24  H62 UNL     1      17.955  50.325  13.348  1.00  0.00     0.276 HD
ATOM     25  H61 UNL     1      17.956  51.949  12.907  1.00  0.00     0.276 HD
ENDBRANCH  21  22
ENDBRANCH   3  16
TORSDOF 6
ENDMDL
MODEL 3
REMARK VINA RESULT: -6.097444377      4.266      7.701
REMARK  6 active torsions:
REMARK  status: ('A' for Active; 'I' for Inactive)
REMARK    1  A    between atoms: O1_2  and  N1_3 
REMARK    2  A    between atoms: C2_5  and  C4_7 
REMARK    3  A    between atoms: C4_7  and  N2_8 
REMARK    4  A    between atoms: C4_7  and  C5_12 
REMARK       I    between atoms: C5_12  and  N3_14 
REMARK    5  A    between atoms: N3_14  and  C6_16 
REMARK    6  A    between atoms: C9_21  and  N6_22 
ROOT
HETATM    1  C5  UNL     1      17.905  45.153  14.744  1.00  0.00     0.254 C 
HETATM    2  O2  UNL     1      19.042  45.025  15.266  1.00  0.00    -0.271 OA
HETATM    3  N3  UNL     1      17.265  46.418  14.865  1.00  0.00    -0.351 N 
ATOM      4  H3  UNL     1      16.342  46.540  14.449  1.00  0.00     0.163 HD
ENDROOT
BRANCH   1   5
HETATM    5  C4  UNL     1      17.302  44.014  14.049  1.00  0.00     0.321 C 
BRANCH   5   6
HETATM    6  C2  UNL     1      16.968  42.884  14.914  1.00  0.00     0.045 C 
HETATM    7  N1  UNL     1      17.886  42.239  15.538  1.00  0.00    -0.273 N 
ATOM      8  H1  UNL     1      18.856  42.530  15.420  1.00  0.00     0.193 HD
HETATM    9  C3  UNL     1      15.564  42.457  15.088  1.00  0.00     0.068 C 
BRANCH   7  10
HETATM   10  O1  UNL     1      17.609  41.170  16.358  1.00  0.00    -0.285 OA
HETATM   11  C1  UNL     1      18.449  40.739  17.393  1.00  0.00     0.237 C 
ENDBRANCH   7  10
ENDBRANCH   5   6
BRANCH   5  12
HETATM   12  N2  UNL     1      18.177  43.619  12.943  1.00  0.00    -0.061 N 
ATOM     13  H23 UNL     1      18.829  44.365  12.702  1.00  0.00     0.275 HD
ATOM     14  H22 UNL     1      18.846  42.907  13.235  1.00  0.00     0.275 HD
ATOM     15  H21 UNL     1      17.645  43.314  12.126  1.00  0.00     0.275 HD
ENDBRANCH   5  12
ENDBRANCH   1   5
BRANCH   3  16
HETATM   16  C6  UNL     1      17.859  47.519  15.543  1.00  0.00     0.133 C 
HETATM   17  C7  UNL     1      17.377  48.867  15.026  1.00  0.00     0.046 C 
HETATM   18  C8  UNL     1      18.392  49.882  15.529  1.00  0.00     0.132 C 
HETATM   19  N4  UNL     1      18.527  49.705  16.940  1.00  0.00    -0.146 NA
HETATM   20  N5  UNL     1      17.581  48.871  17.508  1.00  0.00    -0.113 NA
HETATM   21  C9  UNL     1      17.641  47.514  17.030  1.00  0.00     0.313 C 
BRANCH  21  22
HETATM   22  N6  UNL     1      18.705  46.836  17.742  1.00  0.00    -0.058 N 
ATOM     23  H63 UNL     1      19.353  47.504  18.157  1.00  0.00     0.276 HD
ATOM     24  H62 UNL     1      18.355  46.396  18.593  1.00  0.00     0.276 HD
ATOM     25  H61 UNL     1      19.197  46.162  17.156  1.00  0.00     0.276 HD
ENDBRANCH  21  22
ENDBRANCH   3  16
TORSDOF 6
ENDMDL
MODEL 4
REMARK VINA RESULT: -5.998392333      4.029      7.290
REMARK  6 active torsions:
REMARK  status: ('A' for Active; 'I' for Inactive)
REMARK    1  A    between atoms: O1_2  and  N1_3 
REMARK    2  A    between atoms: C2_5  and  C4_7 
REMARK    3  A    between atoms: C4_7  and  N2_8 
REMARK    4  A    between atoms: C4_7  and  C5_12 
REMARK       I    between atoms: C5_12  and  N3_14 
REMARK    5  A    between atoms: N3_14  and  C6_16 
REMARK    6  A    between atoms: C9_21  and  N6_22 
ROOT
HETATM    1  C5  UNL     1      17.862  45.340  14.863  1.00  0.00     0.254 C 
HETATM    2  O2  UNL     1      19.055  45.280  15.257  1.00  0.00    -0.271 OA
HETATM    3  N3  UNL     1      17.190  46.587  14.995  1.00  0.00    -0.351 N 
ATOM      4  H3  UNL     1      16.221  46.655  14.682  1.00  0.00     0.163 HD
ENDROOT
BRANCH   1   5
HETATM    5  C4  UNL     1      17.231  44.147  14.297  1.00  0.00     0.321 C 
BRANCH   5   6
HETATM    6  C2  UNL     1      16.871  43.127  15.281  1.00  0.00     0.045 C 
HETATM    7  N1  UNL     1      15.750  43.179  15.902  1.00  0.00    -0.273 N 
ATOM      8  H1  UNL     1      15.111  43.947  15.698  1.00  0.00     0.193 HD
HETATM    9  C3  UNL     1      17.792  42.011  15.581  1.00  0.00     0.068 C 
BRANCH   7  10
HETATM   10  O1  UNL     1      15.378  42.237  16.834  1.00  0.00    -0.285 OA
HETATM   11  C1  UNL     1      15.423  42.445  18.218  1.00  0.00     0.237 C 
ENDBRANCH   7  10
ENDBRANCH   5   6
BRANCH   5  12
HETATM   12  N2  UNL     1      18.096  43.611  13.243  1.00  0.00    -0.061 N 
ATOM     13  H23 UNL     1      18.530  42.734  13.530  1.00  0.00     0.275 HD
ATOM     14  H22 UNL     1      17.549  43.268  12.453  1.00  0.00     0.275 HD
ATOM     15  H21 UNL     1      18.796  44.289  12.942  1.00  0.00     0.275 HD
ENDBRANCH   5  12
ENDBRANCH   1   5
BRANCH   3  16
HETATM   16  C6  UNL     1      17.811  47.742  15.547  1.00  0.00     0.133 C 
HETATM   17  C7  UNL     1      17.271  49.043  14.969  1.00  0.00     0.046 C 
HETATM   18  C8  UNL     1      18.302  50.104  15.324  1.00  0.00     0.132 C 
HETATM   19  N4  UNL     1      18.538  50.033  16.731  1.00  0.00    -0.146 NA
HETATM   20  N5  UNL     1      17.648  49.232  17.423  1.00  0.00    -0.113 NA
HETATM   21  C9  UNL     1      17.698  47.844  17.043  1.00  0.00     0.313 C 
BRANCH  21  22
HETATM   22  N6  UNL     1      18.819  47.233  17.725  1.00  0.00    -0.058 N 
ATOM     23  H63 UNL     1      19.084  46.354  17.281  1.00  0.00     0.276 HD
ATOM     24  H62 UNL     1      19.677  47.761  17.567  1.00  0.00     0.276 HD
ATOM     25  H61 UNL     1      18.645  47.104  18.721  1.00  0.00     0.276 HD
ENDBRANCH  21  22
ENDBRANCH   3  16
TORSDOF 6
ENDMDL
MODEL 5
REMARK VINA RESULT: -5.848985817      3.722      6.637
REMARK  6 active torsions:
REMARK  status: ('A' for Active; 'I' for Inactive)
REMARK    1  A    between atoms: O1_2  and  N1_3 
REMARK    2  A    between atoms: C2_5  and  C4_7 
REMARK    3  A    between atoms: C4_7  and  N2_8 
REMARK    4  A    between atoms: C4_7  and  C5_12 
REMARK       I    between atoms: C5_12  and  N3_14 
REMARK    5  A    between atoms: N3_14  and  C6_16 
REMARK    6  A    between atoms: C9_21  and  N6_22 
ROOT
HETATM    1  C5  UNL     1      17.983  46.220  15.179  1.00  0.00     0.254 C 
HETATM    2  O2  UNL     1      19.106  46.067  15.726  1.00  0.00    -0.271 OA
HETATM    3  N3  UNL     1      17.444  47.535  15.143  1.00  0.00    -0.351 N 
ATOM      4  H3  UNL     1      16.534  47.679  14.704  1.00  0.00     0.163 HD
ENDROOT
BRANCH   1   5
HETATM    5  C4  UNL     1      17.295  45.057  14.616  1.00  0.00     0.321 C 
BRANCH   5   6
HETATM    6  C2  UNL     1      16.513  44.288  15.583  1.00  0.00     0.045 C 
HETATM    7  N1  UNL     1      16.187  44.792  16.716  1.00  0.00    -0.273 N 
ATOM      8  H1  UNL     1      16.482  45.744  16.933  1.00  0.00     0.193 HD
HETATM    9  C3  UNL     1      16.082  42.908  15.275  1.00  0.00     0.068 C 
BRANCH   7  10
HETATM   10  O1  UNL     1      15.453  44.097  17.650  1.00  0.00    -0.285 OA
HETATM   11  C1  UNL     1      15.904  43.811  18.945  1.00  0.00     0.237 C 
ENDBRANCH   7  10
ENDBRANCH   5   6
BRANCH   5  12
HETATM   12  N2  UNL     1      18.273  44.223  13.914  1.00  0.00    -0.061 N 
ATOM     13  H23 UNL     1      17.814  43.516  13.340  1.00  0.00     0.275 HD
ATOM     14  H22 UNL     1      18.746  44.746  13.178  1.00  0.00     0.275 HD
ATOM     15  H21 UNL     1      18.945  43.800  14.557  1.00  0.00     0.275 HD
ENDBRANCH   5  12
ENDBRANCH   1   5
BRANCH   3  16
HETATM   16  C6  UNL     1      18.120  48.660  15.693  1.00  0.00     0.133 C 
HETATM   17  C7  UNL     1      17.821  49.956  14.953  1.00  0.00     0.046 C 
HETATM   18  C8  UNL     1      18.915  50.926  15.373  1.00  0.00     0.132 C 
HETATM   19  N4  UNL     1      18.952  50.953  16.801  1.00  0.00    -0.146 NA
HETATM   20  N5  UNL     1      17.890  50.317  17.416  1.00  0.00    -0.113 NA
HETATM   21  C9  UNL     1      17.823  48.904  17.147  1.00  0.00     0.313 C 
BRANCH  21  22
HETATM   22  N6  UNL     1      18.763  48.236  18.022  1.00  0.00    -0.058 N 
ATOM     23  H63 UNL     1      18.566  47.237  18.079  1.00  0.00     0.276 HD
ATOM     24  H62 UNL     1      19.692  48.197  17.602  1.00  0.00     0.276 HD
ATOM     25  H61 UNL     1      18.797  48.657  18.951  1.00  0.00     0.276 HD
ENDBRANCH  21  22
ENDBRANCH   3  16
TORSDOF 6
ENDMDL
