MODEL 1
REMARK VINA RESULT: -6.831872263      0.000      0.000
REMARK  5 active torsions:
REMARK  status: ('A' for Active; 'I' for Inactive)
REMARK       I    between atoms: C1_4  and  N3_6 
REMARK    1  A    between atoms: N3_6  and  N4_8 
REMARK    2  A    between atoms: N4_8  and  N5_9 
REMARK       I    between atoms: N5_9  and  C2_11 
REMARK       I    between atoms: C2_11  and  N7_21 
REMARK    3  A    between atoms: N6_12  and  C3_14 
REMARK    4  A    between atoms: C3_14  and  C4_15 
REMARK    5  A    between atoms: N7_21  and  N8_23 
ROOT
HETATM    1  N5  UNL     1      18.331  45.466  15.309  1.00  0.00    -0.115 N 
ATOM      2  H5  UNL     1      19.252  45.037  15.218  1.00  0.00     0.203 HD
HETATM    3  C2  UNL     1      18.094  46.470  16.286  1.00  0.00     0.710 C 
HETATM    4  N6  UNL     1      17.853  47.658  15.863  1.00  0.00    -0.219 N 
ATOM      5  H6  UNL     1      17.847  47.811  14.854  1.00  0.00     0.178 HD
HETATM    6  N7  UNL     1      18.145  46.072  17.641  1.00  0.00    -0.071 N 
ATOM      7  H7  UNL     1      19.036  46.097  18.136  1.00  0.00     0.212 HD
ENDROOT
BRANCH   1   8
HETATM    8  N4  UNL     1      17.286  45.079  14.479  1.00  0.00    -0.005 NA
BRANCH   8   9
HETATM    9  N3  UNL     1      16.504  44.169  15.165  1.00  0.00    -0.257 N 
HETATM   10  C1  UNL     1      16.060  42.979  14.543  1.00  0.00     0.199 C 
HETATM   11  N1  UNL     1      16.465  42.685  13.349  1.00  0.00    -0.373 N 
HETATM   12  N2  UNL     1      15.177  42.098  15.209  1.00  0.00    -0.063 NA
ATOM     13  H12 UNL     1      16.145  41.826  12.901  1.00  0.00     0.158 HD
ATOM     14  H11 UNL     1      17.102  43.320  12.869  1.00  0.00     0.158 HD
ATOM     15  H3  UNL     1      16.243  44.359  16.132  1.00  0.00     0.187 HD
ENDBRANCH   8   9
ENDBRANCH   1   8
BRANCH   4  16
HETATM   16  C3  UNL     1      17.593  48.786  16.711  1.00  0.00     0.176 C 
BRANCH  16  17
HETATM   17  C4  UNL     1      17.550  50.050  15.941  1.00  0.00    -0.040 A 
HETATM   18  C5  UNL     1      16.674  51.082  16.231  1.00  0.00     0.009 A 
HETATM   19  C6  UNL     1      16.670  52.246  15.481  1.00  0.00     0.001 A 
HETATM   20  C7  UNL     1      17.539  52.404  14.430  1.00  0.00     0.000 A 
HETATM   21  C8  UNL     1      18.405  51.397  14.135  1.00  0.00     0.001 A 
HETATM   22  C9  UNL     1      18.413  50.228  14.884  1.00  0.00     0.009 A 
ENDBRANCH  16  17
ENDBRANCH   4  16
BRANCH   6  23
HETATM   23  N8  UNL     1      17.005  45.646  18.312  1.00  0.00    -0.024 N 
HETATM   24  O1  UNL     1      17.033  45.138  19.460  1.00  0.00    -0.516 OA
HETATM   25  O2  UNL     1      15.781  45.770  17.725  1.00  0.00    -0.516 OA
ENDBRANCH   6  23
TORSDOF 5
ENDMDL
MODEL 2
REMARK VINA RESULT: -6.559321032      1.251      1.690
REMARK  5 active torsions:
REMARK  status: ('A' for Active; 'I' for Inactive)
REMARK       I    between atoms: C1_4  and  N3_6 
REMARK    1  A    between atoms: N3_6  and  N4_8 
REMARK    2  A    between atoms: N4_8  and  N5_9 
REMARK       I    between atoms: N5_9  and  C2_11 
REMARK       I    between atoms: C2_11  and  N7_21 
REMARK    3  A    between atoms: N6_12  and  C3_14 
REMARK    4  A    between atoms: C3_14  and  C4_15 
REMARK    5  A    between atoms: N7_21  and  N8_23 
ROOT
HETATM    1  N5  UNL     1      19.201  45.650  15.764  1.00  0.00    -0.115 N 
ATOM      2  H5  UNL     1      19.825  44.862  15.938  1.00  0.00     0.203 HD
HETATM    3  C2  UNL     1      19.204  46.780  16.626  1.00  0.00     0.710 C 
HETATM    4  N6  UNL     1      19.629  47.889  16.140  1.00  0.00    -0.219 N 
ATOM      5  H6  UNL     1      19.939  47.895  15.167  1.00  0.00     0.178 HD
HETATM    6  N7  UNL     1      18.738  46.582  17.945  1.00  0.00    -0.071 N 
ATOM      7  H7  UNL     1      19.396  46.292  18.669  1.00  0.00     0.212 HD
ENDROOT
BRANCH   1   8
HETATM    8  N4  UNL     1      18.332  45.637  14.680  1.00  0.00    -0.005 NA
BRANCH   8   9
HETATM    9  N3  UNL     1      17.324  44.729  14.944  1.00  0.00    -0.257 N 
HETATM   10  C1  UNL     1      17.124  43.604  14.112  1.00  0.00     0.199 C 
HETATM   11  N1  UNL     1      17.949  43.362  13.143  1.00  0.00    -0.373 N 
HETATM   12  N2  UNL     1      16.031  42.730  14.321  1.00  0.00    -0.063 NA
ATOM     13  H12 UNL     1      17.804  42.551  12.542  1.00  0.00     0.158 HD
ATOM     14  H11 UNL     1      18.736  43.992  12.992  1.00  0.00     0.158 HD
ATOM     15  H3  UNL     1      16.718  44.872  15.751  1.00  0.00     0.187 HD
ENDBRANCH   8   9
ENDBRANCH   1   8
BRANCH   4  16
HETATM   16  C3  UNL     1      19.699  49.123  16.870  1.00  0.00     0.176 C 
BRANCH  16  17
HETATM   17  C4  UNL     1      18.747  50.125  16.341  1.00  0.00    -0.040 A 
HETATM   18  C5  UNL     1      18.978  50.853  15.187  1.00  0.00     0.009 A 
HETATM   19  C6  UNL     1      18.056  51.782  14.733  1.00  0.00     0.001 A 
HETATM   20  C7  UNL     1      16.888  52.001  15.419  1.00  0.00     0.000 A 
HETATM   21  C8  UNL     1      16.648  51.292  16.556  1.00  0.00     0.001 A 
HETATM   22  C9  UNL     1      17.569  50.360  17.015  1.00  0.00     0.009 A 
ENDBRANCH  16  17
ENDBRANCH   4  16
BRANCH   6  23
HETATM   23  N8  UNL     1      17.402  46.774  18.276  1.00  0.00    -0.024 N 
HETATM   24  O1  UNL     1      17.025  47.553  19.186  1.00  0.00    -0.516 OA
HETATM   25  O2  UNL     1      16.428  46.101  17.601  1.00  0.00    -0.516 OA
ENDBRANCH   6  23
TORSDOF 5
ENDMDL
MODEL 3
REMARK VINA RESULT: -6.557272719      5.957      7.791
REMARK  5 active torsions:
REMARK  status: ('A' for Active; 'I' for Inactive)
REMARK       I    between atoms: C1_4  and  N3_6 
REMARK    1  A    between atoms: N3_6  and  N4_8 
REMARK    2  A    between atoms: N4_8  and  N5_9 
REMARK       I    between atoms: N5_9  and  C2_11 
REMARK       I    between atoms: C2_11  and  N7_21 
REMARK    3  A    between atoms: N6_12  and  C3_14 
REMARK    4  A    between atoms: C3_14  and  C4_15 
REMARK    5  A    between atoms: N7_21  and  N8_23 
ROOT
HETATM    1  N5  UNL     1      14.506  52.748  14.411  1.00  0.00    -0.115 N 
ATOM      2  H5  UNL     1      13.843  52.021  14.140  1.00  0.00     0.203 HD
HETATM    3  C2  UNL     1      15.529  52.478  15.360  1.00  0.00     0.710 C 
HETATM    4  N6  UNL     1      16.741  52.483  14.936  1.00  0.00    -0.219 N 
ATOM      5  H6  UNL     1      16.898  52.680  13.947  1.00  0.00     0.178 HD
HETATM    6  N7  UNL     1      15.121  52.226  16.688  1.00  0.00    -0.071 N 
ATOM      7  H7  UNL     1      14.899  51.270  16.970  1.00  0.00     0.212 HD
ENDROOT
BRANCH   1   8
HETATM    8  N4  UNL     1      14.424  54.020  13.858  1.00  0.00    -0.005 NA
BRANCH   8   9
HETATM    9  N3  UNL     1      13.748  53.927  12.657  1.00  0.00    -0.257 N 
HETATM   10  C1  UNL     1      12.411  54.373  12.540  1.00  0.00     0.199 C 
HETATM   11  N1  UNL     1      11.838  54.965  13.540  1.00  0.00    -0.373 N 
HETATM   12  N2  UNL     1      11.685  54.186  11.341  1.00  0.00    -0.063 NA
ATOM     13  H12 UNL     1      10.874  55.287  13.455  1.00  0.00     0.158 HD
ATOM     14  H11 UNL     1      12.362  55.100  14.404  1.00  0.00     0.158 HD
ATOM     15  H3  UNL     1      14.219  53.531  11.844  1.00  0.00     0.187 HD
ENDBRANCH   8   9
ENDBRANCH   1   8
BRANCH   4  16
HETATM   16  C3  UNL     1      17.890  52.231  15.757  1.00  0.00     0.176 C 
BRANCH  16  17
HETATM   17  C4  UNL     1      18.218  50.789  15.810  1.00  0.00    -0.040 A 
HETATM   18  C5  UNL     1      17.358  49.800  15.363  1.00  0.00     0.009 A 
HETATM   19  C6  UNL     1      17.711  48.463  15.434  1.00  0.00     0.001 A 
HETATM   20  C7  UNL     1      18.925  48.085  15.949  1.00  0.00     0.000 A 
HETATM   21  C8  UNL     1      19.781  49.047  16.392  1.00  0.00     0.001 A 
HETATM   22  C9  UNL     1      19.432  50.390  16.323  1.00  0.00     0.009 A 
ENDBRANCH  16  17
ENDBRANCH   4  16
BRANCH   6  23
HETATM   23  N8  UNL     1      15.016  53.252  17.620  1.00  0.00    -0.024 N 
HETATM   24  O1  UNL     1      15.276  53.103  18.839  1.00  0.00    -0.516 OA
HETATM   25  O2  UNL     1      14.613  54.493  17.225  1.00  0.00    -0.516 OA
ENDBRANCH   6  23
TORSDOF 5
ENDMDL
MODEL 4
REMARK VINA RESULT: -6.539044639      5.014      7.113
REMARK  5 active torsions:
REMARK  status: ('A' for Active; 'I' for Inactive)
REMARK       I    between atoms: C1_4  and  N3_6 
REMARK    1  A    between atoms: N3_6  and  N4_8 
REMARK    2  A    between atoms: N4_8  and  N5_9 
REMARK       I    between atoms: N5_9  and  C2_11 
REMARK       I    between atoms: C2_11  and  N7_21 
REMARK    3  A    between atoms: N6_12  and  C3_14 
REMARK    4  A    between atoms: C3_14  and  C4_15 
REMARK    5  A    between atoms: N7_21  and  N8_23 
ROOT
HETATM    1  N5  UNL     1      17.505  51.438  15.134  1.00  0.00    -0.115 N 
ATOM      2  H5  UNL     1      17.132  50.811  14.421  1.00  0.00     0.203 HD
HETATM    3  C2  UNL     1      17.931  50.932  16.392  1.00  0.00     0.710 C 
HETATM    4  N6  UNL     1      19.186  50.992  16.655  1.00  0.00    -0.219 N 
ATOM      5  H6  UNL     1      19.801  51.397  15.949  1.00  0.00     0.178 HD
HETATM    6  N7  UNL     1      16.933  50.407  17.243  1.00  0.00    -0.071 N 
ATOM      7  H7  UNL     1      16.682  49.421  17.169  1.00  0.00     0.212 HD
ENDROOT
BRANCH   1   8
HETATM    8  N4  UNL     1      17.604  52.803  14.892  1.00  0.00    -0.005 NA
BRANCH   8   9
HETATM    9  N3  UNL     1      16.637  53.150  13.969  1.00  0.00    -0.257 N 
HETATM   10  C1  UNL     1      15.384  53.656  14.384  1.00  0.00     0.199 C 
HETATM   11  N1  UNL     1      15.166  53.889  15.640  1.00  0.00    -0.373 N 
HETATM   12  N2  UNL     1      14.358  53.916  13.446  1.00  0.00    -0.063 NA
ATOM     13  H12 UNL     1      14.262  54.254  15.939  1.00  0.00     0.158 HD
ATOM     14  H11 UNL     1      15.906  53.702  16.316  1.00  0.00     0.158 HD
ATOM     15  H3  UNL     1      16.830  53.040  12.973  1.00  0.00     0.187 HD
ENDBRANCH   8   9
ENDBRANCH   1   8
BRANCH   4  16
HETATM   16  C3  UNL     1      19.783  50.527  17.875  1.00  0.00     0.176 C 
BRANCH  16  17
HETATM   17  C4  UNL     1      20.804  49.485  17.621  1.00  0.00    -0.040 A 
HETATM   18  C5  UNL     1      20.615  48.443  16.730  1.00  0.00     0.009 A 
HETATM   19  C6  UNL     1      21.600  47.491  16.528  1.00  0.00     0.001 A 
HETATM   20  C7  UNL     1      22.790  47.559  17.207  1.00  0.00     0.000 A 
HETATM   21  C8  UNL     1      22.989  48.579  18.087  1.00  0.00     0.001 A 
HETATM   22  C9  UNL     1      22.004  49.536  18.293  1.00  0.00     0.009 A 
ENDBRANCH  16  17
ENDBRANCH   4  16
BRANCH   6  23
HETATM   23  N8  UNL     1      16.288  51.205  18.180  1.00  0.00    -0.024 N 
HETATM   24  O1  UNL     1      15.318  51.950  17.896  1.00  0.00    -0.516 OA
HETATM   25  O2  UNL     1      16.703  51.205  19.478  1.00  0.00    -0.516 OA
ENDBRANCH   6  23
TORSDOF 5
ENDMDL
MODEL 5
REMARK VINA RESULT: -6.532995173      1.794      2.387
REMARK  5 active torsions:
REMARK  status: ('A' for Active; 'I' for Inactive)
REMARK       I    between atoms: C1_4  and  N3_6 
REMARK    1  A    between atoms: N3_6  and  N4_8 
REMARK    2  A    between atoms: N4_8  and  N5_9 
REMARK       I    between atoms: N5_9  and  C2_11 
REMARK       I    between atoms: C2_11  and  N7_21 
REMARK    3  A    between atoms: N6_12  and  C3_14 
REMARK    4  A    between atoms: C3_14  and  C4_15 
REMARK    5  A    between atoms: N7_21  and  N8_23 
ROOT
HETATM    1  N5  UNL     1      18.046  44.394  13.858  1.00  0.00    -0.115 N 
ATOM      2  H5  UNL     1      18.700  44.445  13.077  1.00  0.00     0.203 HD
HETATM    3  C2  UNL     1      18.247  45.183  15.023  1.00  0.00     0.710 C 
HETATM    4  N6  UNL     1      17.395  46.115  15.257  1.00  0.00    -0.219 N 
ATOM      5  H6  UNL     1      16.627  46.234  14.596  1.00  0.00     0.178 HD
HETATM    6  N7  UNL     1      19.370  44.872  15.822  1.00  0.00    -0.071 N 
ATOM      7  H7  UNL     1      20.265  45.318  15.621  1.00  0.00     0.212 HD
ENDROOT
BRANCH   1   8
HETATM    8  N4  UNL     1      16.942  43.552  13.802  1.00  0.00    -0.005 NA
BRANCH   8   9
HETATM    9  N3  UNL     1      16.663  43.118  15.084  1.00  0.00    -0.257 N 
HETATM   10  C1  UNL     1      15.572  42.256  15.337  1.00  0.00     0.199 C 
HETATM   11  N1  UNL     1      14.877  41.787  14.349  1.00  0.00    -0.373 N 
HETATM   12  N2  UNL     1      15.224  41.892  16.659  1.00  0.00    -0.063 NA
ATOM     13  H12 UNL     1      14.089  41.165  14.532  1.00  0.00     0.158 HD
ATOM     14  H11 UNL     1      15.127  42.049  13.396  1.00  0.00     0.158 HD
ATOM     15  H3  UNL     1      17.253  43.423  15.857  1.00  0.00     0.187 HD
ENDBRANCH   8   9
ENDBRANCH   1   8
BRANCH   4  16
HETATM   16  C3  UNL     1      17.449  47.000  16.385  1.00  0.00     0.176 C 
BRANCH  16  17
HETATM   17  C4  UNL     1      18.019  48.317  16.019  1.00  0.00    -0.040 A 
HETATM   18  C5  UNL     1      19.226  48.782  16.512  1.00  0.00     0.009 A 
HETATM   19  C6  UNL     1      19.718  50.022  16.140  1.00  0.00     0.001 A 
HETATM   20  C7  UNL     1      19.018  50.821  15.271  1.00  0.00     0.000 A 
HETATM   21  C8  UNL     1      17.830  50.376  14.779  1.00  0.00     0.001 A 
HETATM   22  C9  UNL     1      17.332  49.133  15.148  1.00  0.00     0.009 A 
ENDBRANCH  16  17
ENDBRANCH   4  16
BRANCH   6  23
HETATM   23  N8  UNL     1      19.279  43.971  16.876  1.00  0.00    -0.024 N 
HETATM   24  O1  UNL     1      20.253  43.292  17.286  1.00  0.00    -0.516 OA
HETATM   25  O2  UNL     1      18.091  43.790  17.519  1.00  0.00    -0.516 OA
ENDBRANCH   6  23
TORSDOF 5
ENDMDL
