MODEL 1
REMARK VINA RESULT: -6.551146280      0.000      0.000
REMARK  8 active torsions:
REMARK  status: ('A' for Active; 'I' for Inactive)
REMARK    1  A    between atoms: C2_2  and  C3_3 
REMARK    2  A    between atoms: C3_3  and  C4_4 
REMARK    3  A    between atoms: C4_4  and  C5_5 
REMARK    4  A    between atoms: C5_5  and  N1_6 
REMARK    5  A    between atoms: C7_11  and  N3_12 
REMARK    6  A    between atoms: C9_17  and  N5_18 
REMARK    7  A    between atoms: N5_18  and  C10_20 
REMARK    8  A    between atoms: C10_20  and  C11_21 
ROOT
HETATM    1  N1  UNL     1      33.560  43.217  -7.741  1.00  0.00    -0.225 N 
ATOM      2  H1  UNL     1      33.583  44.163  -7.362  1.00  0.00     0.177 HD
HETATM    3  C6  UNL     1      34.165  42.316  -7.068  1.00  0.00     0.707 A 
HETATM    4  N2  UNL     1      34.778  42.717  -5.914  1.00  0.00    -0.022 N 
ATOM      5  H2  UNL     1      34.732  43.699  -5.639  1.00  0.00     0.203 HD
HETATM    6  C7  UNL     1      35.442  41.845  -5.132  1.00  0.00     0.706 A 
HETATM    7  N4  UNL     1      35.471  40.565  -5.544  1.00  0.00    -0.022 N 
ATOM      8  H4  UNL     1      35.966  39.878  -4.975  1.00  0.00     0.203 HD
HETATM    9  C9  UNL     1      34.864  40.153  -6.689  1.00  0.00     0.707 A 
HETATM   10  N6  UNL     1      34.206  41.046  -7.455  1.00  0.00    -0.022 N 
ATOM     11  H6  UNL     1      33.747  40.751  -8.317  1.00  0.00     0.203 HD
ENDROOT
BRANCH   1  12
HETATM   12  C5  UNL     1      32.858  43.039  -8.962  1.00  0.00     0.138 C 
BRANCH  12  13
HETATM   13  C4  UNL     1      33.730  43.571 -10.092  1.00  0.00     0.020 C 
BRANCH  13  14
HETATM   14  C3  UNL     1      33.379  42.778 -11.341  1.00  0.00     0.001 C 
BRANCH  14  15
HETATM   15  C2  UNL     1      33.279  43.658 -12.554  1.00  0.00    -0.004 C 
HETATM   16  C1  UNL     1      33.576  45.069 -12.167  1.00  0.00     0.005 C 
ENDBRANCH  14  15
ENDBRANCH  13  14
ENDBRANCH  12  13
ENDBRANCH   1  12
BRANCH   6  17
HETATM   17  N3  UNL     1      35.996  42.280  -4.065  1.00  0.00    -0.229 N 
HETATM   18  C8  UNL     1      37.383  42.553  -3.881  1.00  0.00     0.165 C 
ATOM     19  H3  UNL     1      35.384  42.448  -3.266  1.00  0.00     0.177 HD
ENDBRANCH   6  17
BRANCH   9  20
HETATM   20  N5  UNL     1      34.894  38.926  -7.082  1.00  0.00    -0.225 N 
ATOM     21  H5  UNL     1      35.683  38.320  -6.860  1.00  0.00     0.177 HD
BRANCH  20  22
HETATM   22  C10 UNL     1      33.766  38.438  -7.849  1.00  0.00     0.137 C 
BRANCH  22  23
HETATM   23  C11 UNL     1      32.743  37.788  -6.925  1.00  0.00     0.016 C 
HETATM   24  C12 UNL     1      31.497  37.371  -7.695  1.00  0.00     0.006 C 
ENDBRANCH  22  23
ENDBRANCH  20  22
ENDBRANCH   9  20
TORSDOF 8
ENDMDL
MODEL 2
REMARK VINA RESULT: -6.500302836      1.483      5.891
REMARK  8 active torsions:
REMARK  status: ('A' for Active; 'I' for Inactive)
REMARK    1  A    between atoms: C2_2  and  C3_3 
REMARK    2  A    between atoms: C3_3  and  C4_4 
REMARK    3  A    between atoms: C4_4  and  C5_5 
REMARK    4  A    between atoms: C5_5  and  N1_6 
REMARK    5  A    between atoms: C7_11  and  N3_12 
REMARK    6  A    between atoms: C9_17  and  N5_18 
REMARK    7  A    between atoms: N5_18  and  C10_20 
REMARK    8  A    between atoms: C10_20  and  C11_21 
ROOT
HETATM    1  N1  UNL     1      36.179  42.768  -4.490  1.00  0.00    -0.225 N 
ATOM      2  H1  UNL     1      36.094  43.783  -4.436  1.00  0.00     0.177 HD
HETATM    3  C6  UNL     1      35.518  42.187  -5.417  1.00  0.00     0.707 A 
HETATM    4  N2  UNL     1      34.769  42.988  -6.234  1.00  0.00    -0.022 N 
ATOM      5  H2  UNL     1      34.765  43.997  -6.077  1.00  0.00     0.203 HD
HETATM    6  C7  UNL     1      34.037  42.474  -7.240  1.00  0.00     0.706 A 
HETATM    7  N4  UNL     1      34.081  41.140  -7.399  1.00  0.00    -0.022 N 
ATOM      8  H4  UNL     1      33.538  40.717  -8.152  1.00  0.00     0.203 HD
HETATM    9  C9  UNL     1      34.822  40.333  -6.594  1.00  0.00     0.707 A 
HETATM   10  N6  UNL     1      35.547  40.871  -5.592  1.00  0.00    -0.022 N 
ATOM     11  H6  UNL     1      36.107  40.278  -4.980  1.00  0.00     0.203 HD
ENDROOT
BRANCH   1  12
HETATM   12  C5  UNL     1      37.019  42.149  -3.528  1.00  0.00     0.138 C 
BRANCH  12  13
HETATM   13  C4  UNL     1      36.269  42.103  -2.204  1.00  0.00     0.020 C 
BRANCH  13  14
HETATM   14  C3  UNL     1      37.043  42.965  -1.220  1.00  0.00     0.001 C 
BRANCH  14  15
HETATM   15  C2  UNL     1      36.718  44.424  -1.376  1.00  0.00    -0.004 C 
HETATM   16  C1  UNL     1      37.933  45.236  -1.072  1.00  0.00     0.005 C 
ENDBRANCH  14  15
ENDBRANCH  13  14
ENDBRANCH  12  13
ENDBRANCH   1  12
BRANCH   6  17
HETATM   17  N3  UNL     1      33.357  43.273  -7.971  1.00  0.00    -0.229 N 
HETATM   18  C8  UNL     1      33.374  43.342  -9.395  1.00  0.00     0.165 C 
ATOM     19  H3  UNL     1      32.741  43.926  -7.486  1.00  0.00     0.177 HD
ENDBRANCH   6  17
BRANCH   9  20
HETATM   20  N5  UNL     1      34.862  39.054  -6.748  1.00  0.00    -0.225 N 
ATOM     21  H5  UNL     1      35.566  38.487  -6.274  1.00  0.00     0.177 HD
BRANCH  20  22
HETATM   22  C10 UNL     1      33.874  38.449  -7.617  1.00  0.00     0.137 C 
BRANCH  22  23
HETATM   23  C11 UNL     1      32.751  37.834  -6.789  1.00  0.00     0.016 C 
HETATM   24  C12 UNL     1      31.588  37.410  -7.675  1.00  0.00     0.006 C 
ENDBRANCH  22  23
ENDBRANCH  20  22
ENDBRANCH   9  20
TORSDOF 8
ENDMDL
MODEL 3
REMARK VINA RESULT: -6.420665447      1.581      6.578
REMARK  8 active torsions:
REMARK  status: ('A' for Active; 'I' for Inactive)
REMARK    1  A    between atoms: C2_2  and  C3_3 
REMARK    2  A    between atoms: C3_3  and  C4_4 
REMARK    3  A    between atoms: C4_4  and  C5_5 
REMARK    4  A    between atoms: C5_5  and  N1_6 
REMARK    5  A    between atoms: C7_11  and  N3_12 
REMARK    6  A    between atoms: C9_17  and  N5_18 
REMARK    7  A    between atoms: N5_18  and  C10_20 
REMARK    8  A    between atoms: C10_20  and  C11_21 
ROOT
HETATM    1  N1  UNL     1      36.684  41.532  -4.352  1.00  0.00    -0.225 N 
ATOM      2  H1  UNL     1      37.173  40.695  -4.036  1.00  0.00     0.177 HD
HETATM    3  C6  UNL     1      35.863  41.383  -5.319  1.00  0.00     0.707 A 
HETATM    4  N2  UNL     1      35.730  40.120  -5.826  1.00  0.00    -0.022 N 
ATOM      5  H2  UNL     1      36.280  39.360  -5.423  1.00  0.00     0.203 HD
HETATM    6  C7  UNL     1      34.891  39.858  -6.845  1.00  0.00     0.706 A 
HETATM    7  N4  UNL     1      34.194  40.897  -7.336  1.00  0.00    -0.022 N 
ATOM      8  H4  UNL     1      33.548  40.734  -8.109  1.00  0.00     0.203 HD
HETATM    9  C9  UNL     1      34.316  42.158  -6.840  1.00  0.00     0.707 A 
HETATM   10  N6  UNL     1      35.163  42.396  -5.820  1.00  0.00    -0.022 N 
ATOM     11  H6  UNL     1      35.266  43.336  -5.438  1.00  0.00     0.203 HD
ENDROOT
BRANCH   1  12
HETATM   12  C5  UNL     1      36.986  42.740  -3.670  1.00  0.00     0.138 C 
BRANCH  12  13
HETATM   13  C4  UNL     1      37.609  42.383  -2.327  1.00  0.00     0.020 C 
BRANCH  13  14
HETATM   14  C3  UNL     1      36.736  43.005  -1.248  1.00  0.00     0.001 C 
BRANCH  14  15
HETATM   15  C2  UNL     1      36.619  44.494  -1.411  1.00  0.00    -0.004 C 
HETATM   16  C1  UNL     1      37.914  45.135  -1.036  1.00  0.00     0.005 C 
ENDBRANCH  14  15
ENDBRANCH  13  14
ENDBRANCH  12  13
ENDBRANCH   1  12
BRANCH   6  17
HETATM   17  N3  UNL     1      34.810  38.657  -7.276  1.00  0.00    -0.229 N 
HETATM   18  C8  UNL     1      35.899  37.821  -7.664  1.00  0.00     0.165 C 
ATOM     19  H3  UNL     1      33.874  38.258  -7.351  1.00  0.00     0.177 HD
ENDBRANCH   6  17
BRANCH   9  20
HETATM   20  N5  UNL     1      33.647  43.152  -7.313  1.00  0.00    -0.225 N 
ATOM     21  H5  UNL     1      33.590  44.038  -6.809  1.00  0.00     0.177 HD
BRANCH  20  22
HETATM   22  C10 UNL     1      32.978  42.970  -8.585  1.00  0.00     0.137 C 
BRANCH  22  23
HETATM   23  C11 UNL     1      33.895  43.391  -9.727  1.00  0.00     0.016 C 
HETATM   24  C12 UNL     1      33.145  44.236 -10.748  1.00  0.00     0.006 C 
ENDBRANCH  22  23
ENDBRANCH  20  22
ENDBRANCH   9  20
TORSDOF 8
ENDMDL
MODEL 4
REMARK VINA RESULT: -6.380259143      1.546      6.145
REMARK  8 active torsions:
REMARK  status: ('A' for Active; 'I' for Inactive)
REMARK    1  A    between atoms: C2_2  and  C3_3 
REMARK    2  A    between atoms: C3_3  and  C4_4 
REMARK    3  A    between atoms: C4_4  and  C5_5 
REMARK    4  A    between atoms: C5_5  and  N1_6 
REMARK    5  A    between atoms: C7_11  and  N3_12 
REMARK    6  A    between atoms: C9_17  and  N5_18 
REMARK    7  A    between atoms: N5_18  and  C10_20 
REMARK    8  A    between atoms: C10_20  and  C11_21 
ROOT
HETATM    1  N1  UNL     1      36.206  42.729  -4.383  1.00  0.00    -0.225 N 
ATOM      2  H1  UNL     1      36.091  43.739  -4.302  1.00  0.00     0.177 HD
HETATM    3  C6  UNL     1      35.553  42.152  -5.317  1.00  0.00     0.707 A 
HETATM    4  N2  UNL     1      34.772  42.949  -6.106  1.00  0.00    -0.022 N 
ATOM      5  H2  UNL     1      34.738  43.953  -5.924  1.00  0.00     0.203 HD
HETATM    6  C7  UNL     1      34.045  42.438  -7.118  1.00  0.00     0.706 A 
HETATM    7  N4  UNL     1      34.128  41.111  -7.311  1.00  0.00    -0.022 N 
ATOM      8  H4  UNL     1      33.590  40.690  -8.069  1.00  0.00     0.203 HD
HETATM    9  C9  UNL     1      34.902  40.307  -6.533  1.00  0.00     0.707 A 
HETATM   10  N6  UNL     1      35.620  40.842  -5.526  1.00  0.00    -0.022 N 
ATOM     11  H6  UNL     1      36.205  40.251  -4.935  1.00  0.00     0.203 HD
ENDROOT
BRANCH   1  12
HETATM   12  C5  UNL     1      37.075  42.113  -3.445  1.00  0.00     0.138 C 
BRANCH  12  13
HETATM   13  C4  UNL     1      37.586  43.188  -2.495  1.00  0.00     0.020 C 
BRANCH  13  14
HETATM   14  C3  UNL     1      36.554  43.337  -1.389  1.00  0.00     0.001 C 
BRANCH  14  15
HETATM   15  C2  UNL     1      36.321  42.043  -0.661  1.00  0.00    -0.004 C 
HETATM   16  C1  UNL     1      37.239  41.965   0.513  1.00  0.00     0.005 C 
ENDBRANCH  14  15
ENDBRANCH  13  14
ENDBRANCH  12  13
ENDBRANCH   1  12
BRANCH   6  17
HETATM   17  N3  UNL     1      33.333  43.234  -7.821  1.00  0.00    -0.229 N 
HETATM   18  C8  UNL     1      32.945  43.048  -9.180  1.00  0.00     0.165 C 
ATOM     19  H3  UNL     1      33.011  44.088  -7.363  1.00  0.00     0.177 HD
ENDBRANCH   6  17
BRANCH   9  20
HETATM   20  N5  UNL     1      34.979  39.034  -6.720  1.00  0.00    -0.225 N 
ATOM     21  H5  UNL     1      35.707  38.478  -6.270  1.00  0.00     0.177 HD
BRANCH  20  22
HETATM   22  C10 UNL     1      33.996  38.420  -7.590  1.00  0.00     0.137 C 
BRANCH  22  23
HETATM   23  C11 UNL     1      32.845  37.855  -6.766  1.00  0.00     0.016 C 
HETATM   24  C12 UNL     1      31.668  37.482  -7.656  1.00  0.00     0.006 C 
ENDBRANCH  22  23
ENDBRANCH  20  22
ENDBRANCH   9  20
TORSDOF 8
ENDMDL
MODEL 5
REMARK VINA RESULT: -6.342273242      1.739      6.890
REMARK  8 active torsions:
REMARK  status: ('A' for Active; 'I' for Inactive)
REMARK    1  A    between atoms: C2_2  and  C3_3 
REMARK    2  A    between atoms: C3_3  and  C4_4 
REMARK    3  A    between atoms: C4_4  and  C5_5 
REMARK    4  A    between atoms: C5_5  and  N1_6 
REMARK    5  A    between atoms: C7_11  and  N3_12 
REMARK    6  A    between atoms: C9_17  and  N5_18 
REMARK    7  A    between atoms: N5_18  and  C10_20 
REMARK    8  A    between atoms: C10_20  and  C11_21 
ROOT
HETATM    1  N1  UNL     1      36.620  41.623  -4.290  1.00  0.00    -0.225 N 
ATOM      2  H1  UNL     1      37.116  40.794  -3.964  1.00  0.00     0.177 HD
HETATM    3  C6  UNL     1      35.822  41.462  -5.276  1.00  0.00     0.707 A 
HETATM    4  N2  UNL     1      35.722  40.197  -5.786  1.00  0.00    -0.022 N 
ATOM      5  H2  UNL     1      36.274  39.446  -5.371  1.00  0.00     0.203 HD
HETATM    6  C7  UNL     1      34.909  39.923  -6.823  1.00  0.00     0.706 A 
HETATM    7  N4  UNL     1      34.206  40.951  -7.328  1.00  0.00    -0.022 N 
ATOM      8  H4  UNL     1      33.580  40.778  -8.116  1.00  0.00     0.203 HD
HETATM    9  C9  UNL     1      34.297  42.212  -6.830  1.00  0.00     0.707 A 
HETATM   10  N6  UNL     1      35.117  42.463  -5.791  1.00  0.00    -0.022 N 
ATOM     11  H6  UNL     1      35.196  43.404  -5.407  1.00  0.00     0.203 HD
ENDROOT
BRANCH   1  12
HETATM   12  C5  UNL     1      36.887  42.835  -3.601  1.00  0.00     0.138 C 
BRANCH  12  13
HETATM   13  C4  UNL     1      37.863  42.532  -2.472  1.00  0.00     0.020 C 
BRANCH  13  14
HETATM   14  C3  UNL     1      37.364  43.269  -1.239  1.00  0.00     0.001 C 
BRANCH  14  15
HETATM   15  C2  UNL     1      36.505  42.392  -0.372  1.00  0.00    -0.004 C 
HETATM   16  C1  UNL     1      37.301  41.925   0.801  1.00  0.00     0.005 C 
ENDBRANCH  14  15
ENDBRANCH  13  14
ENDBRANCH  12  13
ENDBRANCH   1  12
BRANCH   6  17
HETATM   17  N3  UNL     1      34.857  38.721  -7.257  1.00  0.00    -0.229 N 
HETATM   18  C8  UNL     1      35.969  37.890  -7.585  1.00  0.00     0.165 C 
ATOM     19  H3  UNL     1      33.929  38.317  -7.381  1.00  0.00     0.177 HD
ENDBRANCH   6  17
BRANCH   9  20
HETATM   20  N5  UNL     1      33.622  43.197  -7.316  1.00  0.00    -0.225 N 
ATOM     21  H5  UNL     1      33.558  44.087  -6.824  1.00  0.00     0.177 HD
BRANCH  20  22
HETATM   22  C10 UNL     1      32.957  42.994  -8.588  1.00  0.00     0.137 C 
BRANCH  22  23
HETATM   23  C11 UNL     1      33.879  43.396  -9.733  1.00  0.00     0.016 C 
HETATM   24  C12 UNL     1      33.129  44.205 -10.782  1.00  0.00     0.006 C 
ENDBRANCH  22  23
ENDBRANCH  20  22
ENDBRANCH   9  20
TORSDOF 8
ENDMDL
