MODEL 1
REMARK VINA RESULT: -5.691713571      0.000      0.000
REMARK  8 active torsions:
REMARK  status: ('A' for Active; 'I' for Inactive)
REMARK    1  A    between atoms: N1_1  and  C1_5 
REMARK    2  A    between atoms: C1_5  and  C2_6 
REMARK    3  A    between atoms: C2_6  and  C3_7 
REMARK    4  A    between atoms: C3_7  and  C4_8 
REMARK    5  A    between atoms: C4_8  and  C5_9 
REMARK    6  A    between atoms: C5_9  and  N2_10 
REMARK    7  A    between atoms: C7_15  and  C8_16 
REMARK    8  A    between atoms: C8_16  and  C9_17 
ROOT
HETATM    1  N2  UNL     1      33.906  42.522  -8.378  1.00  0.00    -0.313 N 
HETATM    2  C6  UNL     1      34.961  42.531  -7.446  1.00  0.00     0.321 A 
HETATM    3  O1  UNL     1      35.360  43.282  -6.498  1.00  0.00    -0.247 OA
HETATM    4  N3  UNL     1      35.447  41.326  -7.984  1.00  0.00    -0.321 N 
ATOM      5  H3  UNL     1      36.271  40.748  -7.816  1.00  0.00     0.166 HD
HETATM    6  C7  UNL     1      34.334  41.236  -8.851  1.00  0.00     0.193 A 
ENDROOT
BRANCH   1   7
HETATM    7  C5  UNL     1      32.858  43.479  -8.676  1.00  0.00     0.130 C 
BRANCH   7   8
HETATM    8  C4  UNL     1      32.545  43.534 -10.140  1.00  0.00     0.020 C 
BRANCH   8   9
HETATM    9  C3  UNL     1      33.724  44.168 -10.866  1.00  0.00     0.003 C 
BRANCH   9  10
HETATM   10  C2  UNL     1      33.424  44.316 -12.343  1.00  0.00     0.027 C 
BRANCH  10  11
HETATM   11  C1  UNL     1      33.700  45.771 -12.703  1.00  0.00     0.229 C 
BRANCH  11  12
HETATM   12  N1  UNL     1      32.532  46.574 -12.360  1.00  0.00    -0.079 N 
ATOM     13  H13 UNL     1      32.029  46.900 -13.184  1.00  0.00     0.274 HD
ATOM     14  H12 UNL     1      31.784  46.016 -11.947  1.00  0.00     0.274 HD
ATOM     15  H11 UNL     1      32.824  47.340 -11.754  1.00  0.00     0.274 HD
ENDBRANCH  11  12
ENDBRANCH  10  11
ENDBRANCH   9  10
ENDBRANCH   8   9
ENDBRANCH   7   8
ENDBRANCH   1   7
BRANCH   6  16
HETATM   16  C8  UNL     1      33.399  40.085  -8.668  1.00  0.00     0.052 C 
BRANCH  16  17
HETATM   17  C9  UNL     1      32.752  39.534  -9.885  1.00  0.00    -0.008 C 
HETATM   18  C10 UNL     1      31.310  40.076  -9.874  1.00  0.00     0.032 C 
HETATM   19  C11 UNL     1      30.449  39.422 -10.893  1.00  0.00     0.232 C 
HETATM   20  N4  UNL     1      31.220  39.307 -12.116  1.00  0.00    -0.075 N 
HETATM   21  C12 UNL     1      32.229  40.350 -12.158  1.00  0.00     0.232 C 
ATOM     22  H42 UNL     1      31.624  38.377 -12.229  1.00  0.00     0.277 HD
ATOM     23  H41 UNL     1      30.628  39.312 -12.947  1.00  0.00     0.277 HD
HETATM   24  C13 UNL     1      33.347  40.116 -11.170  1.00  0.00     0.032 C 
ENDBRANCH  16  17
ENDBRANCH   6  16
TORSDOF 8
ENDMDL
MODEL 2
REMARK VINA RESULT: -5.537683613      1.554      1.869
REMARK  8 active torsions:
REMARK  status: ('A' for Active; 'I' for Inactive)
REMARK    1  A    between atoms: N1_1  and  C1_5 
REMARK    2  A    between atoms: C1_5  and  C2_6 
REMARK    3  A    between atoms: C2_6  and  C3_7 
REMARK    4  A    between atoms: C3_7  and  C4_8 
REMARK    5  A    between atoms: C4_8  and  C5_9 
REMARK    6  A    between atoms: C5_9  and  N2_10 
REMARK    7  A    between atoms: C7_15  and  C8_16 
REMARK    8  A    between atoms: C8_16  and  C9_17 
ROOT
HETATM    1  N2  UNL     1      34.170  42.105  -7.919  1.00  0.00    -0.313 N 
HETATM    2  C6  UNL     1      35.113  42.393  -6.914  1.00  0.00     0.321 A 
HETATM    3  O1  UNL     1      35.460  43.408  -6.226  1.00  0.00    -0.247 OA
HETATM    4  N3  UNL     1      35.563  41.062  -6.953  1.00  0.00    -0.321 N 
ATOM      5  H3  UNL     1      36.318  40.548  -6.497  1.00  0.00     0.166 HD
HETATM    6  C7  UNL     1      34.550  40.720  -7.878  1.00  0.00     0.193 A 
ENDROOT
BRANCH   1   7
HETATM    7  C5  UNL     1      33.238  42.938  -8.651  1.00  0.00     0.130 C 
BRANCH   7   8
HETATM    8  C4  UNL     1      33.837  43.482  -9.911  1.00  0.00     0.020 C 
BRANCH   8   9
HETATM    9  C3  UNL     1      32.776  44.290 -10.646  1.00  0.00     0.003 C 
BRANCH   9  10
HETATM   10  C2  UNL     1      33.381  45.015 -11.830  1.00  0.00     0.027 C 
BRANCH  10  11
HETATM   11  C1  UNL     1      32.414  46.133 -12.201  1.00  0.00     0.229 C 
BRANCH  11  12
HETATM   12  N1  UNL     1      33.179  47.320 -12.566  1.00  0.00    -0.079 N 
ATOM     13  H13 UNL     1      33.149  48.038 -11.843  1.00  0.00     0.274 HD
ATOM     14  H12 UNL     1      34.185  47.151 -12.559  1.00  0.00     0.274 HD
ATOM     15  H11 UNL     1      32.848  47.662 -13.468  1.00  0.00     0.274 HD
ENDBRANCH  11  12
ENDBRANCH  10  11
ENDBRANCH   9  10
ENDBRANCH   8   9
ENDBRANCH   7   8
ENDBRANCH   1   7
BRANCH   6  16
HETATM   16  C8  UNL     1      33.516  39.732  -7.445  1.00  0.00     0.052 C 
BRANCH  16  17
HETATM   17  C9  UNL     1      32.939  38.851  -8.492  1.00  0.00    -0.008 C 
HETATM   18  C10 UNL     1      32.038  37.850  -7.745  1.00  0.00     0.032 C 
HETATM   19  C11 UNL     1      31.575  36.740  -8.619  1.00  0.00     0.232 C 
HETATM   20  N4  UNL     1      31.200  37.311  -9.898  1.00  0.00    -0.075 N 
HETATM   21  C12 UNL     1      30.799  38.694  -9.717  1.00  0.00     0.232 C 
ATOM     22  H42 UNL     1      31.938  37.213 -10.595  1.00  0.00     0.277 HD
ATOM     23  H41 UNL     1      30.480  36.761 -10.369  1.00  0.00     0.277 HD
HETATM   24  C13 UNL     1      31.966  39.601  -9.406  1.00  0.00     0.032 C 
ENDBRANCH  16  17
ENDBRANCH   6  16
TORSDOF 8
ENDMDL
MODEL 3
REMARK VINA RESULT: -5.530418315      2.295      5.280
REMARK  8 active torsions:
REMARK  status: ('A' for Active; 'I' for Inactive)
REMARK    1  A    between atoms: N1_1  and  C1_5 
REMARK    2  A    between atoms: C1_5  and  C2_6 
REMARK    3  A    between atoms: C2_6  and  C3_7 
REMARK    4  A    between atoms: C3_7  and  C4_8 
REMARK    5  A    between atoms: C4_8  and  C5_9 
REMARK    6  A    between atoms: C5_9  and  N2_10 
REMARK    7  A    between atoms: C7_15  and  C8_16 
REMARK    8  A    between atoms: C8_16  and  C9_17 
ROOT
HETATM    1  N2  UNL     1      34.933  41.170  -6.609  1.00  0.00    -0.313 N 
HETATM    2  C6  UNL     1      35.620  42.077  -5.780  1.00  0.00     0.321 A 
HETATM    3  O1  UNL     1      36.574  42.031  -4.936  1.00  0.00    -0.247 OA
HETATM    4  N3  UNL     1      34.810  43.124  -6.254  1.00  0.00    -0.321 N 
ATOM      5  H3  UNL     1      34.713  44.114  -6.025  1.00  0.00     0.166 HD
HETATM    6  C7  UNL     1      34.185  42.256  -7.178  1.00  0.00     0.193 A 
ENDROOT
BRANCH   1   7
HETATM    7  C5  UNL     1      35.011  39.730  -6.755  1.00  0.00     0.130 C 
BRANCH   7   8
HETATM    8  C4  UNL     1      33.656  39.097  -6.831  1.00  0.00     0.020 C 
BRANCH   8   9
HETATM    9  C3  UNL     1      33.343  38.789  -8.288  1.00  0.00     0.003 C 
BRANCH   9  10
HETATM   10  C2  UNL     1      31.903  38.344  -8.443  1.00  0.00     0.027 C 
BRANCH  10  11
HETATM   11  C1  UNL     1      31.770  37.023  -7.696  1.00  0.00     0.229 C 
BRANCH  11  12
HETATM   12  N1  UNL     1      30.360  36.655  -7.632  1.00  0.00    -0.079 N 
ATOM     13  H13 UNL     1      30.063  36.419  -6.686  1.00  0.00     0.274 HD
ATOM     14  H12 UNL     1      29.742  37.453  -7.781  1.00  0.00     0.274 HD
ATOM     15  H11 UNL     1      30.185  35.900  -8.294  1.00  0.00     0.274 HD
ENDBRANCH  11  12
ENDBRANCH  10  11
ENDBRANCH   9  10
ENDBRANCH   8   9
ENDBRANCH   7   8
ENDBRANCH   1   7
BRANCH   6  16
HETATM   16  C8  UNL     1      34.370  42.536  -8.634  1.00  0.00     0.052 C 
BRANCH  16  17
HETATM   17  C9  UNL     1      33.178  42.981  -9.397  1.00  0.00    -0.008 C 
HETATM   18  C10 UNL     1      33.703  43.968 -10.456  1.00  0.00     0.032 C 
HETATM   19  C11 UNL     1      32.608  44.697 -11.147  1.00  0.00     0.232 C 
HETATM   20  N4  UNL     1      31.555  43.743 -11.437  1.00  0.00    -0.075 N 
HETATM   21  C12 UNL     1      32.121  42.412 -11.557  1.00  0.00     0.232 C 
ATOM     22  H42 UNL     1      30.803  43.780 -10.749  1.00  0.00     0.277 HD
ATOM     23  H41 UNL     1      31.013  44.006 -12.261  1.00  0.00     0.277 HD
HETATM   24  C13 UNL     1      32.568  41.849 -10.228  1.00  0.00     0.032 C 
ENDBRANCH  16  17
ENDBRANCH   6  16
TORSDOF 8
ENDMDL
MODEL 4
REMARK VINA RESULT: -5.474875218      2.667      5.041
REMARK  8 active torsions:
REMARK  status: ('A' for Active; 'I' for Inactive)
REMARK    1  A    between atoms: N1_1  and  C1_5 
REMARK    2  A    between atoms: C1_5  and  C2_6 
REMARK    3  A    between atoms: C2_6  and  C3_7 
REMARK    4  A    between atoms: C3_7  and  C4_8 
REMARK    5  A    between atoms: C4_8  and  C5_9 
REMARK    6  A    between atoms: C5_9  and  N2_10 
REMARK    7  A    between atoms: C7_15  and  C8_16 
REMARK    8  A    between atoms: C8_16  and  C9_17 
ROOT
HETATM    1  N2  UNL     1      34.947  40.898  -6.838  1.00  0.00    -0.313 N 
HETATM    2  C6  UNL     1      35.726  41.462  -5.810  1.00  0.00     0.321 A 
HETATM    3  O1  UNL     1      36.706  41.102  -5.079  1.00  0.00    -0.247 OA
HETATM    4  N3  UNL     1      34.974  42.648  -5.889  1.00  0.00    -0.321 N 
ATOM      5  H3  UNL     1      34.955  43.519  -5.359  1.00  0.00     0.166 HD
HETATM    6  C7  UNL     1      34.255  42.146  -6.998  1.00  0.00     0.193 A 
ENDROOT
BRANCH   1   7
HETATM    7  C5  UNL     1      34.919  39.575  -7.427  1.00  0.00     0.130 C 
BRANCH   7   8
HETATM    8  C4  UNL     1      35.706  39.506  -8.699  1.00  0.00     0.020 C 
BRANCH   8   9
HETATM    9  C3  UNL     1      35.197  38.333  -9.525  1.00  0.00     0.003 C 
BRANCH   9  10
HETATM   10  C2  UNL     1      36.073  38.115 -10.741  1.00  0.00     0.027 C 
BRANCH  10  11
HETATM   11  C1  UNL     1      37.366  37.481 -10.243  1.00  0.00     0.229 C 
BRANCH  11  12
HETATM   12  N1  UNL     1      38.469  37.933 -11.081  1.00  0.00    -0.079 N 
ATOM     13  H13 UNL     1      39.377  37.644 -10.718  1.00  0.00     0.274 HD
ATOM     14  H12 UNL     1      38.509  37.438 -11.973  1.00  0.00     0.274 HD
ATOM     15  H11 UNL     1      38.402  38.943 -11.201  1.00  0.00     0.274 HD
ENDBRANCH  11  12
ENDBRANCH  10  11
ENDBRANCH   9  10
ENDBRANCH   8   9
ENDBRANCH   7   8
ENDBRANCH   1   7
BRANCH   6  16
HETATM   16  C8  UNL     1      34.404  42.858  -8.304  1.00  0.00     0.052 C 
BRANCH  16  17
HETATM   17  C9  UNL     1      33.195  42.970  -9.158  1.00  0.00    -0.008 C 
HETATM   18  C10 UNL     1      33.588  43.901 -10.319  1.00  0.00     0.032 C 
HETATM   19  C11 UNL     1      32.418  44.318 -11.136  1.00  0.00     0.232 C 
HETATM   20  N4  UNL     1      31.577  43.153 -11.331  1.00  0.00    -0.075 N 
HETATM   21  C12 UNL     1      32.385  41.949 -11.257  1.00  0.00     0.232 C 
ATOM     22  H42 UNL     1      30.793  43.131 -10.679  1.00  0.00     0.277 HD
ATOM     23  H41 UNL     1      31.044  43.204 -12.200  1.00  0.00     0.277 HD
HETATM   24  C13 UNL     1      32.852  41.649  -9.852  1.00  0.00     0.032 C 
ENDBRANCH  16  17
ENDBRANCH   6  16
TORSDOF 8
ENDMDL
MODEL 5
REMARK VINA RESULT: -5.452410860      2.067      2.734
REMARK  8 active torsions:
REMARK  status: ('A' for Active; 'I' for Inactive)
REMARK    1  A    between atoms: N1_1  and  C1_5 
REMARK    2  A    between atoms: C1_5  and  C2_6 
REMARK    3  A    between atoms: C2_6  and  C3_7 
REMARK    4  A    between atoms: C3_7  and  C4_8 
REMARK    5  A    between atoms: C4_8  and  C5_9 
REMARK    6  A    between atoms: C5_9  and  N2_10 
REMARK    7  A    between atoms: C7_15  and  C8_16 
REMARK    8  A    between atoms: C8_16  and  C9_17 
ROOT
HETATM    1  N2  UNL     1      35.328  41.685  -7.037  1.00  0.00    -0.313 N 
HETATM    2  C6  UNL     1      35.999  41.966  -5.832  1.00  0.00     0.321 A 
HETATM    3  O1  UNL     1      36.366  43.003  -5.190  1.00  0.00    -0.247 OA
HETATM    4  N3  UNL     1      36.124  40.588  -5.580  1.00  0.00    -0.321 N 
ATOM      5  H3  UNL     1      36.585  40.031  -4.860  1.00  0.00     0.166 HD
HETATM    6  C7  UNL     1      35.354  40.283  -6.726  1.00  0.00     0.193 A 
ENDROOT
BRANCH   1   7
HETATM    7  C5  UNL     1      34.849  42.535  -8.110  1.00  0.00     0.130 C 
BRANCH   7   8
HETATM    8  C4  UNL     1      33.452  43.014  -7.868  1.00  0.00     0.020 C 
BRANCH   8   9
HETATM    9  C3  UNL     1      32.808  43.333  -9.210  1.00  0.00     0.003 C 
BRANCH   9  10
HETATM   10  C2  UNL     1      33.866  43.577 -10.266  1.00  0.00     0.027 C 
BRANCH  10  11
HETATM   11  C1  UNL     1      33.277  44.577 -11.254  1.00  0.00     0.229 C 
BRANCH  11  12
HETATM   12  N1  UNL     1      31.848  44.713 -10.996  1.00  0.00    -0.079 N 
ATOM     13  H13 UNL     1      31.649  44.925 -10.019  1.00  0.00     0.274 HD
ATOM     14  H12 UNL     1      31.457  45.561 -11.409  1.00  0.00     0.274 HD
ATOM     15  H11 UNL     1      31.372  43.870 -11.316  1.00  0.00     0.274 HD
ENDBRANCH  11  12
ENDBRANCH  10  11
ENDBRANCH   9  10
ENDBRANCH   8   9
ENDBRANCH   7   8
ENDBRANCH   1   7
BRANCH   6  16
HETATM   16  C8  UNL     1      34.043  39.596  -6.521  1.00  0.00     0.052 C 
BRANCH  16  17
HETATM   17  C9  UNL     1      33.584  38.675  -7.592  1.00  0.00    -0.008 C 
HETATM   18  C10 UNL     1      32.483  37.808  -6.954  1.00  0.00     0.032 C 
HETATM   19  C11 UNL     1      32.088  36.665  -7.819  1.00  0.00     0.232 C 
HETATM   20  N4  UNL     1      31.993  37.154  -9.181  1.00  0.00    -0.075 N 
HETATM   21  C12 UNL     1      31.687  38.573  -9.171  1.00  0.00     0.232 C 
ATOM     22  H42 UNL     1      32.831  36.945  -9.723  1.00  0.00     0.277 HD
ATOM     23  H41 UNL     1      31.322  36.620  -9.736  1.00  0.00     0.277 HD
HETATM   24  C13 UNL     1      32.855  39.415  -8.717  1.00  0.00     0.032 C 
ENDBRANCH  16  17
ENDBRANCH   6  16
TORSDOF 8
ENDMDL
