MODEL 1
REMARK VINA RESULT: -6.870170338      0.000      0.000
REMARK  8 active torsions:
REMARK  status: ('A' for Active; 'I' for Inactive)
REMARK    1  A    between atoms: C2_2  and  C3_3 
REMARK    2  A    between atoms: C3_3  and  C4_4 
REMARK    3  A    between atoms: C4_4  and  N1_5 
REMARK    4  A    between atoms: C6_10  and  N3_11 
REMARK    5  A    between atoms: N3_11  and  C7_13 
REMARK    6  A    between atoms: C7_13  and  C8_14 
REMARK    7  A    between atoms: C8_14  and  C9_15 
REMARK    8  A    between atoms: C9_15  and  N4_16 
ROOT
HETATM    1  N1  UNL     1      33.537  43.086  -7.807  1.00  0.00    -0.355 N 
ATOM      2  H1  UNL     1      33.467  43.959  -7.283  1.00  0.00     0.166 HD
HETATM    3  C5  UNL     1      34.210  42.244  -7.185  1.00  0.00     0.128 A 
HETATM    4  N2  UNL     1      34.708  42.638  -5.964  1.00  0.00    -0.176 N 
ATOM      5  H2  UNL     1      34.501  43.584  -5.645  1.00  0.00     0.186 HD
HETATM    6  C6  UNL     1      35.441  41.861  -5.178  1.00  0.00     0.679 A 
HETATM    7  N5  UNL     1      35.731  40.622  -5.566  1.00  0.00    -0.195 N 
ATOM      8  H5  UNL     1      36.295  40.023  -4.964  1.00  0.00     0.184 HD
HETATM    9  C10 UNL     1      35.292  40.158  -6.731  1.00  0.00     0.032 A 
HETATM   10  C11 UNL     1      35.602  38.761  -7.196  1.00  0.00     0.069 C 
HETATM   11  C12 UNL     1      34.532  40.958  -7.548  1.00  0.00     0.005 A 
HETATM   12  C13 UNL     1      34.049  40.417  -8.856  1.00  0.00     0.054 C 
ENDROOT
BRANCH   6  13
HETATM   13  N3  UNL     1      35.857  42.331  -4.053  1.00  0.00    -0.226 N 
ATOM     14  H3  UNL     1      35.161  42.471  -3.320  1.00  0.00     0.177 HD
BRANCH  13  15
HETATM   15  C7  UNL     1      37.199  42.672  -3.742  1.00  0.00     0.139 C 
BRANCH  15  16
HETATM   16  C8  UNL     1      37.512  42.683  -2.268  1.00  0.00     0.047 C 
BRANCH  16  17
HETATM   17  C9  UNL     1      37.596  44.161  -1.859  1.00  0.00     0.231 C 
BRANCH  17  18
HETATM   18  N4  UNL     1      36.273  44.657  -1.519  1.00  0.00    -0.079 N 
ATOM     19  H43 UNL     1      35.534  44.099  -1.947  1.00  0.00     0.274 HD
ATOM     20  H42 UNL     1      36.041  44.486  -0.541  1.00  0.00     0.274 HD
ATOM     21  H41 UNL     1      36.198  45.644  -1.764  1.00  0.00     0.274 HD
ENDBRANCH  17  18
ENDBRANCH  16  17
ENDBRANCH  15  16
ENDBRANCH  13  15
ENDBRANCH   6  13
BRANCH   1  22
HETATM   22  C4  UNL     1      32.849  43.172  -9.026  1.00  0.00     0.062 C 
BRANCH  22  23
HETATM   23  C3  UNL     1      33.828  43.712 -10.070  1.00  0.00     0.044 C 
BRANCH  23  24
HETATM   24  C2  UNL     1      33.231  43.637 -11.456  1.00  0.00     0.001 C 
HETATM   25  C1  UNL     1      33.191  42.251 -12.011  1.00  0.00     0.005 C 
ENDBRANCH  23  24
ENDBRANCH  22  23
ENDBRANCH   1  22
TORSDOF 8
ENDMDL
MODEL 2
REMARK VINA RESULT: -6.725982539      1.053      1.088
REMARK  8 active torsions:
REMARK  status: ('A' for Active; 'I' for Inactive)
REMARK    1  A    between atoms: C2_2  and  C3_3 
REMARK    2  A    between atoms: C3_3  and  C4_4 
REMARK    3  A    between atoms: C4_4  and  N1_5 
REMARK    4  A    between atoms: C6_10  and  N3_11 
REMARK    5  A    between atoms: N3_11  and  C7_13 
REMARK    6  A    between atoms: C7_13  and  C8_14 
REMARK    7  A    between atoms: C8_14  and  C9_15 
REMARK    8  A    between atoms: C9_15  and  N4_16 
ROOT
HETATM    1  N1  UNL     1      33.599  43.114  -7.779  1.00  0.00    -0.355 N 
ATOM      2  H1  UNL     1      33.559  44.038  -7.348  1.00  0.00     0.166 HD
HETATM    3  C5  UNL     1      34.359  42.358  -7.147  1.00  0.00     0.128 A 
HETATM    4  N2  UNL     1      34.973  42.893  -6.038  1.00  0.00    -0.176 N 
ATOM      5  H2  UNL     1      34.773  43.865  -5.802  1.00  0.00     0.186 HD
HETATM    6  C6  UNL     1      35.809  42.221  -5.258  1.00  0.00     0.679 A 
HETATM    7  N5  UNL     1      36.092  40.952  -5.539  1.00  0.00    -0.195 N 
ATOM      8  H5  UNL     1      36.735  40.434  -4.941  1.00  0.00     0.184 HD
HETATM    9  C10 UNL     1      35.545  40.354  -6.592  1.00  0.00     0.032 A 
HETATM   10  C11 UNL     1      35.845  38.920  -6.934  1.00  0.00     0.069 C 
HETATM   11  C12 UNL     1      34.678  41.046  -7.402  1.00  0.00     0.005 A 
HETATM   12  C13 UNL     1      34.074  40.355  -8.583  1.00  0.00     0.054 C 
ENDROOT
BRANCH   6  13
HETATM   13  N3  UNL     1      36.329  42.820  -4.242  1.00  0.00    -0.226 N 
ATOM     14  H3  UNL     1      35.808  43.602  -3.846  1.00  0.00     0.177 HD
BRANCH  13  15
HETATM   15  C7  UNL     1      37.564  42.488  -3.627  1.00  0.00     0.139 C 
BRANCH  15  16
HETATM   16  C8  UNL     1      37.427  41.815  -2.286  1.00  0.00     0.047 C 
BRANCH  16  17
HETATM   17  C9  UNL     1      36.224  42.474  -1.596  1.00  0.00     0.231 C 
BRANCH  17  18
HETATM   18  N4  UNL     1      35.114  41.539  -1.534  1.00  0.00    -0.079 N 
ATOM     19  H43 UNL     1      34.660  41.544  -0.621  1.00  0.00     0.274 HD
ATOM     20  H42 UNL     1      34.321  41.848  -2.097  1.00  0.00     0.274 HD
ATOM     21  H41 UNL     1      35.430  40.606  -1.800  1.00  0.00     0.274 HD
ENDBRANCH  17  18
ENDBRANCH  16  17
ENDBRANCH  15  16
ENDBRANCH  13  15
ENDBRANCH   6  13
BRANCH   1  22
HETATM   22  C4  UNL     1      32.782  43.052  -8.916  1.00  0.00     0.062 C 
BRANCH  22  23
HETATM   23  C3  UNL     1      33.547  43.705 -10.068  1.00  0.00     0.044 C 
BRANCH  23  24
HETATM   24  C2  UNL     1      33.520  42.828 -11.299  1.00  0.00     0.001 C 
HETATM   25  C1  UNL     1      33.203  43.574 -12.553  1.00  0.00     0.005 C 
ENDBRANCH  23  24
ENDBRANCH  22  23
ENDBRANCH   1  22
TORSDOF 8
ENDMDL
MODEL 3
REMARK VINA RESULT: -6.609617657      1.390      1.708
REMARK  8 active torsions:
REMARK  status: ('A' for Active; 'I' for Inactive)
REMARK    1  A    between atoms: C2_2  and  C3_3 
REMARK    2  A    between atoms: C3_3  and  C4_4 
REMARK    3  A    between atoms: C4_4  and  N1_5 
REMARK    4  A    between atoms: C6_10  and  N3_11 
REMARK    5  A    between atoms: N3_11  and  C7_13 
REMARK    6  A    between atoms: C7_13  and  C8_14 
REMARK    7  A    between atoms: C8_14  and  C9_15 
REMARK    8  A    between atoms: C9_15  and  N4_16 
ROOT
HETATM    1  N1  UNL     1      34.198  43.031  -9.217  1.00  0.00    -0.355 N 
ATOM      2  H1  UNL     1      34.590  43.957  -9.043  1.00  0.00     0.166 HD
HETATM    3  C5  UNL     1      34.354  42.286  -8.232  1.00  0.00     0.128 A 
HETATM    4  N2  UNL     1      34.999  42.833  -7.147  1.00  0.00    -0.176 N 
ATOM      5  H2  UNL     1      35.309  43.803  -7.212  1.00  0.00     0.186 HD
HETATM    6  C6  UNL     1      35.243  42.175  -6.022  1.00  0.00     0.679 A 
HETATM    7  N5  UNL     1      34.853  40.908  -5.906  1.00  0.00    -0.195 N 
ATOM      8  H5  UNL     1      35.040  40.400  -5.042  1.00  0.00     0.184 HD
HETATM    9  C10 UNL     1      34.223  40.299  -6.905  1.00  0.00     0.032 A 
HETATM   10  C11 UNL     1      33.770  38.869  -6.802  1.00  0.00     0.069 C 
HETATM   11  C12 UNL     1      33.969  40.977  -8.071  1.00  0.00     0.005 A 
HETATM   12  C13 UNL     1      33.259  40.274  -9.185  1.00  0.00     0.054 C 
ENDROOT
BRANCH   6  13
HETATM   13  N3  UNL     1      35.856  42.783  -5.065  1.00  0.00    -0.226 N 
ATOM     14  H3  UNL     1      35.561  43.738  -4.857  1.00  0.00     0.177 HD
BRANCH  13  15
HETATM   15  C7  UNL     1      36.904  42.243  -4.277  1.00  0.00     0.139 C 
BRANCH  15  16
HETATM   16  C8  UNL     1      37.087  42.917  -2.941  1.00  0.00     0.047 C 
BRANCH  16  17
HETATM   17  C9  UNL     1      36.543  41.940  -1.889  1.00  0.00     0.231 C 
BRANCH  17  18
HETATM   18  N4  UNL     1      35.091  41.947  -1.910  1.00  0.00    -0.079 N 
ATOM     19  H43 UNL     1      34.697  42.298  -1.037  1.00  0.00     0.274 HD
ATOM     20  H42 UNL     1      34.721  42.662  -2.537  1.00  0.00     0.274 HD
ATOM     21  H41 UNL     1      34.741  41.017  -2.141  1.00  0.00     0.274 HD
ENDBRANCH  17  18
ENDBRANCH  16  17
ENDBRANCH  15  16
ENDBRANCH  13  15
ENDBRANCH   6  13
BRANCH   1  22
HETATM   22  C4  UNL     1      33.635  42.955 -10.499  1.00  0.00     0.062 C 
BRANCH  22  23
HETATM   23  C3  UNL     1      33.120  44.349 -10.859  1.00  0.00     0.044 C 
BRANCH  23  24
HETATM   24  C2  UNL     1      33.597  44.760 -12.233  1.00  0.00     0.001 C 
HETATM   25  C1  UNL     1      33.293  46.184 -12.564  1.00  0.00     0.005 C 
ENDBRANCH  23  24
ENDBRANCH  22  23
ENDBRANCH   1  22
TORSDOF 8
ENDMDL
MODEL 4
REMARK VINA RESULT: -6.566763819      1.168      1.659
REMARK  8 active torsions:
REMARK  status: ('A' for Active; 'I' for Inactive)
REMARK    1  A    between atoms: C2_2  and  C3_3 
REMARK    2  A    between atoms: C3_3  and  C4_4 
REMARK    3  A    between atoms: C4_4  and  N1_5 
REMARK    4  A    between atoms: C6_10  and  N3_11 
REMARK    5  A    between atoms: N3_11  and  C7_13 
REMARK    6  A    between atoms: C7_13  and  C8_14 
REMARK    7  A    between atoms: C8_14  and  C9_15 
REMARK    8  A    between atoms: C9_15  and  N4_16 
ROOT
HETATM    1  N1  UNL     1      33.587  43.092  -7.726  1.00  0.00    -0.355 N 
ATOM      2  H1  UNL     1      33.542  44.006  -7.276  1.00  0.00     0.166 HD
HETATM    3  C5  UNL     1      34.345  42.323  -7.106  1.00  0.00     0.128 A 
HETATM    4  N2  UNL     1      34.951  42.836  -5.982  1.00  0.00    -0.176 N 
ATOM      5  H2  UNL     1      34.748  43.802  -5.727  1.00  0.00     0.186 HD
HETATM    6  C6  UNL     1      35.783  42.149  -5.212  1.00  0.00     0.679 A 
HETATM    7  N5  UNL     1      36.070  40.887  -5.518  1.00  0.00    -0.195 N 
ATOM      8  H5  UNL     1      36.710  40.357  -4.928  1.00  0.00     0.184 HD
HETATM    9  C10 UNL     1      35.530  40.310  -6.587  1.00  0.00     0.032 A 
HETATM   10  C11 UNL     1      35.835  38.885  -6.958  1.00  0.00     0.069 C 
HETATM   11  C12 UNL     1      34.667  41.018  -7.387  1.00  0.00     0.005 A 
HETATM   12  C13 UNL     1      34.071  40.351  -8.586  1.00  0.00     0.054 C 
ENDROOT
BRANCH   6  13
HETATM   13  N3  UNL     1      36.296  42.727  -4.180  1.00  0.00    -0.226 N 
ATOM     14  H3  UNL     1      36.479  43.728  -4.251  1.00  0.00     0.177 HD
BRANCH  13  15
HETATM   15  C7  UNL     1      36.628  42.093  -2.955  1.00  0.00     0.139 C 
BRANCH  15  16
HETATM   16  C8  UNL     1      38.102  42.083  -2.641  1.00  0.00     0.047 C 
BRANCH  16  17
HETATM   17  C9  UNL     1      38.642  40.744  -3.164  1.00  0.00     0.231 C 
BRANCH  17  18
HETATM   18  N4  UNL     1      37.854  39.649  -2.627  1.00  0.00    -0.079 N 
ATOM     19  H43 UNL     1      37.111  39.978  -2.010  1.00  0.00     0.274 HD
ATOM     20  H42 UNL     1      37.271  39.211  -3.341  1.00  0.00     0.274 HD
ATOM     21  H41 UNL     1      38.464  38.974  -2.165  1.00  0.00     0.274 HD
ENDBRANCH  17  18
ENDBRANCH  16  17
ENDBRANCH  15  16
ENDBRANCH  13  15
ENDBRANCH   6  13
BRANCH   1  22
HETATM   22  C4  UNL     1      32.777  43.053  -8.870  1.00  0.00     0.062 C 
BRANCH  22  23
HETATM   23  C3  UNL     1      33.593  43.622 -10.032  1.00  0.00     0.044 C 
BRANCH  23  24
HETATM   24  C2  UNL     1      33.460  42.752 -11.260  1.00  0.00     0.001 C 
HETATM   25  C1  UNL     1      33.223  43.527 -12.514  1.00  0.00     0.005 C 
ENDBRANCH  23  24
ENDBRANCH  22  23
ENDBRANCH   1  22
TORSDOF 8
ENDMDL
MODEL 5
REMARK VINA RESULT: -6.507451332      1.741      6.858
REMARK  8 active torsions:
REMARK  status: ('A' for Active; 'I' for Inactive)
REMARK    1  A    between atoms: C2_2  and  C3_3 
REMARK    2  A    between atoms: C3_3  and  C4_4 
REMARK    3  A    between atoms: C4_4  and  N1_5 
REMARK    4  A    between atoms: C6_10  and  N3_11 
REMARK    5  A    between atoms: N3_11  and  C7_13 
REMARK    6  A    between atoms: C7_13  and  C8_14 
REMARK    7  A    between atoms: C8_14  and  C9_15 
REMARK    8  A    between atoms: C9_15  and  N4_16 
ROOT
HETATM    1  N1  UNL     1      36.713  43.200  -3.343  1.00  0.00    -0.355 N 
ATOM      2  H1  UNL     1      35.979  43.878  -3.551  1.00  0.00     0.166 HD
HETATM    3  C5  UNL     1      36.621  42.201  -4.080  1.00  0.00     0.128 A 
HETATM    4  N2  UNL     1      35.590  42.204  -4.991  1.00  0.00    -0.176 N 
ATOM      5  H2  UNL     1      34.969  43.013  -5.009  1.00  0.00     0.186 HD
HETATM    6  C6  UNL     1      35.355  41.219  -5.846  1.00  0.00     0.679 A 
HETATM    7  N5  UNL     1      36.145  40.149  -5.848  1.00  0.00    -0.195 N 
ATOM      8  H5  UNL     1      35.966  39.389  -6.504  1.00  0.00     0.184 HD
HETATM    9  C10 UNL     1      37.166  40.060  -5.001  1.00  0.00     0.032 A 
HETATM   10  C11 UNL     1      38.077  38.864  -4.980  1.00  0.00     0.069 C 
HETATM   11  C12 UNL     1      37.413  41.078  -4.114  1.00  0.00     0.005 A 
HETATM   12  C13 UNL     1      38.566  40.959  -3.169  1.00  0.00     0.054 C 
ENDROOT
BRANCH   6  13
HETATM   13  N3  UNL     1      34.359  41.324  -6.658  1.00  0.00    -0.226 N 
ATOM     14  H3  UNL     1      33.699  40.547  -6.689  1.00  0.00     0.177 HD
BRANCH  13  15
HETATM   15  C7  UNL     1      34.101  42.426  -7.513  1.00  0.00     0.139 C 
BRANCH  15  16
HETATM   16  C8  UNL     1      34.061  42.079  -8.979  1.00  0.00     0.047 C 
BRANCH  16  17
HETATM   17  C9  UNL     1      33.741  43.385  -9.720  1.00  0.00     0.231 C 
BRANCH  17  18
HETATM   18  N4  UNL     1      32.440  43.884  -9.306  1.00  0.00    -0.079 N 
ATOM     19  H43 UNL     1      32.346  44.887  -9.466  1.00  0.00     0.274 HD
ATOM     20  H42 UNL     1      31.694  43.564  -9.924  1.00  0.00     0.274 HD
ATOM     21  H41 UNL     1      32.265  43.633  -8.334  1.00  0.00     0.274 HD
ENDBRANCH  17  18
ENDBRANCH  16  17
ENDBRANCH  15  16
ENDBRANCH  13  15
ENDBRANCH   6  13
BRANCH   1  22
HETATM   22  C4  UNL     1      37.543  43.655  -2.309  1.00  0.00     0.062 C 
BRANCH  22  23
HETATM   23  C3  UNL     1      36.680  43.795  -1.054  1.00  0.00     0.044 C 
BRANCH  23  24
HETATM   24  C2  UNL     1      36.327  42.438  -0.489  1.00  0.00     0.001 C 
HETATM   25  C1  UNL     1      37.292  41.957   0.544  1.00  0.00     0.005 C 
ENDBRANCH  23  24
ENDBRANCH  22  23
ENDBRANCH   1  22
TORSDOF 8
ENDMDL
