MODEL 1
REMARK VINA RESULT: -4.554837390      0.000      0.000
REMARK  1 active torsions:
REMARK  status: ('A' for Active; 'I' for Inactive)
REMARK    1  A    between atoms: O1_1  and  C1_3 
ROOT
HETATM    1  C1  UNL     1      34.741  18.343  59.257  1.00  0.00     0.182 A 
HETATM    2  C2  UNL     1      35.237  19.555  59.661  1.00  0.00     0.066 A 
HETATM    3  C3  UNL     1      34.197  20.204  60.278  1.00  0.00     0.029 A 
HETATM    4  C4  UNL     1      33.087  19.366  60.235  1.00  0.00     0.145 A 
HETATM    5  O2  UNL     1      33.475  18.274  59.615  1.00  0.00    -0.300 OA
ENDROOT
BRANCH   1   6
HETATM    6  O1  UNL     1      35.486  17.372  58.583  1.00  0.00    -0.341 OA
ATOM      7  H1  UNL     1      35.171  16.498  58.385  1.00  0.00     0.220 HD
ENDBRANCH   1   6
TORSDOF 1
ENDMDL
MODEL 2
REMARK VINA RESULT: -4.338118550      7.701      8.158
REMARK  1 active torsions:
REMARK  status: ('A' for Active; 'I' for Inactive)
REMARK    1  A    between atoms: O1_1  and  C1_3 
ROOT
HETATM    1  C1  UNL     1      36.398  25.232  54.901  1.00  0.00     0.182 A 
HETATM    2  C2  UNL     1      37.599  24.943  54.310  1.00  0.00     0.066 A 
HETATM    3  C3  UNL     1      38.245  24.085  55.164  1.00  0.00     0.029 A 
HETATM    4  C4  UNL     1      37.415  23.872  56.261  1.00  0.00     0.145 A 
HETATM    5  O2  UNL     1      36.332  24.581  56.045  1.00  0.00    -0.300 OA
ENDROOT
BRANCH   1   6
HETATM    6  O1  UNL     1      35.432  26.079  54.351  1.00  0.00    -0.341 OA
ATOM      7  H1  UNL     1      34.938  26.722  54.846  1.00  0.00     0.220 HD
ENDBRANCH   1   6
TORSDOF 1
ENDMDL
MODEL 3
REMARK VINA RESULT: -4.312622001      1.413      2.428
REMARK  1 active torsions:
REMARK  status: ('A' for Active; 'I' for Inactive)
REMARK    1  A    between atoms: O1_1  and  C1_3 
ROOT
HETATM    1  C1  UNL     1      33.939  20.004  60.003  1.00  0.00     0.182 A 
HETATM    2  C2  UNL     1      35.217  19.634  59.677  1.00  0.00     0.066 A 
HETATM    3  C3  UNL     1      35.177  18.278  59.467  1.00  0.00     0.029 A 
HETATM    4  C4  UNL     1      33.867  17.854  59.673  1.00  0.00     0.145 A 
HETATM    5  O2  UNL     1      33.179  18.928  59.989  1.00  0.00    -0.300 OA
ENDROOT
BRANCH   1   6
HETATM    6  O1  UNL     1      33.548  21.314  60.295  1.00  0.00    -0.341 OA
ATOM      7  H1  UNL     1      33.437  21.657  61.174  1.00  0.00     0.220 HD
ENDBRANCH   1   6
TORSDOF 1
ENDMDL
MODEL 4
REMARK VINA RESULT: -4.262601319      5.701      6.555
REMARK  1 active torsions:
REMARK  status: ('A' for Active; 'I' for Inactive)
REMARK    1  A    between atoms: O1_1  and  C1_3 
ROOT
HETATM    1  C1  UNL     1      37.918  22.211  57.119  1.00  0.00     0.182 A 
HETATM    2  C2  UNL     1      37.829  23.533  56.769  1.00  0.00     0.066 A 
HETATM    3  C3  UNL     1      38.809  23.743  55.831  1.00  0.00     0.029 A 
HETATM    4  C4  UNL     1      39.473  22.536  55.632  1.00  0.00     0.145 A 
HETATM    5  O2  UNL     1      38.897  21.664  56.427  1.00  0.00    -0.300 OA
ENDROOT
BRANCH   1   6
HETATM    6  O1  UNL     1      37.090  21.587  58.056  1.00  0.00    -0.341 OA
ATOM      7  H1  UNL     1      36.146  21.683  58.085  1.00  0.00     0.220 HD
ENDBRANCH   1   6
TORSDOF 1
ENDMDL
MODEL 5
REMARK VINA RESULT: -4.240493972      1.521      1.843
REMARK  1 active torsions:
REMARK  status: ('A' for Active; 'I' for Inactive)
REMARK    1  A    between atoms: O1_1  and  C1_3 
ROOT
HETATM    1  C1  UNL     1      35.093  19.763  59.402  1.00  0.00     0.182 A 
HETATM    2  C2  UNL     1      34.111  20.298  60.194  1.00  0.00     0.066 A 
HETATM    3  C3  UNL     1      33.205  19.288  60.407  1.00  0.00     0.029 A 
HETATM    4  C4  UNL     1      33.662  18.158  59.736  1.00  0.00     0.145 A 
HETATM    5  O2  UNL     1      34.789  18.505  59.158  1.00  0.00    -0.300 OA
ENDROOT
BRANCH   1   6
HETATM    6  O1  UNL     1      36.213  20.468  58.952  1.00  0.00    -0.341 OA
ATOM      7  H1  UNL     1      37.095  20.116  58.935  1.00  0.00     0.220 HD
ENDBRANCH   1   6
TORSDOF 1
ENDMDL
