MODEL 1
REMARK VINA RESULT: -3.703630180      0.000      0.000
REMARK  0 active torsions:
REMARK  status: ('A' for Active; 'I' for Inactive)
ROOT
HETATM    1  O1  UNL     1      34.054  17.569  59.132  1.00  0.00    -0.260 OA
HETATM    2  C1  UNL     1      33.905  18.703  59.629  1.00  0.00     0.289 A 
HETATM    3  C2  UNL     1      34.759  19.845  59.943  1.00  0.00     0.107 A 
HETATM    4  C3  UNL     1      33.722  20.526  60.419  1.00  0.00     0.152 A 
HETATM    5  O2  UNL     1      32.871  19.474  60.143  1.00  0.00    -0.288 OA
ENDROOT
TORSDOF 0
ENDMDL
MODEL 2
REMARK VINA RESULT: -3.630477729      1.122      1.253
REMARK  0 active torsions:
REMARK  status: ('A' for Active; 'I' for Inactive)
ROOT
HETATM    1  O1  UNL     1      34.245  17.817  58.818  1.00  0.00    -0.260 OA
HETATM    2  C1  UNL     1      34.090  18.896  59.422  1.00  0.00     0.289 A 
HETATM    3  C2  UNL     1      33.013  19.560  60.150  1.00  0.00     0.107 A 
HETATM    4  C3  UNL     1      33.788  20.608  60.401  1.00  0.00     0.152 A 
HETATM    5  O2  UNL     1      34.840  20.025  59.723  1.00  0.00    -0.288 OA
ENDROOT
TORSDOF 0
ENDMDL
MODEL 3
REMARK VINA RESULT: -3.588230900      1.661      1.888
REMARK  0 active torsions:
REMARK  status: ('A' for Active; 'I' for Inactive)
ROOT
HETATM    1  O1  UNL     1      36.130  19.986  59.455  1.00  0.00    -0.260 OA
HETATM    2  C1  UNL     1      34.919  19.784  59.670  1.00  0.00     0.289 A 
HETATM    3  C2  UNL     1      33.860  20.413  60.454  1.00  0.00     0.107 A 
HETATM    4  C3  UNL     1      32.980  19.506  60.047  1.00  0.00     0.152 A 
HETATM    5  O2  UNL     1      33.944  18.872  59.289  1.00  0.00    -0.288 OA
ENDROOT
TORSDOF 0
ENDMDL
MODEL 4
REMARK VINA RESULT: -3.569277744      6.132      6.630
REMARK  0 active torsions:
REMARK  status: ('A' for Active; 'I' for Inactive)
ROOT
HETATM    1  O1  UNL     1      37.206  21.959  58.021  1.00  0.00    -0.260 OA
HETATM    2  C1  UNL     1      38.028  22.239  57.126  1.00  0.00     0.289 A 
HETATM    3  C2  UNL     1      38.471  23.445  56.432  1.00  0.00     0.107 A 
HETATM    4  C3  UNL     1      39.327  22.743  55.698  1.00  0.00     0.152 A 
HETATM    5  O2  UNL     1      38.944  21.573  56.323  1.00  0.00    -0.288 OA
ENDROOT
TORSDOF 0
ENDMDL
MODEL 5
REMARK VINA RESULT: -3.557649759      7.610      7.987
REMARK  0 active torsions:
REMARK  status: ('A' for Active; 'I' for Inactive)
ROOT
HETATM    1  O1  UNL     1      36.128  25.782  53.975  1.00  0.00    -0.260 OA
HETATM    2  C1  UNL     1      36.630  25.027  54.831  1.00  0.00     0.289 A 
HETATM    3  C2  UNL     1      37.966  24.541  55.164  1.00  0.00     0.107 A 
HETATM    4  C3  UNL     1      37.486  23.829  56.177  1.00  0.00     0.152 A 
HETATM    5  O2  UNL     1      36.202  24.258  55.904  1.00  0.00    -0.288 OA
ENDROOT
TORSDOF 0
ENDMDL
