MODEL 1
REMARK VINA RESULT: -3.900152680      0.000      0.000
REMARK  0 active torsions:
REMARK  status: ('A' for Active; 'I' for Inactive)
ROOT
HETATM    1  N1  UNL     1      37.973  23.795  57.359  1.00  0.00    -0.197 NA
HETATM    2  C1  UNL     1      37.291  24.039  56.462  1.00  0.00     0.064 C 
HETATM    3  C2  UNL     1      36.409  24.337  55.334  1.00  0.00     0.093 A 
HETATM    4  C3  UNL     1      36.971  25.019  54.121  1.00  0.00     0.020 A 
HETATM    5  C4  UNL     1      36.059  25.762  55.027  1.00  0.00     0.020 A 
ENDROOT
TORSDOF 0
ENDMDL
MODEL 2
REMARK VINA RESULT: -3.891945346      2.534      2.923
REMARK  0 active torsions:
REMARK  status: ('A' for Active; 'I' for Inactive)
ROOT
HETATM    1  N1  UNL     1      38.363  23.520  57.721  1.00  0.00    -0.197 NA
HETATM    2  C1  UNL     1      38.749  23.343  56.649  1.00  0.00     0.064 C 
HETATM    3  C2  UNL     1      39.222  23.106  55.286  1.00  0.00     0.093 A 
HETATM    4  C3  UNL     1      40.613  23.521  54.906  1.00  0.00     0.020 A 
HETATM    5  C4  UNL     1      39.450  24.271  54.371  1.00  0.00     0.020 A 
ENDROOT
TORSDOF 0
ENDMDL
MODEL 3
REMARK VINA RESULT: -3.842151325      7.277      7.934
REMARK  0 active torsions:
REMARK  status: ('A' for Active; 'I' for Inactive)
ROOT
HETATM    1  N1  UNL     1      33.717  20.618  60.613  1.00  0.00    -0.197 NA
HETATM    2  C1  UNL     1      33.924  19.726  59.913  1.00  0.00     0.064 C 
HETATM    3  C2  UNL     1      34.189  18.608  59.007  1.00  0.00     0.093 A 
HETATM    4  C3  UNL     1      33.941  17.205  59.478  1.00  0.00     0.020 A 
HETATM    5  C4  UNL     1      35.333  17.684  59.291  1.00  0.00     0.020 A 
ENDROOT
TORSDOF 0
ENDMDL
MODEL 4
REMARK VINA RESULT: -3.839068183      2.947      3.547
REMARK  0 active torsions:
REMARK  status: ('A' for Active; 'I' for Inactive)
ROOT
HETATM    1  N1  UNL     1      37.002  25.162  53.599  1.00  0.00    -0.197 NA
HETATM    2  C1  UNL     1      37.980  24.875  54.139  1.00  0.00     0.064 C 
HETATM    3  C2  UNL     1      39.214  24.523  54.840  1.00  0.00     0.093 A 
HETATM    4  C3  UNL     1      40.255  23.706  54.132  1.00  0.00     0.020 A 
HETATM    5  C4  UNL     1      39.462  23.097  55.228  1.00  0.00     0.020 A 
ENDROOT
TORSDOF 0
ENDMDL
MODEL 5
REMARK VINA RESULT: -3.819749304      2.662      3.152
REMARK  0 active torsions:
REMARK  status: ('A' for Active; 'I' for Inactive)
ROOT
HETATM    1  N1  UNL     1      38.942  21.610  56.532  1.00  0.00    -0.197 NA
HETATM    2  C1  UNL     1      39.291  22.599  56.051  1.00  0.00     0.064 C 
HETATM    3  C2  UNL     1      39.748  23.855  55.457  1.00  0.00     0.093 A 
HETATM    4  C3  UNL     1      38.906  24.523  54.410  1.00  0.00     0.020 A 
HETATM    5  C4  UNL     1      40.184  23.876  54.023  1.00  0.00     0.020 A 
ENDROOT
TORSDOF 0
ENDMDL
