MODEL 1
REMARK VINA RESULT: -6.276301162      0.000      0.000
REMARK  4 active torsions:
REMARK  status: ('A' for Active; 'I' for Inactive)
REMARK    1  A    between atoms: O1_2  and  C2_3 
REMARK    2  A    between atoms: C2_3  and  O3_5 
REMARK    3  A    between atoms: O3_5  and  C3_6 
REMARK    4  A    between atoms: C6_10  and  C7_11 
ROOT
HETATM    1  C3  UNL     1      16.550   2.773  12.932  1.00  0.00     0.200 C 
HETATM    2  C4  UNL     1      17.159   2.901  11.529  1.00  0.00     0.241 C 
HETATM    3  C5  UNL     1      18.341   3.811  11.636  1.00  0.00     0.204 C 
HETATM    4  O4  UNL     1      18.204   4.697  12.732  1.00  0.00    -0.381 OA
HETATM    5  C6  UNL     1      16.931   5.234  12.603  1.00  0.00     0.162 C 
HETATM    6  C11 UNL     1      15.952   4.104  12.580  1.00  0.00     0.247 C 
HETATM    7  N1  UNL     1      15.929   3.606  11.191  1.00  0.00    -0.057 N 
ATOM      8  H11 UNL     1      15.119   3.117  10.810  1.00  0.00     0.278 HD
ATOM      9  H12 UNL     1      15.877   4.241  10.395  1.00  0.00     0.278 HD
ENDROOT
BRANCH   1  10
HETATM   10  O3  UNL     1      17.498   2.727  13.933  1.00  0.00    -0.288 OA
BRANCH  10  11
HETATM   11  C2  UNL     1      17.051   2.668  15.262  1.00  0.00     0.406 C 
HETATM   12  O2  UNL     1      17.797   3.089  16.198  1.00  0.00    -0.230 OA
BRANCH  11  13
HETATM   13  O1  UNL     1      15.818   2.165  15.616  1.00  0.00    -0.303 OA
HETATM   14  C1  UNL     1      15.199   2.498  16.856  1.00  0.00     0.215 C 
ENDBRANCH  11  13
ENDBRANCH  10  11
ENDBRANCH   1  10
BRANCH   5  15
HETATM   15  C7  UNL     1      16.617   6.313  13.579  1.00  0.00    -0.023 C 
HETATM   16  C8  UNL     1      16.469   7.674  13.024  1.00  0.00     0.017 C 
HETATM   17  C9  UNL     1      15.399   5.916  14.377  1.00  0.00     0.017 C 
HETATM   18  C10 UNL     1      17.773   6.354  14.576  1.00  0.00     0.017 C 
ENDBRANCH   5  15
TORSDOF 4
ENDMDL
MODEL 2
REMARK VINA RESULT: -6.239620363      1.457      2.086
REMARK  4 active torsions:
REMARK  status: ('A' for Active; 'I' for Inactive)
REMARK    1  A    between atoms: O1_2  and  C2_3 
REMARK    2  A    between atoms: C2_3  and  O3_5 
REMARK    3  A    between atoms: O3_5  and  C3_6 
REMARK    4  A    between atoms: C6_10  and  C7_11 
ROOT
HETATM    1  C3  UNL     1      16.448   3.333  12.899  1.00  0.00     0.200 C 
HETATM    2  C4  UNL     1      16.472   2.324  11.743  1.00  0.00     0.241 C 
HETATM    3  C5  UNL     1      17.905   2.038  11.429  1.00  0.00     0.204 C 
HETATM    4  O4  UNL     1      18.735   3.122  11.804  1.00  0.00    -0.381 OA
HETATM    5  C6  UNL     1      18.124   4.245  11.264  1.00  0.00     0.162 C 
HETATM    6  C11 UNL     1      16.726   4.310  11.793  1.00  0.00     0.247 C 
HETATM    7  N1  UNL     1      15.922   3.411  10.943  1.00  0.00    -0.057 N 
ATOM      8  H11 UNL     1      14.916   3.537  10.830  1.00  0.00     0.278 HD
ATOM      9  H12 UNL     1      16.001   3.420   9.926  1.00  0.00     0.278 HD
ENDROOT
BRANCH   1  10
HETATM   10  O3  UNL     1      17.435   3.110  13.836  1.00  0.00    -0.288 OA
BRANCH  10  11
HETATM   11  C2  UNL     1      17.043   2.847  15.158  1.00  0.00     0.406 C 
HETATM   12  O2  UNL     1      17.822   3.136  16.116  1.00  0.00    -0.230 OA
BRANCH  11  13
HETATM   13  O1  UNL     1      15.830   2.278  15.480  1.00  0.00    -0.303 OA
HETATM   14  C1  UNL     1      15.110   2.657  16.650  1.00  0.00     0.215 C 
ENDBRANCH  11  13
ENDBRANCH  10  11
ENDBRANCH   1  10
BRANCH   5  15
HETATM   15  C7  UNL     1      18.906   5.502  11.413  1.00  0.00    -0.023 C 
HETATM   16  C8  UNL     1      18.740   6.505  10.340  1.00  0.00     0.017 C 
HETATM   17  C9  UNL     1      18.620   6.103  12.768  1.00  0.00     0.017 C 
HETATM   18  C10 UNL     1      20.379   5.103  11.436  1.00  0.00     0.017 C 
ENDBRANCH   5  15
TORSDOF 4
ENDMDL
MODEL 3
REMARK VINA RESULT: -6.219326997      0.125      1.080
REMARK  4 active torsions:
REMARK  status: ('A' for Active; 'I' for Inactive)
REMARK    1  A    between atoms: O1_2  and  C2_3 
REMARK    2  A    between atoms: C2_3  and  O3_5 
REMARK    3  A    between atoms: O3_5  and  C3_6 
REMARK    4  A    between atoms: C6_10  and  C7_11 
ROOT
HETATM    1  C3  UNL     1      16.569   2.830  12.915  1.00  0.00     0.200 C 
HETATM    2  C4  UNL     1      17.185   2.998  11.519  1.00  0.00     0.241 C 
HETATM    3  C5  UNL     1      18.349   3.927  11.653  1.00  0.00     0.204 C 
HETATM    4  O4  UNL     1      18.189   4.786  12.767  1.00  0.00    -0.381 OA
HETATM    5  C6  UNL     1      16.908   5.304  12.641  1.00  0.00     0.162 C 
HETATM    6  C11 UNL     1      15.948   4.157  12.587  1.00  0.00     0.247 C 
HETATM    7  N1  UNL     1      15.944   3.688  11.188  1.00  0.00    -0.057 N 
ATOM      8  H11 UNL     1      15.145   3.193  10.791  1.00  0.00     0.278 HD
ATOM      9  H12 UNL     1      15.886   4.339  10.404  1.00  0.00     0.278 HD
ENDROOT
BRANCH   1  10
HETATM   10  O3  UNL     1      17.510   2.779  13.921  1.00  0.00    -0.288 OA
BRANCH  10  11
HETATM   11  C2  UNL     1      17.056   2.701  15.247  1.00  0.00     0.406 C 
HETATM   12  O2  UNL     1      17.801   3.096  16.194  1.00  0.00    -0.230 OA
BRANCH  11  13
HETATM   13  O1  UNL     1      15.815   2.207  15.585  1.00  0.00    -0.303 OA
HETATM   14  C1  UNL     1      15.167   2.570  16.801  1.00  0.00     0.215 C 
ENDBRANCH  11  13
ENDBRANCH  10  11
ENDBRANCH   1  10
BRANCH   5  15
HETATM   15  C7  UNL     1      16.568   6.355  13.636  1.00  0.00    -0.023 C 
HETATM   16  C8  UNL     1      15.363   6.114  14.457  1.00  0.00     0.017 C 
HETATM   17  C9  UNL     1      17.773   6.619  14.506  1.00  0.00     0.017 C 
HETATM   18  C10 UNL     1      16.331   7.644  12.852  1.00  0.00     0.017 C 
ENDBRANCH   5  15
TORSDOF 4
ENDMDL
MODEL 4
REMARK VINA RESULT: -6.205297059      0.091      1.032
REMARK  4 active torsions:
REMARK  status: ('A' for Active; 'I' for Inactive)
REMARK    1  A    between atoms: O1_2  and  C2_3 
REMARK    2  A    between atoms: C2_3  and  O3_5 
REMARK    3  A    between atoms: O3_5  and  C3_6 
REMARK    4  A    between atoms: C6_10  and  C7_11 
ROOT
HETATM    1  C3  UNL     1      16.550   2.768  12.933  1.00  0.00     0.200 C 
HETATM    2  C4  UNL     1      17.160   2.898  11.531  1.00  0.00     0.241 C 
HETATM    3  C5  UNL     1      18.352   3.794  11.642  1.00  0.00     0.204 C 
HETATM    4  O4  UNL     1      18.227   4.673  12.745  1.00  0.00    -0.381 OA
HETATM    5  C6  UNL     1      16.960   5.227  12.621  1.00  0.00     0.162 C 
HETATM    6  C11 UNL     1      15.967   4.109  12.591  1.00  0.00     0.247 C 
HETATM    7  N1  UNL     1      15.938   3.620  11.199  1.00  0.00    -0.057 N 
ATOM      8  H11 UNL     1      15.121   3.144  10.815  1.00  0.00     0.278 HD
ATOM      9  H12 UNL     1      15.892   4.261  10.406  1.00  0.00     0.278 HD
ENDROOT
BRANCH   1  10
HETATM   10  O3  UNL     1      17.498   2.704  13.933  1.00  0.00    -0.288 OA
BRANCH  10  11
HETATM   11  C2  UNL     1      17.052   2.656  15.263  1.00  0.00     0.406 C 
HETATM   12  O2  UNL     1      17.800   3.079  16.195  1.00  0.00    -0.230 OA
BRANCH  11  13
HETATM   13  O1  UNL     1      15.816   2.162  15.621  1.00  0.00    -0.303 OA
HETATM   14  C1  UNL     1      15.197   2.509  16.856  1.00  0.00     0.215 C 
ENDBRANCH  11  13
ENDBRANCH  10  11
ENDBRANCH   1  10
BRANCH   5  15
HETATM   15  C7  UNL     1      16.659   6.302  13.604  1.00  0.00    -0.023 C 
HETATM   16  C8  UNL     1      17.699   6.568  14.620  1.00  0.00     0.017 C 
HETATM   17  C9  UNL     1      16.292   7.563  12.859  1.00  0.00     0.017 C 
HETATM   18  C10 UNL     1      15.397   5.876  14.350  1.00  0.00     0.017 C 
ENDBRANCH   5  15
TORSDOF 4
ENDMDL
MODEL 5
REMARK VINA RESULT: -6.192936617      1.662      2.570
REMARK  4 active torsions:
REMARK  status: ('A' for Active; 'I' for Inactive)
REMARK    1  A    between atoms: O1_2  and  C2_3 
REMARK    2  A    between atoms: C2_3  and  O3_5 
REMARK    3  A    between atoms: O3_5  and  C3_6 
REMARK    4  A    between atoms: C6_10  and  C7_11 
ROOT
HETATM    1  C3  UNL     1      16.414   3.270  12.725  1.00  0.00     0.200 C 
HETATM    2  C4  UNL     1      16.456   2.237  11.591  1.00  0.00     0.241 C 
HETATM    3  C5  UNL     1      17.887   1.851  11.391  1.00  0.00     0.204 C 
HETATM    4  O4  UNL     1      18.757   2.886  11.811  1.00  0.00    -0.381 OA
HETATM    5  C6  UNL     1      18.265   4.035  11.208  1.00  0.00     0.162 C 
HETATM    6  C11 UNL     1      16.839   4.203  11.627  1.00  0.00     0.247 C 
HETATM    7  N1  UNL     1      16.042   3.340  10.734  1.00  0.00    -0.057 N 
ATOM      8  H11 UNL     1      15.058   3.530  10.542  1.00  0.00     0.278 HD
ATOM      9  H12 UNL     1      16.198   3.323   9.726  1.00  0.00     0.278 HD
ENDROOT
BRANCH   1  10
HETATM   10  O3  UNL     1      17.310   3.002  13.738  1.00  0.00    -0.288 OA
BRANCH  10  11
HETATM   11  C2  UNL     1      16.804   2.552  14.967  1.00  0.00     0.406 C 
HETATM   12  O2  UNL     1      16.385   1.360  15.079  1.00  0.00    -0.230 OA
BRANCH  11  13
HETATM   13  O1  UNL     1      16.734   3.353  16.086  1.00  0.00    -0.303 OA
HETATM   14  C1  UNL     1      15.646   3.270  17.003  1.00  0.00     0.215 C 
ENDBRANCH  11  13
ENDBRANCH  10  11
ENDBRANCH   1  10
BRANCH   5  15
HETATM   15  C7  UNL     1      19.116   5.241  11.395  1.00  0.00    -0.023 C 
HETATM   16  C8  UNL     1      18.943   5.971  12.668  1.00  0.00     0.017 C 
HETATM   17  C9  UNL     1      20.561   4.863  11.178  1.00  0.00     0.017 C 
HETATM   18  C10 UNL     1      18.763   6.207  10.267  1.00  0.00     0.017 C 
ENDBRANCH   5  15
TORSDOF 4
ENDMDL
