MODEL 1
REMARK VINA RESULT: -5.162716208      0.000      0.000
REMARK  3 active torsions:
REMARK  status: ('A' for Active; 'I' for Inactive)
REMARK    1  A    between atoms: C5_8  and  C6_9 
REMARK    2  A    between atoms: C6_9  and  O1_10 
REMARK    3  A    between atoms: C7_12  and  O2_13 
ROOT
HETATM    1  C1  UNL     1      16.560   7.327  12.609  1.00  0.00     0.125 C 
HETATM    2  N1  UNL     1      16.066   5.989  12.558  1.00  0.00    -0.252 NA
HETATM    3  S1  UNL     1      15.379   5.345  14.023  1.00  0.00    -0.060 SA
HETATM    4  C2  UNL     1      16.945   4.463  13.768  1.00  0.00     0.086 C 
HETATM    5  C3  UNL     1      17.997   5.057  14.717  1.00  0.00     0.042 C 
HETATM    6  S2  UNL     1      16.836   2.707  13.993  1.00  0.00    -0.145 SA
HETATM    7  C4  UNL     1      16.877   1.814  12.435  1.00  0.00     0.084 C 
HETATM    8  C5  UNL     1      17.323   2.685  11.309  1.00  0.00     0.049 C 
HETATM    9  C7  UNL     1      16.704   4.045  11.291  1.00  0.00     0.146 C 
HETATM   10  C8  UNL     1      17.097   4.950  12.392  1.00  0.00     0.128 C 
ENDROOT
BRANCH   8  11
HETATM   11  C6  UNL     1      18.836   2.736  11.168  1.00  0.00     0.172 C 
BRANCH  11  12
HETATM   12  O1  UNL     1      19.137   3.205   9.913  1.00  0.00    -0.400 OA
ATOM     13  H1  UNL     1      19.964   2.824   9.642  1.00  0.00     0.209 HD
ENDBRANCH  11  12
ENDBRANCH   8  11
BRANCH   9  14
HETATM   14  O2  UNL     1      15.313   3.865  11.177  1.00  0.00    -0.393 OA
ATOM     15  H2  UNL     1      15.005   4.477  10.518  1.00  0.00     0.210 HD
ENDBRANCH   9  14
TORSDOF 3
ENDMDL
MODEL 2
REMARK VINA RESULT: -5.025062750      2.431      3.576
REMARK  3 active torsions:
REMARK  status: ('A' for Active; 'I' for Inactive)
REMARK    1  A    between atoms: C5_8  and  C6_9 
REMARK    2  A    between atoms: C6_9  and  O1_10 
REMARK    3  A    between atoms: C7_12  and  O2_13 
ROOT
HETATM    1  C1  UNL     1      19.262   5.946  11.551  1.00  0.00     0.125 C 
HETATM    2  N1  UNL     1      17.915   5.697  11.951  1.00  0.00    -0.252 NA
HETATM    3  S1  UNL     1      16.829   7.059  11.954  1.00  0.00    -0.060 SA
HETATM    4  C2  UNL     1      17.113   6.635  13.697  1.00  0.00     0.086 C 
HETATM    5  C3  UNL     1      18.114   7.641  14.284  1.00  0.00     0.042 C 
HETATM    6  S2  UNL     1      15.640   6.585  14.683  1.00  0.00    -0.145 SA
HETATM    7  C4  UNL     1      15.135   4.906  15.073  1.00  0.00     0.084 C 
HETATM    8  C5  UNL     1      16.216   3.920  14.782  1.00  0.00     0.049 C 
HETATM    9  C7  UNL     1      16.912   4.129  13.477  1.00  0.00     0.146 C 
HETATM   10  C8  UNL     1      17.742   5.348  13.372  1.00  0.00     0.128 C 
ENDROOT
BRANCH   8  11
HETATM   11  C6  UNL     1      17.189   3.756  15.938  1.00  0.00     0.172 C 
BRANCH  11  12
HETATM   12  O1  UNL     1      17.232   2.426  16.281  1.00  0.00    -0.400 OA
ATOM     13  H1  UNL     1      18.064   2.254  16.707  1.00  0.00     0.209 HD
ENDBRANCH  11  12
ENDBRANCH   8  11
BRANCH   9  14
HETATM   14  O2  UNL     1      15.940   4.018  12.466  1.00  0.00    -0.393 OA
ATOM     15  H2  UNL     1      15.799   4.890  12.116  1.00  0.00     0.210 HD
ENDBRANCH   9  14
TORSDOF 3
ENDMDL
MODEL 3
REMARK VINA RESULT: -4.912269111      2.655      3.945
REMARK  3 active torsions:
REMARK  status: ('A' for Active; 'I' for Inactive)
REMARK    1  A    between atoms: C5_8  and  C6_9 
REMARK    2  A    between atoms: C6_9  and  O1_10 
REMARK    3  A    between atoms: C7_12  and  O2_13 
ROOT
HETATM    1  C1  UNL     1      16.114   2.495  10.862  1.00  0.00     0.125 C 
HETATM    2  N1  UNL     1      16.072   3.697  11.629  1.00  0.00    -0.252 NA
HETATM    3  S1  UNL     1      16.744   5.126  10.894  1.00  0.00    -0.060 SA
HETATM    4  C2  UNL     1      17.882   4.662  12.230  1.00  0.00     0.086 C 
HETATM    5  C3  UNL     1      19.103   3.967  11.609  1.00  0.00     0.042 C 
HETATM    6  S2  UNL     1      18.398   6.018  13.250  1.00  0.00    -0.145 SA
HETATM    7  C4  UNL     1      17.601   6.005  14.860  1.00  0.00     0.084 C 
HETATM    8  C5  UNL     1      16.933   4.701  15.137  1.00  0.00     0.049 C 
HETATM    9  C7  UNL     1      16.150   4.147  13.992  1.00  0.00     0.146 C 
HETATM   10  C8  UNL     1      16.937   3.705  12.821  1.00  0.00     0.128 C 
ENDROOT
BRANCH   8  11
HETATM   11  C6  UNL     1      17.877   3.675  15.744  1.00  0.00     0.172 C 
BRANCH  11  12
HETATM   12  O1  UNL     1      17.123   2.702  16.355  1.00  0.00    -0.400 OA
ATOM     13  H1  UNL     1      16.758   3.064  17.154  1.00  0.00     0.209 HD
ENDBRANCH  11  12
ENDBRANCH   8  11
BRANCH   9  14
HETATM   14  O2  UNL     1      15.151   5.088  13.679  1.00  0.00    -0.393 OA
ATOM     15  H2  UNL     1      15.260   5.820  14.275  1.00  0.00     0.210 HD
ENDBRANCH   9  14
TORSDOF 3
ENDMDL
MODEL 4
REMARK VINA RESULT: -4.893662187      2.410      3.621
REMARK  3 active torsions:
REMARK  status: ('A' for Active; 'I' for Inactive)
REMARK    1  A    between atoms: C5_8  and  C6_9 
REMARK    2  A    between atoms: C6_9  and  O1_10 
REMARK    3  A    between atoms: C7_12  and  O2_13 
ROOT
HETATM    1  C1  UNL     1      19.251   4.300  10.968  1.00  0.00     0.125 C 
HETATM    2  N1  UNL     1      17.922   4.411  11.477  1.00  0.00    -0.252 NA
HETATM    3  S1  UNL     1      17.081   5.905  11.167  1.00  0.00    -0.060 SA
HETATM    4  C2  UNL     1      17.446   5.889  12.946  1.00  0.00     0.086 C 
HETATM    5  C3  UNL     1      18.647   6.810  13.203  1.00  0.00     0.042 C 
HETATM    6  S2  UNL     1      16.078   6.360  13.972  1.00  0.00    -0.145 SA
HETATM    7  C4  UNL     1      15.339   4.956  14.813  1.00  0.00     0.084 C 
HETATM    8  C5  UNL     1      16.212   3.748  14.747  1.00  0.00     0.049 C 
HETATM    9  C7  UNL     1      16.814   3.489  13.404  1.00  0.00     0.146 C 
HETATM   10  C8  UNL     1      17.821   4.470  12.946  1.00  0.00     0.128 C 
ENDROOT
BRANCH   8  11
HETATM   11  C6  UNL     1      17.243   3.705  15.862  1.00  0.00     0.172 C 
BRANCH  11  12
HETATM   12  O1  UNL     1      17.360   2.406  16.293  1.00  0.00    -0.400 OA
ATOM     13  H1  UNL     1      17.559   2.416  17.222  1.00  0.00     0.209 HD
ENDBRANCH  11  12
ENDBRANCH   8  11
BRANCH   9  14
HETATM   14  O2  UNL     1      15.750   3.308  12.501  1.00  0.00    -0.393 OA
ATOM     15  H2  UNL     1      15.609   4.139  12.063  1.00  0.00     0.210 HD
ENDBRANCH   9  14
TORSDOF 3
ENDMDL
MODEL 5
REMARK VINA RESULT: -4.833915071      2.006      2.210
REMARK  3 active torsions:
REMARK  status: ('A' for Active; 'I' for Inactive)
REMARK    1  A    between atoms: C5_8  and  C6_9 
REMARK    2  A    between atoms: C6_9  and  O1_10 
REMARK    3  A    between atoms: C7_12  and  O2_13 
ROOT
HETATM    1  C1  UNL     1      17.671   6.421   9.264  1.00  0.00     0.125 C 
HETATM    2  N1  UNL     1      16.938   5.735  10.278  1.00  0.00    -0.252 NA
HETATM    3  S1  UNL     1      16.816   6.517  11.830  1.00  0.00    -0.060 SA
HETATM    4  C2  UNL     1      17.911   5.088  12.067  1.00  0.00     0.086 C 
HETATM    5  C3  UNL     1      19.362   5.589  12.112  1.00  0.00     0.042 C 
HETATM    6  S2  UNL     1      17.549   4.126  13.513  1.00  0.00    -0.145 SA
HETATM    7  C4  UNL     1      16.745   2.570  13.115  1.00  0.00     0.084 C 
HETATM    8  C5  UNL     1      16.843   2.251  11.661  1.00  0.00     0.049 C 
HETATM    9  C7  UNL     1      16.568   3.404  10.751  1.00  0.00     0.146 C 
HETATM   10  C8  UNL     1      17.566   4.496  10.769  1.00  0.00     0.128 C 
ENDROOT
BRANCH   8  11
HETATM   11  C6  UNL     1      18.130   1.526  11.303  1.00  0.00     0.172 C 
BRANCH  11  12
HETATM   12  O1  UNL     1      17.876   0.176  11.290  1.00  0.00    -0.400 OA
ATOM     13  H1  UNL     1      18.295  -0.199  10.524  1.00  0.00     0.209 HD
ENDBRANCH  11  12
ENDBRANCH   8  11
BRANCH   9  14
HETATM   14  O2  UNL     1      15.254   3.835  11.014  1.00  0.00    -0.393 OA
ATOM     15  H2  UNL     1      14.989   4.384  10.285  1.00  0.00     0.210 HD
ENDBRANCH   9  14
TORSDOF 3
ENDMDL
