MODEL 1
REMARK VINA RESULT: -6.211820053      0.000      0.000
REMARK  2 active torsions:
REMARK  status: ('A' for Active; 'I' for Inactive)
REMARK    1  A    between atoms: O1_2  and  C2_3 
REMARK    2  A    between atoms: C2_3  and  C3_5 
ROOT
HETATM    1  C3  UNL     1      16.859   4.759  12.679  1.00  0.00     0.141 C 
HETATM    2  C4  UNL     1      16.514   5.776  11.632  1.00  0.00     0.052 C 
HETATM    3  N1  UNL     1      18.295   4.790  12.852  1.00  0.00    -0.355 N 
ATOM      4  H1  UNL     1      18.986   4.133  12.489  1.00  0.00     0.162 HD
HETATM    5  C5  UNL     1      18.524   5.961  13.652  1.00  0.00     0.126 C 
HETATM    6  C6  UNL     1      19.701   6.541  13.845  1.00  0.00     0.236 C 
HETATM    7  F1  UNL     1      19.741   7.639  14.630  1.00  0.00    -0.215 F 
HETATM    8  N2  UNL     1      17.269   6.390  14.201  1.00  0.00    -0.362 N 
ATOM      9  H2  UNL     1      17.043   7.290  14.622  1.00  0.00     0.162 HD
HETATM   10  C7  UNL     1      16.397   5.242  14.017  1.00  0.00     0.066 C 
HETATM   11  C8  UNL     1      16.709   4.273  15.130  1.00  0.00     0.034 C 
HETATM   12  C9  UNL     1      15.399   3.981  15.834  1.00  0.00     0.003 C 
HETATM   13  C10 UNL     1      14.625   5.257  15.569  1.00  0.00     0.003 C 
HETATM   14  C11 UNL     1      14.954   5.575  14.109  1.00  0.00     0.034 C 
ENDROOT
BRANCH   1  15
HETATM   15  C2  UNL     1      16.350   3.445  12.284  1.00  0.00     0.289 C 
HETATM   16  O2  UNL     1      15.488   3.418  11.358  1.00  0.00    -0.262 OA
BRANCH  15  17
HETATM   17  O1  UNL     1      16.720   2.241  12.825  1.00  0.00    -0.324 OA
HETATM   18  C1  UNL     1      17.121   1.144  11.991  1.00  0.00     0.213 C 
ENDBRANCH  15  17
ENDBRANCH   1  15
TORSDOF 2
ENDMDL
MODEL 2
REMARK VINA RESULT: -6.041422931      0.951      1.149
REMARK  2 active torsions:
REMARK  status: ('A' for Active; 'I' for Inactive)
REMARK    1  A    between atoms: O1_2  and  C2_3 
REMARK    2  A    between atoms: C2_3  and  C3_5 
ROOT
HETATM    1  C3  UNL     1      17.447   4.895  12.675  1.00  0.00     0.141 C 
HETATM    2  C4  UNL     1      16.874   5.729  11.567  1.00  0.00     0.052 C 
HETATM    3  N1  UNL     1      18.795   5.362  12.914  1.00  0.00    -0.355 N 
ATOM      4  H1  UNL     1      19.670   4.933  12.615  1.00  0.00     0.162 HD
HETATM    5  C5  UNL     1      18.615   6.572  13.668  1.00  0.00     0.126 C 
HETATM    6  C6  UNL     1      19.551   7.485  13.889  1.00  0.00     0.236 C 
HETATM    7  F1  UNL     1      19.214   8.567  14.624  1.00  0.00    -0.215 F 
HETATM    8  N2  UNL     1      17.260   6.618  14.138  1.00  0.00    -0.362 N 
ATOM      9  H2  UNL     1      16.749   7.421  14.505  1.00  0.00     0.162 HD
HETATM   10  C7  UNL     1      16.783   5.256  13.967  1.00  0.00     0.066 C 
HETATM   11  C8  UNL     1      17.305   4.461  15.136  1.00  0.00     0.034 C 
HETATM   12  C9  UNL     1      16.103   3.809  15.791  1.00  0.00     0.003 C 
HETATM   13  C10 UNL     1      15.000   4.783  15.431  1.00  0.00     0.003 C 
HETATM   14  C11 UNL     1      15.304   5.142  13.975  1.00  0.00     0.034 C 
ENDROOT
BRANCH   1  15
HETATM   15  C2  UNL     1      17.378   3.477  12.318  1.00  0.00     0.289 C 
HETATM   16  O2  UNL     1      18.458   2.820  12.368  1.00  0.00    -0.262 OA
BRANCH  15  17
HETATM   17  O1  UNL     1      16.253   2.797  11.934  1.00  0.00    -0.324 OA
HETATM   18  C1  UNL     1      16.227   2.027  10.722  1.00  0.00     0.213 C 
ENDBRANCH  15  17
ENDBRANCH   1  15
TORSDOF 2
ENDMDL
MODEL 3
REMARK VINA RESULT: -5.962512461      2.374      3.061
REMARK  2 active torsions:
REMARK  status: ('A' for Active; 'I' for Inactive)
REMARK    1  A    between atoms: O1_2  and  C2_3 
REMARK    2  A    between atoms: C2_3  and  C3_5 
ROOT
HETATM    1  C3  UNL     1      17.200   4.308  14.004  1.00  0.00     0.141 C 
HETATM    2  C4  UNL     1      16.704   3.171  13.159  1.00  0.00     0.052 C 
HETATM    3  N1  UNL     1      18.522   4.651  13.530  1.00  0.00    -0.355 N 
ATOM      4  H1  UNL     1      19.421   4.413  13.948  1.00  0.00     0.162 HD
HETATM    5  C5  UNL     1      18.277   5.407  12.332  1.00  0.00     0.126 C 
HETATM    6  C6  UNL     1      19.186   5.709  11.416  1.00  0.00     0.236 C 
HETATM    7  F1  UNL     1      18.786   6.431  10.346  1.00  0.00    -0.215 F 
HETATM    8  N2  UNL     1      16.890   5.775  12.303  1.00  0.00    -0.362 N 
ATOM      9  H2  UNL     1      16.347   6.115  11.509  1.00  0.00     0.162 HD
HETATM   10  C7  UNL     1      16.440   5.551  13.666  1.00  0.00     0.066 C 
HETATM   11  C8  UNL     1      16.880   6.745  14.474  1.00  0.00     0.034 C 
HETATM   12  C9  UNL     1      15.639   7.300  15.144  1.00  0.00     0.003 C 
HETATM   13  C10 UNL     1      14.557   6.873  14.173  1.00  0.00     0.003 C 
HETATM   14  C11 UNL     1      14.964   5.448  13.792  1.00  0.00     0.034 C 
ENDROOT
BRANCH   1  15
HETATM   15  C2  UNL     1      17.170   3.927  15.417  1.00  0.00     0.289 C 
HETATM   16  O2  UNL     1      18.274   3.617  15.951  1.00  0.00    -0.262 OA
BRANCH  15  17
HETATM   17  O1  UNL     1      16.057   3.875  16.214  1.00  0.00    -0.324 OA
HETATM   18  C1  UNL     1      15.575   2.628  16.738  1.00  0.00     0.213 C 
ENDBRANCH  15  17
ENDBRANCH   1  15
TORSDOF 2
ENDMDL
MODEL 4
REMARK VINA RESULT: -5.935703704      2.737      4.527
REMARK  2 active torsions:
REMARK  status: ('A' for Active; 'I' for Inactive)
REMARK    1  A    between atoms: O1_2  and  C2_3 
REMARK    2  A    between atoms: C2_3  and  C3_5 
ROOT
HETATM    1  C3  UNL     1      16.823   4.446  11.580  1.00  0.00     0.141 C 
HETATM    2  C4  UNL     1      16.011   3.297  11.058  1.00  0.00     0.052 C 
HETATM    3  N1  UNL     1      16.364   4.721  12.924  1.00  0.00    -0.355 N 
ATOM      4  H1  UNL     1      15.749   5.472  13.237  1.00  0.00     0.162 HD
HETATM    5  C5  UNL     1      16.974   3.690  13.718  1.00  0.00     0.126 C 
HETATM    6  C6  UNL     1      16.637   3.379  14.962  1.00  0.00     0.236 C 
HETATM    7  F1  UNL     1      17.315   2.380  15.568  1.00  0.00    -0.215 F 
HETATM    8  N2  UNL     1      18.002   3.062  12.937  1.00  0.00    -0.362 N 
ATOM      9  H2  UNL     1      18.467   2.172  13.111  1.00  0.00     0.162 HD
HETATM   10  C7  UNL     1      18.224   3.990  11.841  1.00  0.00     0.066 C 
HETATM   11  C8  UNL     1      19.108   5.090  12.371  1.00  0.00     0.034 C 
HETATM   12  C9  UNL     1      20.309   5.167  11.450  1.00  0.00     0.003 C 
HETATM   13  C10 UNL     1      20.384   3.743  10.936  1.00  0.00     0.003 C 
HETATM   14  C11 UNL     1      18.919   3.379  10.681  1.00  0.00     0.034 C 
ENDROOT
BRANCH   1  15
HETATM   15  C2  UNL     1      16.700   5.592  10.679  1.00  0.00     0.289 C 
HETATM   16  O2  UNL     1      16.166   6.637  11.149  1.00  0.00    -0.262 OA
BRANCH  15  17
HETATM   17  O1  UNL     1      17.110   5.637   9.372  1.00  0.00    -0.324 OA
HETATM   18  C1  UNL     1      17.989   6.671   8.904  1.00  0.00     0.213 C 
ENDBRANCH  15  17
ENDBRANCH   1  15
TORSDOF 2
ENDMDL
MODEL 5
REMARK VINA RESULT: -5.910275445      2.274      3.832
REMARK  2 active torsions:
REMARK  status: ('A' for Active; 'I' for Inactive)
REMARK    1  A    between atoms: O1_2  and  C2_3 
REMARK    2  A    between atoms: C2_3  and  C3_5 
ROOT
HETATM    1  C3  UNL     1      17.075   4.792  14.496  1.00  0.00     0.141 C 
HETATM    2  C4  UNL     1      18.255   5.621  14.913  1.00  0.00     0.052 C 
HETATM    3  N1  UNL     1      15.893   5.606  14.677  1.00  0.00    -0.355 N 
ATOM      4  H1  UNL     1      15.210   5.562  15.432  1.00  0.00     0.162 HD
HETATM    5  C5  UNL     1      15.904   6.491  13.545  1.00  0.00     0.126 C 
HETATM    6  C6  UNL     1      15.164   7.584  13.418  1.00  0.00     0.236 C 
HETATM    7  F1  UNL     1      15.296   8.306  12.284  1.00  0.00    -0.215 F 
HETATM    8  N2  UNL     1      16.844   5.990  12.584  1.00  0.00    -0.362 N 
ATOM      9  H2  UNL     1      17.250   6.480  11.788  1.00  0.00     0.162 HD
HETATM   10  C7  UNL     1      17.084   4.621  13.010  1.00  0.00     0.066 C 
HETATM   11  C8  UNL     1      15.926   3.798  12.508  1.00  0.00     0.034 C 
HETATM   12  C9  UNL     1      16.516   2.663  11.695  1.00  0.00     0.003 C 
HETATM   13  C10 UNL     1      17.814   3.282  11.215  1.00  0.00     0.003 C 
HETATM   14  C11 UNL     1      18.325   4.035  12.446  1.00  0.00     0.034 C 
ENDROOT
BRANCH   1  15
HETATM   15  C2  UNL     1      17.046   3.546  15.264  1.00  0.00     0.289 C 
HETATM   16  O2  UNL     1      18.112   3.213  15.858  1.00  0.00    -0.262 OA
BRANCH  15  17
HETATM   17  O1  UNL     1      15.971   2.708  15.399  1.00  0.00    -0.324 OA
HETATM   18  C1  UNL     1      15.281   2.579  16.651  1.00  0.00     0.213 C 
ENDBRANCH  15  17
ENDBRANCH   1  15
TORSDOF 2
ENDMDL
