MODEL 1
REMARK VINA RESULT: -6.390087133      0.000      0.000
REMARK  3 active torsions:
REMARK  status: ('A' for Active; 'I' for Inactive)
REMARK    1  A    between atoms: C2_2  and  N1_4 
REMARK    2  A    between atoms: C2_2  and  C9_15 
REMARK       I    between atoms: N1_4  and  C4_5 
REMARK       I    between atoms: C4_5  and  N2_7 
REMARK    3  A    between atoms: N2_7  and  N3_9 
ROOT
HETATM    1  N1  UNL     1      18.046   4.127  12.361  1.00  0.00    -0.375 NA
HETATM    2  C4  UNL     1      17.087   3.492  13.096  1.00  0.00     0.408 C 
HETATM    3  O1  UNL     1      16.372   2.515  12.798  1.00  0.00    -0.229 OA
HETATM    4  N2  UNL     1      16.798   3.988  14.464  1.00  0.00    -0.238 N 
ATOM      5  H2  UNL     1      17.320   4.796  14.805  1.00  0.00     0.193 HD
ENDROOT
BRANCH   1   6
HETATM    6  C2  UNL     1      19.011   4.760  11.611  1.00  0.00     0.188 C 
HETATM    7  C1  UNL     1      18.439   5.486  10.370  1.00  0.00     0.064 C 
HETATM    8  C3  UNL     1      19.874   5.785  12.320  1.00  0.00     0.064 C 
BRANCH   6   9
HETATM    9  C9  UNL     1      19.991   3.745  10.953  1.00  0.00     0.424 C 
HETATM   10  F1  UNL     1      19.788   2.480  11.418  1.00  0.00    -0.167 F 
HETATM   11  F2  UNL     1      21.253   4.112  11.379  1.00  0.00    -0.167 F 
HETATM   12  F3  UNL     1      19.873   3.891   9.591  1.00  0.00    -0.167 F 
ENDBRANCH   6   9
ENDBRANCH   1   6
BRANCH   4  13
HETATM   13  N3  UNL     1      15.879   3.427  15.285  1.00  0.00    -0.298 N 
HETATM   14  C5  UNL     1      16.337   2.362  16.110  1.00  0.00     0.174 C 
HETATM   15  C6  UNL     1      15.517   2.198  17.363  1.00  0.00     0.189 C 
HETATM   16  O2  UNL     1      14.163   2.262  17.010  1.00  0.00    -0.384 OA
HETATM   17  C7  UNL     1      13.820   3.551  16.622  1.00  0.00     0.213 C 
HETATM   18  C8  UNL     1      14.838   4.230  15.763  1.00  0.00     0.109 C 
ENDBRANCH   4  13
TORSDOF 3
ENDMDL
MODEL 2
REMARK VINA RESULT: -6.169116172      1.370      1.889
REMARK  3 active torsions:
REMARK  status: ('A' for Active; 'I' for Inactive)
REMARK    1  A    between atoms: C2_2  and  N1_4 
REMARK    2  A    between atoms: C2_2  and  C9_15 
REMARK       I    between atoms: N1_4  and  C4_5 
REMARK       I    between atoms: C4_5  and  N2_7 
REMARK    3  A    between atoms: N2_7  and  N3_9 
ROOT
HETATM    1  N1  UNL     1      18.526   4.508  12.706  1.00  0.00    -0.375 NA
HETATM    2  C4  UNL     1      17.994   4.503  13.963  1.00  0.00     0.408 C 
HETATM    3  O1  UNL     1      18.436   5.000  15.017  1.00  0.00    -0.229 OA
HETATM    4  N2  UNL     1      16.698   3.814  14.181  1.00  0.00    -0.238 N 
ATOM      5  H2  UNL     1      16.254   3.359  13.384  1.00  0.00     0.193 HD
ENDROOT
BRANCH   1   6
HETATM    6  C2  UNL     1      19.071   4.521  11.442  1.00  0.00     0.188 C 
HETATM    7  C1  UNL     1      18.217   5.307  10.418  1.00  0.00     0.064 C 
HETATM    8  C3  UNL     1      20.479   5.066  11.302  1.00  0.00     0.064 C 
BRANCH   6   9
HETATM    9  C9  UNL     1      19.088   3.100  10.805  1.00  0.00     0.424 C 
HETATM   10  F1  UNL     1      19.834   2.229  11.544  1.00  0.00    -0.167 F 
HETATM   11  F2  UNL     1      19.744   3.238   9.598  1.00  0.00    -0.167 F 
HETATM   12  F3  UNL     1      17.780   2.725  10.611  1.00  0.00    -0.167 F 
ENDBRANCH   6   9
ENDBRANCH   1   6
BRANCH   4  13
HETATM   13  N3  UNL     1      16.073   3.757  15.382  1.00  0.00    -0.298 N 
HETATM   14  C5  UNL     1      14.978   4.645  15.564  1.00  0.00     0.174 C 
HETATM   15  C6  UNL     1      13.988   4.152  16.588  1.00  0.00     0.189 C 
HETATM   16  O2  UNL     1      14.704   3.704  17.705  1.00  0.00    -0.384 OA
HETATM   17  C7  UNL     1      15.398   2.537  17.405  1.00  0.00     0.213 C 
HETATM   18  C8  UNL     1      16.052   2.535  16.061  1.00  0.00     0.109 C 
ENDBRANCH   4  13
TORSDOF 3
ENDMDL
MODEL 3
REMARK VINA RESULT: -6.119902691      4.496      5.752
REMARK  3 active torsions:
REMARK  status: ('A' for Active; 'I' for Inactive)
REMARK    1  A    between atoms: C2_2  and  N1_4 
REMARK    2  A    between atoms: C2_2  and  C9_15 
REMARK       I    between atoms: N1_4  and  C4_5 
REMARK       I    between atoms: C4_5  and  N2_7 
REMARK    3  A    between atoms: N2_7  and  N3_9 
ROOT
HETATM    1  N1  UNL     1      16.192   6.226  12.452  1.00  0.00    -0.375 NA
HETATM    2  C4  UNL     1      16.407   5.057  11.782  1.00  0.00     0.408 C 
HETATM    3  O1  UNL     1      16.002   4.697  10.659  1.00  0.00    -0.229 OA
HETATM    4  N2  UNL     1      17.233   4.009  12.430  1.00  0.00    -0.238 N 
ATOM      5  H2  UNL     1      17.605   4.196  13.361  1.00  0.00     0.193 HD
ENDROOT
BRANCH   1   6
HETATM    6  C2  UNL     1      15.971   7.409  13.119  1.00  0.00     0.188 C 
HETATM    7  C1  UNL     1      17.040   7.711  14.197  1.00  0.00     0.064 C 
HETATM    8  C3  UNL     1      15.873   8.668  12.279  1.00  0.00     0.064 C 
BRANCH   6   9
HETATM    9  C9  UNL     1      14.673   7.356  13.978  1.00  0.00     0.424 C 
HETATM   10  F1  UNL     1      14.911   7.724  15.269  1.00  0.00    -0.167 F 
HETATM   11  F2  UNL     1      14.304   6.026  14.019  1.00  0.00    -0.167 F 
HETATM   12  F3  UNL     1      13.723   8.106  13.325  1.00  0.00    -0.167 F 
ENDBRANCH   6   9
ENDBRANCH   1   6
BRANCH   4  13
HETATM   13  N3  UNL     1      17.520   2.818  11.852  1.00  0.00    -0.298 N 
HETATM   14  C5  UNL     1      18.788   2.716  11.216  1.00  0.00     0.174 C 
HETATM   15  C6  UNL     1      19.295   1.299  11.143  1.00  0.00     0.189 C 
HETATM   16  O2  UNL     1      18.242   0.481  10.715  1.00  0.00    -0.384 OA
HETATM   17  C7  UNL     1      17.271   0.378  11.703  1.00  0.00     0.213 C 
HETATM   18  C8  UNL     1      16.967   1.660  12.409  1.00  0.00     0.109 C 
ENDBRANCH   4  13
TORSDOF 3
ENDMDL
MODEL 4
REMARK VINA RESULT: -6.037767277      1.196      1.788
REMARK  3 active torsions:
REMARK  status: ('A' for Active; 'I' for Inactive)
REMARK    1  A    between atoms: C2_2  and  N1_4 
REMARK    2  A    between atoms: C2_2  and  C9_15 
REMARK       I    between atoms: N1_4  and  C4_5 
REMARK       I    between atoms: C4_5  and  N2_7 
REMARK    3  A    between atoms: N2_7  and  N3_9 
ROOT
HETATM    1  N1  UNL     1      18.165   4.107  12.285  1.00  0.00    -0.375 NA
HETATM    2  C4  UNL     1      17.172   3.511  13.009  1.00  0.00     0.408 C 
HETATM    3  O1  UNL     1      16.405   2.581  12.692  1.00  0.00    -0.229 OA
HETATM    4  N2  UNL     1      16.909   3.998  14.385  1.00  0.00    -0.238 N 
ATOM      5  H2  UNL     1      17.474   4.769  14.740  1.00  0.00     0.193 HD
ENDROOT
BRANCH   1   6
HETATM    6  C2  UNL     1      19.164   4.700  11.548  1.00  0.00     0.188 C 
HETATM    7  C1  UNL     1      19.965   5.756  12.345  1.00  0.00     0.064 C 
HETATM    8  C3  UNL     1      20.201   3.785  10.928  1.00  0.00     0.064 C 
BRANCH   6   9
HETATM    9  C9  UNL     1      18.591   5.560  10.383  1.00  0.00     0.424 C 
HETATM   10  F1  UNL     1      17.312   5.200  10.077  1.00  0.00    -0.167 F 
HETATM   11  F2  UNL     1      19.353   5.247   9.274  1.00  0.00    -0.167 F 
HETATM   12  F3  UNL     1      18.755   6.880  10.732  1.00  0.00    -0.167 F 
ENDBRANCH   6   9
ENDBRANCH   1   6
BRANCH   4  13
HETATM   13  N3  UNL     1      15.959   3.472  15.196  1.00  0.00    -0.298 N 
HETATM   14  C5  UNL     1      16.359   2.373  16.005  1.00  0.00     0.174 C 
HETATM   15  C6  UNL     1      15.529   2.233  17.254  1.00  0.00     0.189 C 
HETATM   16  O2  UNL     1      14.181   2.372  16.899  1.00  0.00    -0.384 OA
HETATM   17  C7  UNL     1      13.906   3.683  16.530  1.00  0.00     0.213 C 
HETATM   18  C8  UNL     1      14.960   4.321  15.683  1.00  0.00     0.109 C 
ENDBRANCH   4  13
TORSDOF 3
ENDMDL
MODEL 5
REMARK VINA RESULT: -6.017658434      4.837      5.410
REMARK  3 active torsions:
REMARK  status: ('A' for Active; 'I' for Inactive)
REMARK    1  A    between atoms: C2_2  and  N1_4 
REMARK    2  A    between atoms: C2_2  and  C9_15 
REMARK       I    between atoms: N1_4  and  C4_5 
REMARK       I    between atoms: C4_5  and  N2_7 
REMARK    3  A    between atoms: N2_7  and  N3_9 
ROOT
HETATM    1  N1  UNL     1      15.961   7.970  12.613  1.00  0.00    -0.375 NA
HETATM    2  C4  UNL     1      16.284   7.207  13.698  1.00  0.00     0.408 C 
HETATM    3  O1  UNL     1      16.985   7.490  14.689  1.00  0.00    -0.229 OA
HETATM    4  N2  UNL     1      15.760   5.822  13.772  1.00  0.00    -0.238 N 
ATOM      5  H2  UNL     1      15.183   5.482  13.002  1.00  0.00     0.193 HD
ENDROOT
BRANCH   1   6
HETATM    6  C2  UNL     1      15.641   8.747  11.523  1.00  0.00     0.188 C 
HETATM    7  C1  UNL     1      16.529  10.008  11.392  1.00  0.00     0.064 C 
HETATM    8  C3  UNL     1      15.678   8.079  10.163  1.00  0.00     0.064 C 
BRANCH   6   9
HETATM    9  C9  UNL     1      14.224   9.379  11.659  1.00  0.00     0.424 C 
HETATM   10  F1  UNL     1      13.505   8.786  12.655  1.00  0.00    -0.167 F 
HETATM   11  F2  UNL     1      13.566   9.083  10.482  1.00  0.00    -0.167 F 
HETATM   12  F3  UNL     1      14.395  10.736  11.796  1.00  0.00    -0.167 F 
ENDBRANCH   6   9
ENDBRANCH   1   6
BRANCH   4  13
HETATM   13  N3  UNL     1      16.006   4.982  14.806  1.00  0.00    -0.298 N 
HETATM   14  C5  UNL     1      14.909   4.705  15.667  1.00  0.00     0.174 C 
HETATM   15  C6  UNL     1      15.039   3.381  16.375  1.00  0.00     0.189 C 
HETATM   16  O2  UNL     1      16.345   3.279  16.870  1.00  0.00    -0.384 OA
HETATM   17  C7  UNL     1      17.252   3.127  15.828  1.00  0.00     0.213 C 
HETATM   18  C8  UNL     1      16.980   3.993  14.640  1.00  0.00     0.109 C 
ENDBRANCH   4  13
TORSDOF 3
ENDMDL
