MODEL 1
REMARK VINA RESULT: -6.185004830      0.000      0.000
REMARK  4 active torsions:
REMARK  status: ('A' for Active; 'I' for Inactive)
REMARK    1  A    between atoms: C5_8  and  C6_9 
REMARK    2  A    between atoms: C6_9  and  O2_10 
REMARK    3  A    between atoms: C8_13  and  O3_14 
REMARK    4  A    between atoms: C9_16  and  C10_17 
ROOT
HETATM    1  C1  UNL     1      19.203   5.498  12.745  1.00  0.00     0.011 C 
HETATM    2  C2  UNL     1      17.738   5.338  12.395  1.00  0.00    -0.006 C 
HETATM    3  C3  UNL     1      17.388   3.934  12.011  1.00  0.00     0.060 C 
HETATM    4  C4  UNL     1      16.945   3.121  13.171  1.00  0.00     0.019 C 
HETATM    5  N1  UNL     1      16.952   1.867  13.334  1.00  0.00    -0.274 N 
ATOM      6  H1  UNL     1      17.286   1.200  12.637  1.00  0.00     0.193 HD
HETATM    7  O1  UNL     1      16.447   1.509  14.580  1.00  0.00    -0.272 OA
HETATM    8  C5  UNL     1      16.814   2.640  15.389  1.00  0.00     0.188 C 
HETATM    9  C7  UNL     1      16.380   3.711  14.412  1.00  0.00     0.096 C 
HETATM   10  C8  UNL     1      16.957   5.059  14.740  1.00  0.00     0.136 C 
HETATM   11  C9  UNL     1      16.840   5.885  13.479  1.00  0.00     0.033 C 
ENDROOT
BRANCH   8  12
HETATM   12  C6  UNL     1      16.050   2.676  16.673  1.00  0.00     0.199 C 
BRANCH  12  13
HETATM   13  O2  UNL     1      15.345   1.508  16.837  1.00  0.00    -0.398 OA
ATOM     14  H2  UNL     1      14.857   1.307  16.048  1.00  0.00     0.209 HD
ENDBRANCH  12  13
ENDBRANCH   8  12
BRANCH  10  15
HETATM   15  O3  UNL     1      18.248   4.943  15.201  1.00  0.00    -0.394 OA
ATOM     16  H3  UNL     1      18.422   5.577  15.887  1.00  0.00     0.210 HD
ENDBRANCH  10  15
BRANCH  11  17
HETATM   17  C10 UNL     1      17.029   7.337  13.702  1.00  0.00     0.122 C 
HETATM   18 CL1  UNL     1      16.068   8.242  12.515  1.00  0.00    -0.130 Cl
ENDBRANCH  11  17
TORSDOF 4
ENDMDL
MODEL 2
REMARK VINA RESULT: -6.132723180      2.981      4.109
REMARK  4 active torsions:
REMARK  status: ('A' for Active; 'I' for Inactive)
REMARK    1  A    between atoms: C5_8  and  C6_9 
REMARK    2  A    between atoms: C6_9  and  O2_10 
REMARK    3  A    between atoms: C8_13  and  O3_14 
REMARK    4  A    between atoms: C9_16  and  C10_17 
ROOT
HETATM    1  C1  UNL     1      18.224   5.609  14.855  1.00  0.00     0.011 C 
HETATM    2  C2  UNL     1      16.787   5.798  14.412  1.00  0.00    -0.006 C 
HETATM    3  C3  UNL     1      16.681   6.406  13.049  1.00  0.00     0.060 C 
HETATM    4  C4  UNL     1      16.618   5.383  11.974  1.00  0.00     0.019 C 
HETATM    5  N1  UNL     1      16.915   5.474  10.748  1.00  0.00    -0.274 N 
ATOM      6  H1  UNL     1      17.260   6.325  10.304  1.00  0.00     0.193 HD
HETATM    7  O1  UNL     1      16.711   4.270  10.080  1.00  0.00    -0.272 OA
HETATM    8  C5  UNL     1      16.963   3.306  11.117  1.00  0.00     0.188 C 
HETATM    9  C7  UNL     1      16.157   3.989  12.201  1.00  0.00     0.096 C 
HETATM   10  C8  UNL     1      16.485   3.476  13.574  1.00  0.00     0.136 C 
HETATM   11  C9  UNL     1      15.988   4.523  14.545  1.00  0.00     0.033 C 
ENDROOT
BRANCH   8  12
HETATM   12  C6  UNL     1      16.433   1.955  10.759  1.00  0.00     0.199 C 
BRANCH  12  13
HETATM   13  O2  UNL     1      15.946   1.963   9.475  1.00  0.00    -0.398 OA
ATOM     14  H2  UNL     1      15.347   1.237   9.348  1.00  0.00     0.209 HD
ENDBRANCH  12  13
ENDBRANCH   8  12
BRANCH  10  15
HETATM   15  O3  UNL     1      17.829   3.212  13.693  1.00  0.00    -0.394 OA
ATOM     16  H3  UNL     1      18.017   2.766  14.511  1.00  0.00     0.210 HD
ENDBRANCH  10  15
BRANCH  11  17
HETATM   17  C10 UNL     1      15.903   4.043  15.943  1.00  0.00     0.122 C 
HETATM   18 CL1  UNL     1      14.217   4.137  16.493  1.00  0.00    -0.130 Cl
ENDBRANCH  11  17
TORSDOF 4
ENDMDL
MODEL 3
REMARK VINA RESULT: -5.972923567      2.088      3.389
REMARK  4 active torsions:
REMARK  status: ('A' for Active; 'I' for Inactive)
REMARK    1  A    between atoms: C5_8  and  C6_9 
REMARK    2  A    between atoms: C6_9  and  O2_10 
REMARK    3  A    between atoms: C8_13  and  O3_14 
REMARK    4  A    between atoms: C9_16  and  C10_17 
ROOT
HETATM    1  C1  UNL     1      15.297   5.908  14.605  1.00  0.00     0.011 C 
HETATM    2  C2  UNL     1      16.759   5.526  14.716  1.00  0.00    -0.006 C 
HETATM    3  C3  UNL     1      16.952   4.150  15.272  1.00  0.00     0.060 C 
HETATM    4  C4  UNL     1      17.016   3.112  14.212  1.00  0.00     0.019 C 
HETATM    5  N1  UNL     1      16.778   1.871  14.275  1.00  0.00    -0.274 N 
ATOM      6  H1  UNL     1      16.491   1.385  15.125  1.00  0.00     0.193 HD
HETATM    7  O1  UNL     1      16.956   1.252  13.041  1.00  0.00    -0.272 OA
HETATM    8  C5  UNL     1      16.616   2.307  12.125  1.00  0.00     0.188 C 
HETATM    9  C7  UNL     1      17.403   3.403  12.808  1.00  0.00     0.096 C 
HETATM   10  C8  UNL     1      16.992   4.776  12.356  1.00  0.00     0.136 C 
HETATM   11  C9  UNL     1      17.493   5.735  13.413  1.00  0.00     0.033 C 
ENDROOT
BRANCH   8  12
HETATM   12  C6  UNL     1      17.099   2.016  10.740  1.00  0.00     0.199 C 
BRANCH  12  13
HETATM   13  O2  UNL     1      16.067   2.144   9.843  1.00  0.00    -0.398 OA
ATOM     14  H2  UNL     1      15.312   1.650  10.139  1.00  0.00     0.209 HD
ENDBRANCH  12  13
ENDBRANCH   8  12
BRANCH  10  15
HETATM   15  O3  UNL     1      15.633   4.842  12.155  1.00  0.00    -0.394 OA
ATOM     16  H3  UNL     1      15.362   5.729  11.949  1.00  0.00     0.210 HD
ENDBRANCH  10  15
BRANCH  11  17
HETATM   17  C10 UNL     1      17.494   7.150  12.976  1.00  0.00     0.122 C 
HETATM   18 CL1  UNL     1      18.060   8.174  14.312  1.00  0.00    -0.130 Cl
ENDBRANCH  11  17
TORSDOF 4
ENDMDL
MODEL 4
REMARK VINA RESULT: -5.856481149      2.647      3.809
REMARK  4 active torsions:
REMARK  status: ('A' for Active; 'I' for Inactive)
REMARK    1  A    between atoms: C5_8  and  C6_9 
REMARK    2  A    between atoms: C6_9  and  O2_10 
REMARK    3  A    between atoms: C8_13  and  O3_14 
REMARK    4  A    between atoms: C9_16  and  C10_17 
ROOT
HETATM    1  C1  UNL     1      18.234   5.453  14.852  1.00  0.00     0.011 C 
HETATM    2  C2  UNL     1      17.498   5.910  13.609  1.00  0.00    -0.006 C 
HETATM    3  C3  UNL     1      18.398   6.023  12.418  1.00  0.00     0.060 C 
HETATM    4  C4  UNL     1      18.452   4.769  11.625  1.00  0.00     0.019 C 
HETATM    5  N1  UNL     1      19.344   4.346  10.835  1.00  0.00    -0.274 N 
ATOM      6  H1  UNL     1      20.206   4.849  10.621  1.00  0.00     0.193 HD
HETATM    7  O1  UNL     1      19.004   3.110  10.292  1.00  0.00    -0.272 OA
HETATM    8  C5  UNL     1      18.221   2.525  11.347  1.00  0.00     0.188 C 
HETATM    9  C7  UNL     1      17.376   3.745  11.645  1.00  0.00     0.096 C 
HETATM   10  C8  UNL     1      16.676   3.651  12.971  1.00  0.00     0.136 C 
HETATM   11  C9  UNL     1      16.278   5.063  13.338  1.00  0.00     0.033 C 
ENDROOT
BRANCH   8  12
HETATM   12  C6  UNL     1      17.417   1.362  10.861  1.00  0.00     0.199 C 
BRANCH  12  13
HETATM   13  O2  UNL     1      17.510   1.260   9.495  1.00  0.00    -0.398 OA
ATOM     14  H2  UNL     1      17.505   0.347   9.234  1.00  0.00     0.209 HD
ENDBRANCH  12  13
ENDBRANCH   8  12
BRANCH  10  15
HETATM   15  O3  UNL     1      17.478   3.047  13.910  1.00  0.00    -0.394 OA
ATOM     16  H3  UNL     1      18.137   2.503  13.495  1.00  0.00     0.210 HD
ENDBRANCH  10  15
BRANCH  11  17
HETATM   17  C10 UNL     1      15.278   5.133  14.427  1.00  0.00     0.122 C 
HETATM   18 CL1  UNL     1      14.867   6.832  14.737  1.00  0.00    -0.130 Cl
ENDBRANCH  11  17
TORSDOF 4
ENDMDL
MODEL 5
REMARK VINA RESULT: -5.760578105      1.377      1.459
REMARK  4 active torsions:
REMARK  status: ('A' for Active; 'I' for Inactive)
REMARK    1  A    between atoms: C5_8  and  C6_9 
REMARK    2  A    between atoms: C6_9  and  O2_10 
REMARK    3  A    between atoms: C8_13  and  O3_14 
REMARK    4  A    between atoms: C9_16  and  C10_17 
ROOT
HETATM    1  C1  UNL     1      18.584   6.111  11.706  1.00  0.00     0.011 C 
HETATM    2  C2  UNL     1      17.099   5.824  11.614  1.00  0.00    -0.006 C 
HETATM    3  C3  UNL     1      16.808   4.495  10.990  1.00  0.00     0.060 C 
HETATM    4  C4  UNL     1      16.706   3.406  11.995  1.00  0.00     0.019 C 
HETATM    5  N1  UNL     1      16.865   2.159  11.859  1.00  0.00    -0.274 N 
ATOM      6  H1  UNL     1      17.101   1.704  10.977  1.00  0.00     0.193 HD
HETATM    7  O1  UNL     1      16.678   1.484  13.062  1.00  0.00    -0.272 OA
HETATM    8  C5  UNL     1      17.105   2.464  14.024  1.00  0.00     0.188 C 
HETATM    9  C7  UNL     1      16.370   3.643  13.422  1.00  0.00     0.096 C 
HETATM   10  C8  UNL     1      16.876   4.961  13.936  1.00  0.00     0.136 C 
HETATM   11  C9  UNL     1      16.411   6.005  12.946  1.00  0.00     0.033 C 
ENDROOT
BRANCH   8  12
HETATM   12  C6  UNL     1      16.638   2.127  15.403  1.00  0.00     0.199 C 
BRANCH  12  13
HETATM   13  O2  UNL     1      17.566   2.533  16.330  1.00  0.00    -0.398 OA
ATOM     14  H2  UNL     1      17.778   1.816  16.916  1.00  0.00     0.209 HD
ENDBRANCH  12  13
ENDBRANCH   8  12
BRANCH  10  15
HETATM   15  O3  UNL     1      18.241   4.933  14.103  1.00  0.00    -0.394 OA
ATOM     16  H3  UNL     1      18.487   5.285  14.950  1.00  0.00     0.210 HD
ENDBRANCH  10  15
BRANCH  11  17
HETATM   17  C10 UNL     1      16.507   7.391  13.458  1.00  0.00     0.122 C 
HETATM   18 CL1  UNL     1      15.614   7.515  14.987  1.00  0.00    -0.130 Cl
ENDBRANCH  11  17
TORSDOF 4
ENDMDL
