MODEL 1
REMARK VINA RESULT: -6.360085243      0.000      0.000
REMARK  7 active torsions:
REMARK  status: ('A' for Active; 'I' for Inactive)
REMARK    1  A    between atoms: C6_10  and  C7_11 
REMARK       I    between atoms: C7_11  and  N3_13 
REMARK    2  A    between atoms: N3_13  and  C8_15 
REMARK    3  A    between atoms: C11_20  and  C12_21 
REMARK    4  A    between atoms: C12_21  and  N4_23 
REMARK    5  A    between atoms: N4_23  and  C14_24 
REMARK    6  A    between atoms: N4_23  and  C17_27 
REMARK    7  A    between atoms: C17_27  and  C19_29 
ROOT
HETATM    1  C8  UNL     1      17.272 -17.783  23.764  1.00  0.00     0.088 A 
HETATM    2  S1  UNL     1      17.222 -19.389  23.200  1.00  0.00    -0.080 SA
HETATM    3  C9  UNL     1      18.329 -20.088  24.260  1.00  0.00     0.094 A 
HETATM    4  C10 UNL     1      18.731 -19.034  25.052  1.00  0.00     0.134 A 
HETATM    5  F1  UNL     1      19.735 -19.340  25.979  1.00  0.00    -0.205 F 
HETATM    6  C11 UNL     1      18.189 -17.815  24.813  1.00  0.00     0.048 A 
ENDROOT
BRANCH   1   7
HETATM    7  N3  UNL     1      16.459 -16.716  23.293  1.00  0.00    -0.316 N 
HETATM    8  C7  UNL     1      16.640 -16.269  21.947  1.00  0.00     0.258 C 
HETATM    9  O2  UNL     1      17.521 -16.808  21.236  1.00  0.00    -0.267 OA
ATOM     10  H3  UNL     1      15.765 -16.279  23.900  1.00  0.00     0.169 HD
BRANCH   8  11
HETATM   11  C6  UNL     1      15.833 -15.216  21.368  1.00  0.00     0.061 A 
HETATM   12  C2  UNL     1      14.540 -15.428  20.983  1.00  0.00     0.038 A 
HETATM   13  C1  UNL     1      13.910 -16.769  21.093  1.00  0.00     0.070 C 
HETATM   14  N1  UNL     1      13.814 -14.398  20.490  1.00  0.00    -0.300 N 
HETATM   15  N2  UNL     1      14.313 -13.192  20.365  1.00  0.00    -0.262 N 
ATOM     16  H1  UNL     1      12.849 -14.565  20.206  1.00  0.00     0.187 HD
HETATM   17  C3  UNL     1      13.457 -12.148  19.843  1.00  0.00     0.181 C 
HETATM   18  C4  UNL     1      15.585 -12.947  20.733  1.00  0.00     0.262 A 
HETATM   19  O1  UNL     1      16.000 -11.773  20.587  1.00  0.00    -0.267 OA
HETATM   20  C5  UNL     1      16.382 -13.952  21.246  1.00  0.00     0.095 A 
ENDBRANCH   8  11
ENDBRANCH   1   7
BRANCH   6  21
HETATM   21  C12 UNL     1      18.619 -16.525  25.499  1.00  0.00     0.259 C 
HETATM   22  C13 UNL     1      18.372 -16.537  26.957  1.00  0.00     0.048 C 
BRANCH  21  23
HETATM   23  N4  UNL     1      20.012 -16.263  25.159  1.00  0.00     0.115 N 
BRANCH  23  24
HETATM   24  C14 UNL     1      20.916 -16.108  26.230  1.00  0.00     0.217 C 
HETATM   25  C15 UNL     1      21.223 -14.773  26.814  1.00  0.00     0.042 C 
HETATM   26  C16 UNL     1      22.082 -17.049  26.328  1.00  0.00     0.042 C 
ENDBRANCH  23  24
BRANCH  23  27
HETATM   27  C17 UNL     1      20.102 -15.127  24.262  1.00  0.00     0.320 C 
HETATM   28  C18 UNL     1      18.751 -14.385  24.218  1.00  0.00     0.055 C 
BRANCH  27  29
HETATM   29  C19 UNL     1      20.297 -15.484  22.848  1.00  0.00     0.207 C 
HETATM   30  O3  UNL     1      20.582 -16.686  22.498  1.00  0.00    -0.646 OA
HETATM   31  O4  UNL     1      20.207 -14.598  21.800  1.00  0.00    -0.646 OA
ENDBRANCH  27  29
ENDBRANCH  23  27
ENDBRANCH  21  23
ENDBRANCH   6  21
TORSDOF 7
ENDMDL
MODEL 2
REMARK VINA RESULT: -6.357690428      1.602      1.647
REMARK  7 active torsions:
REMARK  status: ('A' for Active; 'I' for Inactive)
REMARK    1  A    between atoms: C6_10  and  C7_11 
REMARK       I    between atoms: C7_11  and  N3_13 
REMARK    2  A    between atoms: N3_13  and  C8_15 
REMARK    3  A    between atoms: C11_20  and  C12_21 
REMARK    4  A    between atoms: C12_21  and  N4_23 
REMARK    5  A    between atoms: N4_23  and  C14_24 
REMARK    6  A    between atoms: N4_23  and  C17_27 
REMARK    7  A    between atoms: C17_27  and  C19_29 
ROOT
HETATM    1  C8  UNL     1      17.914 -17.892  22.409  1.00  0.00     0.088 A 
HETATM    2  S1  UNL     1      18.034 -19.562  22.099  1.00  0.00    -0.080 SA
HETATM    3  C9  UNL     1      18.120 -20.130  23.683  1.00  0.00     0.094 A 
HETATM    4  C10 UNL     1      18.055 -18.983  24.444  1.00  0.00     0.134 A 
HETATM    5  F1  UNL     1      18.196 -19.181  25.823  1.00  0.00    -0.205 F 
HETATM    6  C11 UNL     1      17.945 -17.796  23.799  1.00  0.00     0.048 A 
ENDROOT
BRANCH   1   7
HETATM    7  N3  UNL     1      17.726 -16.880  21.428  1.00  0.00    -0.316 N 
HETATM    8  C7  UNL     1      16.388 -16.521  21.073  1.00  0.00     0.258 C 
HETATM    9  O2  UNL     1      15.429 -17.122  21.611  1.00  0.00    -0.267 OA
ATOM     10  H3  UNL     1      18.524 -16.422  20.988  1.00  0.00     0.169 HD
BRANCH   8  11
HETATM   11  C6  UNL     1      16.099 -15.476  20.114  1.00  0.00     0.061 A 
HETATM   12  C2  UNL     1      15.555 -15.749  18.891  1.00  0.00     0.038 A 
HETATM   13  C1  UNL     1      15.277 -17.144  18.463  1.00  0.00     0.070 C 
HETATM   14  N1  UNL     1      15.263 -14.730  18.049  1.00  0.00    -0.300 N 
HETATM   15  N2  UNL     1      15.487 -13.479  18.367  1.00  0.00    -0.262 N 
ATOM     16  H1  UNL     1      14.855 -14.944  17.139  1.00  0.00     0.187 HD
HETATM   17  C3  UNL     1      15.127 -12.455  17.409  1.00  0.00     0.181 C 
HETATM   18  C4  UNL     1      16.025 -13.172  19.563  1.00  0.00     0.262 A 
HETATM   19  O1  UNL     1      16.214 -11.957  19.804  1.00  0.00    -0.267 OA
HETATM   20  C5  UNL     1      16.346 -14.162  20.472  1.00  0.00     0.095 A 
ENDBRANCH   8  11
ENDBRANCH   1   7
BRANCH   6  21
HETATM   21  C12 UNL     1      17.999 -16.433  24.477  1.00  0.00     0.259 C 
HETATM   22  C13 UNL     1      17.239 -16.390  25.745  1.00  0.00     0.048 C 
BRANCH  21  23
HETATM   23  N4  UNL     1      19.397 -16.050  24.635  1.00  0.00     0.115 N 
BRANCH  23  24
HETATM   24  C14 UNL     1      19.943 -16.141  25.932  1.00  0.00     0.217 C 
HETATM   25  C15 UNL     1      20.228 -14.931  26.752  1.00  0.00     0.042 C 
HETATM   26  C16 UNL     1      20.892 -17.265  26.235  1.00  0.00     0.042 C 
ENDBRANCH  23  24
BRANCH  23  27
HETATM   27  C17 UNL     1      19.615 -14.723  24.092  1.00  0.00     0.320 C 
HETATM   28  C18 UNL     1      18.321 -14.206  23.434  1.00  0.00     0.055 C 
BRANCH  27  29
HETATM   29  C19 UNL     1      20.565 -14.677  22.970  1.00  0.00     0.207 C 
HETATM   30  O3  UNL     1      21.806 -14.410  23.158  1.00  0.00    -0.646 OA
HETATM   31  O4  UNL     1      20.229 -14.895  21.655  1.00  0.00    -0.646 OA
ENDBRANCH  27  29
ENDBRANCH  23  27
ENDBRANCH  21  23
ENDBRANCH   6  21
TORSDOF 7
ENDMDL
MODEL 3
REMARK VINA RESULT: -6.329138477      4.347      5.967
REMARK  7 active torsions:
REMARK  status: ('A' for Active; 'I' for Inactive)
REMARK    1  A    between atoms: C6_10  and  C7_11 
REMARK       I    between atoms: C7_11  and  N3_13 
REMARK    2  A    between atoms: N3_13  and  C8_15 
REMARK    3  A    between atoms: C11_20  and  C12_21 
REMARK    4  A    between atoms: C12_21  and  N4_23 
REMARK    5  A    between atoms: N4_23  and  C14_24 
REMARK    6  A    between atoms: N4_23  and  C17_27 
REMARK    7  A    between atoms: C17_27  and  C19_29 
ROOT
HETATM    1  C8  UNL     1      12.512 -16.619  21.422  1.00  0.00     0.088 A 
HETATM    2  S1  UNL     1      11.156 -17.156  20.542  1.00  0.00    -0.080 SA
HETATM    3  C9  UNL     1      11.719 -18.670  20.066  1.00  0.00     0.094 A 
HETATM    4  C10 UNL     1      12.984 -18.733  20.610  1.00  0.00     0.134 A 
HETATM    5  F1  UNL     1      13.713 -19.883  20.281  1.00  0.00    -0.205 F 
HETATM    6  C11 UNL     1      13.422 -17.670  21.328  1.00  0.00     0.048 A 
ENDROOT
BRANCH   1   7
HETATM    7  N3  UNL     1      12.595 -15.401  22.151  1.00  0.00    -0.316 N 
HETATM    8  C7  UNL     1      12.335 -14.177  21.458  1.00  0.00     0.258 C 
HETATM    9  O2  UNL     1      12.071 -14.211  20.233  1.00  0.00    -0.267 OA
ATOM     10  H3  UNL     1      12.835 -15.400  23.143  1.00  0.00     0.169 HD
BRANCH   8  11
HETATM   11  C6  UNL     1      12.358 -12.893  22.126  1.00  0.00     0.061 A 
HETATM   12  C2  UNL     1      13.282 -11.936  21.817  1.00  0.00     0.038 A 
HETATM   13  C1  UNL     1      14.346 -12.184  20.811  1.00  0.00     0.070 C 
HETATM   14  N1  UNL     1      13.231 -10.736  22.441  1.00  0.00    -0.300 N 
HETATM   15  N2  UNL     1      12.320 -10.456  23.340  1.00  0.00    -0.262 N 
ATOM     16  H1  UNL     1      13.924 -10.026  22.203  1.00  0.00     0.187 HD
HETATM   17  C3  UNL     1      12.333  -9.140  23.942  1.00  0.00     0.181 C 
HETATM   18  C4  UNL     1      11.394 -11.377  23.671  1.00  0.00     0.262 A 
HETATM   19  O1  UNL     1      10.551 -11.046  24.538  1.00  0.00    -0.267 OA
HETATM   20  C5  UNL     1      11.386 -12.622  23.073  1.00  0.00     0.095 A 
ENDBRANCH   8  11
ENDBRANCH   1   7
BRANCH   6  21
HETATM   21  C12 UNL     1      14.834 -17.518  21.879  1.00  0.00     0.259 C 
HETATM   22  C13 UNL     1      15.149 -18.503  22.936  1.00  0.00     0.048 C 
BRANCH  21  23
HETATM   23  N4  UNL     1      15.772 -17.559  20.763  1.00  0.00     0.115 N 
BRANCH  23  24
HETATM   24  C14 UNL     1      16.788 -18.536  20.815  1.00  0.00     0.217 C 
HETATM   25  C15 UNL     1      18.143 -18.235  21.352  1.00  0.00     0.042 C 
HETATM   26  C16 UNL     1      16.825 -19.590  19.746  1.00  0.00     0.042 C 
ENDBRANCH  23  24
BRANCH  23  27
HETATM   27  C17 UNL     1      16.352 -16.247  20.551  1.00  0.00     0.320 C 
HETATM   28  C18 UNL     1      16.018 -15.326  21.742  1.00  0.00     0.055 C 
BRANCH  27  29
HETATM   29  C19 UNL     1      15.773 -15.503  19.422  1.00  0.00     0.207 C 
HETATM   30  O3  UNL     1      16.303 -14.412  19.001  1.00  0.00    -0.646 OA
HETATM   31  O4  UNL     1      14.643 -15.881  18.737  1.00  0.00    -0.646 OA
ENDBRANCH  27  29
ENDBRANCH  23  27
ENDBRANCH  21  23
ENDBRANCH   6  21
TORSDOF 7
ENDMDL
MODEL 4
REMARK VINA RESULT: -6.263083735      2.706      7.218
REMARK  7 active torsions:
REMARK  status: ('A' for Active; 'I' for Inactive)
REMARK    1  A    between atoms: C6_10  and  C7_11 
REMARK       I    between atoms: C7_11  and  N3_13 
REMARK    2  A    between atoms: N3_13  and  C8_15 
REMARK    3  A    between atoms: C11_20  and  C12_21 
REMARK    4  A    between atoms: C12_21  and  N4_23 
REMARK    5  A    between atoms: N4_23  and  C14_24 
REMARK    6  A    between atoms: N4_23  and  C17_27 
REMARK    7  A    between atoms: C17_27  and  C19_29 
ROOT
HETATM    1  C8  UNL     1      15.897 -16.619  21.296  1.00  0.00     0.088 A 
HETATM    2  S1  UNL     1      15.317 -18.217  21.216  1.00  0.00    -0.080 SA
HETATM    3  C9  UNL     1      14.819 -18.249  19.607  1.00  0.00     0.094 A 
HETATM    4  C10 UNL     1      15.118 -16.983  19.149  1.00  0.00     0.134 A 
HETATM    5  F1  UNL     1      14.715 -16.720  17.834  1.00  0.00    -0.205 F 
HETATM    6  C11 UNL     1      15.686 -16.110  20.016  1.00  0.00     0.048 A 
ENDROOT
BRANCH   1   7
HETATM    7  N3  UNL     1      16.536 -16.027  22.420  1.00  0.00    -0.316 N 
HETATM    8  C7  UNL     1      17.903 -16.360  22.677  1.00  0.00     0.258 C 
HETATM    9  O2  UNL     1      18.485 -17.178  21.926  1.00  0.00    -0.267 OA
ATOM     10  H3  UNL     1      16.032 -15.381  23.029  1.00  0.00     0.169 HD
BRANCH   8  11
HETATM   11  C6  UNL     1      18.646 -15.776  23.774  1.00  0.00     0.061 A 
HETATM   12  C2  UNL     1      19.527 -14.751  23.583  1.00  0.00     0.038 A 
HETATM   13  C1  UNL     1      19.807 -14.214  22.226  1.00  0.00     0.070 C 
HETATM   14  N1  UNL     1      20.163 -14.212  24.649  1.00  0.00    -0.300 N 
HETATM   15  N2  UNL     1      19.962 -14.643  25.870  1.00  0.00    -0.262 N 
ATOM     16  H1  UNL     1      20.819 -13.445  24.497  1.00  0.00     0.187 HD
HETATM   17  C3  UNL     1      20.674 -13.994  26.951  1.00  0.00     0.181 C 
HETATM   18  C4  UNL     1      19.101 -15.654  26.096  1.00  0.00     0.262 A 
HETATM   19  O1  UNL     1      18.956 -16.019  27.286  1.00  0.00    -0.267 OA
HETATM   20  C5  UNL     1      18.418 -16.250  25.053  1.00  0.00     0.095 A 
ENDBRANCH   8  11
ENDBRANCH   1   7
BRANCH   6  21
HETATM   21  C12 UNL     1      15.953 -14.641  19.717  1.00  0.00     0.259 C 
HETATM   22  C13 UNL     1      16.289 -14.393  18.298  1.00  0.00     0.048 C 
BRANCH  21  23
HETATM   23  N4  UNL     1      14.811 -13.860  20.177  1.00  0.00     0.115 N 
BRANCH  23  24
HETATM   24  C14 UNL     1      13.715 -13.746  19.296  1.00  0.00     0.217 C 
HETATM   25  C15 UNL     1      13.494 -12.528  18.470  1.00  0.00     0.042 C 
HETATM   26  C16 UNL     1      12.426 -14.423  19.662  1.00  0.00     0.042 C 
ENDBRANCH  23  24
BRANCH  23  27
HETATM   27  C17 UNL     1      15.246 -12.545  20.607  1.00  0.00     0.320 C 
HETATM   28  C18 UNL     1      16.532 -12.666  21.447  1.00  0.00     0.055 C 
BRANCH  27  29
HETATM   29  C19 UNL     1      14.331 -11.882  21.549  1.00  0.00     0.207 C 
HETATM   30  O3  UNL     1      14.163 -10.609  21.530  1.00  0.00    -0.646 OA
HETATM   31  O4  UNL     1      13.600 -12.532  22.515  1.00  0.00    -0.646 OA
ENDBRANCH  27  29
ENDBRANCH  23  27
ENDBRANCH  21  23
ENDBRANCH   6  21
TORSDOF 7
ENDMDL
MODEL 5
REMARK VINA RESULT: -6.241042389      3.360      7.417
REMARK  7 active torsions:
REMARK  status: ('A' for Active; 'I' for Inactive)
REMARK    1  A    between atoms: C6_10  and  C7_11 
REMARK       I    between atoms: C7_11  and  N3_13 
REMARK    2  A    between atoms: N3_13  and  C8_15 
REMARK    3  A    between atoms: C11_20  and  C12_21 
REMARK    4  A    between atoms: C12_21  and  N4_23 
REMARK    5  A    between atoms: N4_23  and  C14_24 
REMARK    6  A    between atoms: N4_23  and  C17_27 
REMARK    7  A    between atoms: C17_27  and  C19_29 
ROOT
HETATM    1  C8  UNL     1      16.933 -14.923  21.193  1.00  0.00     0.088 A 
HETATM    2  S1  UNL     1      18.476 -14.233  21.400  1.00  0.00    -0.080 SA
HETATM    3  C9  UNL     1      18.531 -13.263  20.024  1.00  0.00     0.094 A 
HETATM    4  C10 UNL     1      17.319 -13.500  19.410  1.00  0.00     0.134 A 
HETATM    5  F1  UNL     1      17.149 -12.864  18.175  1.00  0.00    -0.205 F 
HETATM    6  C11 UNL     1      16.463 -14.366  20.006  1.00  0.00     0.048 A 
ENDROOT
BRANCH   1   7
HETATM    7  N3  UNL     1      16.285 -15.791  22.115  1.00  0.00    -0.316 N 
HETATM    8  C7  UNL     1      16.653 -17.173  22.119  1.00  0.00     0.258 C 
HETATM    9  O2  UNL     1      17.508 -17.581  21.298  1.00  0.00    -0.267 OA
ATOM     10  H3  UNL     1      15.576 -15.437  22.757  1.00  0.00     0.169 HD
BRANCH   8  11
HETATM   11  C6  UNL     1      16.076 -18.122  23.047  1.00  0.00     0.061 A 
HETATM   12  C2  UNL     1      16.632 -18.362  24.271  1.00  0.00     0.038 A 
HETATM   13  C1  UNL     1      17.891 -17.697  24.693  1.00  0.00     0.070 C 
HETATM   14  N1  UNL     1      16.027 -19.227  25.119  1.00  0.00    -0.300 N 
HETATM   15  N2  UNL     1      14.916 -19.848  24.805  1.00  0.00    -0.262 N 
ATOM     16  H1  UNL     1      16.448 -19.400  26.031  1.00  0.00     0.187 HD
HETATM   17  C3  UNL     1      14.332 -20.742  25.782  1.00  0.00     0.181 C 
HETATM   18  C4  UNL     1      14.341 -19.636  23.605  1.00  0.00     0.262 A 
HETATM   19  O1  UNL     1      13.281 -20.262  23.368  1.00  0.00    -0.267 OA
HETATM   20  C5  UNL     1      14.904 -18.766  22.691  1.00  0.00     0.095 A 
ENDBRANCH   8  11
ENDBRANCH   1   7
BRANCH   6  21
HETATM   21  C12 UNL     1      15.150 -14.843  19.398  1.00  0.00     0.259 C 
HETATM   22  C13 UNL     1      15.227 -16.223  18.872  1.00  0.00     0.048 C 
BRANCH  21  23
HETATM   23  N4  UNL     1      14.092 -14.667  20.385  1.00  0.00     0.115 N 
BRANCH  23  24
HETATM   24  C14 UNL     1      13.098 -15.664  20.445  1.00  0.00     0.217 C 
HETATM   25  C15 UNL     1      11.938 -15.676  19.512  1.00  0.00     0.042 C 
HETATM   26  C16 UNL     1      12.753 -16.256  21.781  1.00  0.00     0.042 C 
ENDBRANCH  23  24
BRANCH  23  27
HETATM   27  C17 UNL     1      13.481 -13.360  20.234  1.00  0.00     0.320 C 
HETATM   28  C18 UNL     1      13.951 -12.710  18.917  1.00  0.00     0.055 C 
BRANCH  27  29
HETATM   29  C19 UNL     1      13.913 -12.369  21.231  1.00  0.00     0.207 C 
HETATM   30  O3  UNL     1      13.431 -12.367  22.421  1.00  0.00    -0.646 OA
HETATM   31  O4  UNL     1      14.834 -11.376  20.995  1.00  0.00    -0.646 OA
ENDBRANCH  27  29
ENDBRANCH  23  27
ENDBRANCH  21  23
ENDBRANCH   6  21
TORSDOF 7
ENDMDL
