MODEL 1
REMARK VINA RESULT: -7.724954830      0.000      0.000
REMARK  8 active torsions:
REMARK  status: ('A' for Active; 'I' for Inactive)
REMARK    1  A    between atoms: C2_2  and  C3_3 
REMARK    2  A    between atoms: C3_3  and  S1_4 
REMARK    3  A    between atoms: C3_3  and  C16_28 
REMARK    4  A    between atoms: S1_4  and  C4_5 
REMARK    5  A    between atoms: C4_5  and  C5_6 
REMARK    6  A    between atoms: C5_6  and  N3_11 
REMARK    7  A    between atoms: N3_11  and  N4_13 
REMARK    8  A    between atoms: C7_15  and  C8_16 
ROOT
HETATM    1  C5  UNL     1      14.823 -12.874  19.328  1.00  0.00     0.114 C 
HETATM    2  N1  UNL     1      15.131 -13.158  18.121  1.00  0.00    -0.281 N 
ATOM      3  H1  UNL     1      14.457 -13.681  17.563  1.00  0.00     0.179 HD
HETATM    4  C6  UNL     1      16.317 -12.799  17.532  1.00  0.00     0.183 C 
HETATM    5  N2  UNL     1      17.325 -12.514  17.024  1.00  0.00    -0.172 NA
ENDROOT
BRANCH   1   6
HETATM    6  C4  UNL     1      13.503 -13.330  19.826  1.00  0.00     0.153 C 
BRANCH   6   7
HETATM    7  S1  UNL     1      13.445 -13.468  21.604  1.00  0.00    -0.146 SA
BRANCH   7   8
HETATM    8  C3  UNL     1      12.628 -12.132  22.449  1.00  0.00     0.148 C 
BRANCH   8   9
HETATM    9  C2  UNL     1      11.258 -12.398  22.953  1.00  0.00     0.021 C 
HETATM   10  C1  UNL     1      10.892 -11.882  24.287  1.00  0.00     0.007 C 
ENDBRANCH   8   9
BRANCH   8  11
HETATM   11  C16 UNL     1      12.716 -10.836  21.698  1.00  0.00     0.187 C 
HETATM   12  O3  UNL     1      11.719 -10.279  21.181  1.00  0.00    -0.647 OA
HETATM   13  O4  UNL     1      13.938 -10.197  21.548  1.00  0.00    -0.647 OA
ENDBRANCH   8  11
ENDBRANCH   7   8
ENDBRANCH   6   7
ENDBRANCH   1   6
BRANCH   1  14
HETATM   14  N3  UNL     1      15.733 -12.150  20.132  1.00  0.00    -0.288 N 
ATOM     15  H3  UNL     1      15.846 -11.153  19.950  1.00  0.00     0.188 HD
BRANCH  14  16
HETATM   16  N4  UNL     1      16.483 -12.717  21.157  1.00  0.00    -0.310 N 
HETATM   17  C7  UNL     1      17.260 -13.710  21.026  1.00  0.00     0.120 C 
ATOM     18  H4  UNL     1      16.401 -12.303  22.085  1.00  0.00     0.186 HD
BRANCH  17  19
HETATM   19  C8  UNL     1      18.017 -14.242  22.176  1.00  0.00     0.007 A 
HETATM   20  C9  UNL     1      17.388 -14.865  23.231  1.00  0.00     0.054 A 
HETATM   21  C10 UNL     1      18.071 -15.370  24.318  1.00  0.00     0.104 A 
HETATM   22  C11 UNL     1      19.451 -15.259  24.373  1.00  0.00     0.125 A 
HETATM   23  O2  UNL     1      17.452 -15.996  25.384  1.00  0.00    -0.346 OA
HETATM   24  C12 UNL     1      20.068 -14.633  23.309  1.00  0.00     0.092 A 
HETATM   25  O1  UNL     1      20.165 -15.762  25.464  1.00  0.00    -0.344 OA
HETATM   26 CL1  UNL     1      21.829 -14.490  23.379  1.00  0.00    -0.079 Cl
HETATM   27  C13 UNL     1      19.395 -14.127  22.224  1.00  0.00     0.070 A 
HETATM   28 CL2  UNL     1      20.231 -13.346  20.906  1.00  0.00    -0.081 Cl
HETATM   29  C14 UNL     1      19.444 -15.799  26.701  1.00  0.00     0.202 C 
HETATM   30  C15 UNL     1      18.092 -16.432  26.545  1.00  0.00     0.202 C 
ENDBRANCH  17  19
ENDBRANCH  14  16
ENDBRANCH   1  14
TORSDOF 8
ENDMDL
MODEL 2
REMARK VINA RESULT: -7.681084787      2.514      3.101
REMARK  8 active torsions:
REMARK  status: ('A' for Active; 'I' for Inactive)
REMARK    1  A    between atoms: C2_2  and  C3_3 
REMARK    2  A    between atoms: C3_3  and  S1_4 
REMARK    3  A    between atoms: C3_3  and  C16_28 
REMARK    4  A    between atoms: S1_4  and  C4_5 
REMARK    5  A    between atoms: C4_5  and  C5_6 
REMARK    6  A    between atoms: C5_6  and  N3_11 
REMARK    7  A    between atoms: N3_11  and  N4_13 
REMARK    8  A    between atoms: C7_15  and  C8_16 
ROOT
HETATM    1  C5  UNL     1      12.650 -15.257  20.626  1.00  0.00     0.114 C 
HETATM    2  N1  UNL     1      12.435 -15.966  19.585  1.00  0.00    -0.281 N 
ATOM      3  H1  UNL     1      11.946 -15.533  18.801  1.00  0.00     0.179 HD
HETATM    4  C6  UNL     1      12.822 -17.276  19.462  1.00  0.00     0.183 C 
HETATM    5  N2  UNL     1      13.131 -18.393  19.348  1.00  0.00    -0.172 NA
ENDROOT
BRANCH   1   6
HETATM    6  C4  UNL     1      12.171 -13.853  20.612  1.00  0.00     0.153 C 
BRANCH   6   7
HETATM    7  S1  UNL     1      11.940 -13.187  22.252  1.00  0.00    -0.146 SA
BRANCH   7   8
HETATM    8  C3  UNL     1      12.708 -11.610  22.552  1.00  0.00     0.148 C 
BRANCH   8   9
HETATM    9  C2  UNL     1      11.892 -10.594  23.262  1.00  0.00     0.021 C 
HETATM   10  C1  UNL     1      11.180 -11.004  24.489  1.00  0.00     0.007 C 
ENDBRANCH   8   9
BRANCH   8  11
HETATM   11  C16 UNL     1      13.372 -11.051  21.328  1.00  0.00     0.187 C 
HETATM   12  O3  UNL     1      12.791 -10.276  20.531  1.00  0.00    -0.647 OA
HETATM   13  O4  UNL     1      14.685 -11.384  21.033  1.00  0.00    -0.647 OA
ENDBRANCH   8  11
ENDBRANCH   7   8
ENDBRANCH   6   7
ENDBRANCH   1   6
BRANCH   1  14
HETATM   14  N3  UNL     1      13.323 -15.823  21.733  1.00  0.00    -0.288 N 
ATOM     15  H3  UNL     1      12.776 -16.368  22.399  1.00  0.00     0.188 HD
BRANCH  14  16
HETATM   16  N4  UNL     1      14.685 -15.679  21.969  1.00  0.00    -0.310 N 
HETATM   17  C7  UNL     1      15.442 -14.847  21.383  1.00  0.00     0.120 C 
ATOM     18  H4  UNL     1      15.109 -16.290  22.667  1.00  0.00     0.186 HD
BRANCH  17  19
HETATM   19  C8  UNL     1      16.880 -14.768  21.702  1.00  0.00     0.007 A 
HETATM   20  C9  UNL     1      17.401 -15.333  22.846  1.00  0.00     0.054 A 
HETATM   21  C10 UNL     1      18.740 -15.273  23.169  1.00  0.00     0.104 A 
HETATM   22  C11 UNL     1      19.622 -14.621  22.321  1.00  0.00     0.125 A 
HETATM   23  O2  UNL     1      19.275 -15.835  24.313  1.00  0.00    -0.346 OA
HETATM   24  C12 UNL     1      19.086 -14.059  21.180  1.00  0.00     0.092 A 
HETATM   25  O1  UNL     1      20.983 -14.545  22.627  1.00  0.00    -0.344 OA
HETATM   26 CL1  UNL     1      20.210 -13.226  20.098  1.00  0.00    -0.079 Cl
HETATM   27  C13 UNL     1      17.754 -14.115  20.851  1.00  0.00     0.070 A 
HETATM   28 CL2  UNL     1      17.135 -13.386  19.391  1.00  0.00    -0.081 Cl
HETATM   29  C14 UNL     1      21.298 -14.583  24.024  1.00  0.00     0.202 C 
HETATM   30  C15 UNL     1      20.603 -15.713  24.726  1.00  0.00     0.202 C 
ENDBRANCH  17  19
ENDBRANCH  14  16
ENDBRANCH   1  14
TORSDOF 8
ENDMDL
MODEL 3
REMARK VINA RESULT: -7.651564161      2.326      2.813
REMARK  8 active torsions:
REMARK  status: ('A' for Active; 'I' for Inactive)
REMARK    1  A    between atoms: C2_2  and  C3_3 
REMARK    2  A    between atoms: C3_3  and  S1_4 
REMARK    3  A    between atoms: C3_3  and  C16_28 
REMARK    4  A    between atoms: S1_4  and  C4_5 
REMARK    5  A    between atoms: C4_5  and  C5_6 
REMARK    6  A    between atoms: C5_6  and  N3_11 
REMARK    7  A    between atoms: N3_11  and  N4_13 
REMARK    8  A    between atoms: C7_15  and  C8_16 
ROOT
HETATM    1  C5  UNL     1      14.380 -13.696  20.555  1.00  0.00     0.114 C 
HETATM    2  N1  UNL     1      15.074 -12.672  20.235  1.00  0.00    -0.281 N 
ATOM      3  H1  UNL     1      14.581 -11.838  19.917  1.00  0.00     0.179 HD
HETATM    4  C6  UNL     1      16.444 -12.631  20.295  1.00  0.00     0.183 C 
HETATM    5  N2  UNL     1      17.607 -12.585  20.326  1.00  0.00    -0.172 NA
ENDROOT
BRANCH   1   6
HETATM    6  C4  UNL     1      12.906 -13.592  20.438  1.00  0.00     0.153 C 
BRANCH   6   7
HETATM    7  S1  UNL     1      12.099 -13.402  22.019  1.00  0.00    -0.146 SA
BRANCH   7   8
HETATM    8  C3  UNL     1      12.287 -11.808  22.787  1.00  0.00     0.148 C 
BRANCH   8   9
HETATM    9  C2  UNL     1      11.247 -11.413  23.769  1.00  0.00     0.021 C 
HETATM   10  C1  UNL     1      11.425 -10.143  24.502  1.00  0.00     0.007 C 
ENDBRANCH   8   9
BRANCH   8  11
HETATM   11  C16 UNL     1      12.573 -10.720  21.794  1.00  0.00     0.187 C 
HETATM   12  O3  UNL     1      11.683 -10.193  21.086  1.00  0.00    -0.647 OA
HETATM   13  O4  UNL     1      13.868 -10.253  21.625  1.00  0.00    -0.647 OA
ENDBRANCH   8  11
ENDBRANCH   7   8
ENDBRANCH   6   7
ENDBRANCH   1   6
BRANCH   1  14
HETATM   14  N3  UNL     1      15.028 -14.871  20.999  1.00  0.00    -0.288 N 
ATOM     15  H3  UNL     1      14.887 -15.729  20.465  1.00  0.00     0.188 HD
BRANCH  14  16
HETATM   16  N4  UNL     1      15.848 -14.928  22.121  1.00  0.00    -0.310 N 
HETATM   17  C7  UNL     1      16.791 -15.757  22.293  1.00  0.00     0.120 C 
ATOM     18  H4  UNL     1      15.676 -14.251  22.864  1.00  0.00     0.186 HD
BRANCH  17  19
HETATM   19  C8  UNL     1      17.609 -15.740  23.521  1.00  0.00     0.007 A 
HETATM   20  C9  UNL     1      18.484 -14.712  23.794  1.00  0.00     0.054 A 
HETATM   21  C10 UNL     1      19.261 -14.670  24.933  1.00  0.00     0.104 A 
HETATM   22  C11 UNL     1      19.174 -15.698  25.859  1.00  0.00     0.125 A 
HETATM   23  O2  UNL     1      20.143 -13.645  25.218  1.00  0.00    -0.346 OA
HETATM   24  C12 UNL     1      18.294 -16.721  25.573  1.00  0.00     0.092 A 
HETATM   25  O1  UNL     1      19.952 -15.680  27.020  1.00  0.00    -0.344 OA
HETATM   26 CL1  UNL     1      18.184 -18.033  26.754  1.00  0.00    -0.079 Cl
HETATM   27  C13 UNL     1      17.517 -16.769  24.441  1.00  0.00     0.070 A 
HETATM   28 CL2  UNL     1      16.420 -18.091  24.134  1.00  0.00    -0.081 Cl
HETATM   29  C14 UNL     1      21.194 -14.975  26.912  1.00  0.00     0.202 C 
HETATM   30  C15 UNL     1      21.017 -13.613  26.306  1.00  0.00     0.202 C 
ENDBRANCH  17  19
ENDBRANCH  14  16
ENDBRANCH   1  14
TORSDOF 8
ENDMDL
MODEL 4
REMARK VINA RESULT: -7.526843246      3.513      7.685
REMARK  8 active torsions:
REMARK  status: ('A' for Active; 'I' for Inactive)
REMARK    1  A    between atoms: C2_2  and  C3_3 
REMARK    2  A    between atoms: C3_3  and  S1_4 
REMARK    3  A    between atoms: C3_3  and  C16_28 
REMARK    4  A    between atoms: S1_4  and  C4_5 
REMARK    5  A    between atoms: C4_5  and  C5_6 
REMARK    6  A    between atoms: C5_6  and  N3_11 
REMARK    7  A    between atoms: N3_11  and  N4_13 
REMARK    8  A    between atoms: C7_15  and  C8_16 
ROOT
HETATM    1  C5  UNL     1      17.091 -17.578  24.041  1.00  0.00     0.114 C 
HETATM    2  N1  UNL     1      16.092 -18.273  24.429  1.00  0.00    -0.281 N 
ATOM      3  H1  UNL     1      16.104 -18.644  25.379  1.00  0.00     0.179 HD
HETATM    4  C6  UNL     1      15.003 -18.550  23.641  1.00  0.00     0.183 C 
HETATM    5  N2  UNL     1      14.080 -18.806  22.980  1.00  0.00    -0.172 NA
ENDROOT
BRANCH   1   6
HETATM    6  C4  UNL     1      18.195 -17.363  25.006  1.00  0.00     0.153 C 
BRANCH   6   7
HETATM    7  S1  UNL     1      18.440 -15.640  25.403  1.00  0.00    -0.146 SA
BRANCH   7   8
HETATM    8  C3  UNL     1      20.030 -14.972  24.963  1.00  0.00     0.148 C 
BRANCH   8   9
HETATM    9  C2  UNL     1      20.521 -13.828  25.771  1.00  0.00     0.021 C 
HETATM   10  C1  UNL     1      20.766 -14.045  27.211  1.00  0.00     0.007 C 
ENDBRANCH   8   9
BRANCH   8  11
HETATM   11  C16 UNL     1      20.163 -14.726  23.489  1.00  0.00     0.187 C 
HETATM   12  O3  UNL     1      19.200 -14.827  22.692  1.00  0.00    -0.647 OA
HETATM   13  O4  UNL     1      21.388 -14.368  22.948  1.00  0.00    -0.647 OA
ENDBRANCH   8  11
ENDBRANCH   7   8
ENDBRANCH   6   7
ENDBRANCH   1   6
BRANCH   1  14
HETATM   14  N3  UNL     1      17.109 -17.048  22.730  1.00  0.00    -0.288 N 
ATOM     15  H3  UNL     1      17.649 -17.543  22.020  1.00  0.00     0.188 HD
BRANCH  14  16
HETATM   16  N4  UNL     1      16.436 -15.892  22.351  1.00  0.00    -0.310 N 
HETATM   17  C7  UNL     1      15.734 -15.769  21.303  1.00  0.00     0.120 C 
ATOM     18  H4  UNL     1      16.513 -15.080  22.963  1.00  0.00     0.186 HD
BRANCH  17  19
HETATM   19  C8  UNL     1      15.054 -14.499  20.984  1.00  0.00     0.007 A 
HETATM   20  C9  UNL     1      14.480 -13.719  21.964  1.00  0.00     0.054 A 
HETATM   21  C10 UNL     1      13.838 -12.529  21.694  1.00  0.00     0.104 A 
HETATM   22  C11 UNL     1      13.753 -12.076  20.387  1.00  0.00     0.125 A 
HETATM   23  O2  UNL     1      13.258 -11.737  22.667  1.00  0.00    -0.346 OA
HETATM   24  C12 UNL     1      14.332 -12.868  19.415  1.00  0.00     0.092 A 
HETATM   25  O1  UNL     1      13.107 -10.874  20.087  1.00  0.00    -0.344 OA
HETATM   26 CL1  UNL     1      14.224 -12.292  17.747  1.00  0.00    -0.079 Cl
HETATM   27  C13 UNL     1      14.973 -14.054  19.676  1.00  0.00     0.070 A 
HETATM   28 CL2  UNL     1      15.688 -15.013  18.405  1.00  0.00    -0.081 Cl
HETATM   29  C14 UNL     1      12.068 -10.497  20.998  1.00  0.00     0.202 C 
HETATM   30  C15 UNL     1      12.515 -10.579  22.428  1.00  0.00     0.202 C 
ENDBRANCH  17  19
ENDBRANCH  14  16
ENDBRANCH   1  14
TORSDOF 8
ENDMDL
MODEL 5
REMARK VINA RESULT: -7.473333706      2.717      3.474
REMARK  8 active torsions:
REMARK  status: ('A' for Active; 'I' for Inactive)
REMARK    1  A    between atoms: C2_2  and  C3_3 
REMARK    2  A    between atoms: C3_3  and  S1_4 
REMARK    3  A    between atoms: C3_3  and  C16_28 
REMARK    4  A    between atoms: S1_4  and  C4_5 
REMARK    5  A    between atoms: C4_5  and  C5_6 
REMARK    6  A    between atoms: C5_6  and  N3_11 
REMARK    7  A    between atoms: N3_11  and  N4_13 
REMARK    8  A    between atoms: C7_15  and  C8_16 
ROOT
HETATM    1  C5  UNL     1      12.683 -15.313  20.720  1.00  0.00     0.114 C 
HETATM    2  N1  UNL     1      12.301 -15.964  19.689  1.00  0.00    -0.281 N 
ATOM      3  H1  UNL     1      11.779 -15.462  18.970  1.00  0.00     0.179 HD
HETATM    4  C6  UNL     1      12.551 -17.299  19.493  1.00  0.00     0.183 C 
HETATM    5  N2  UNL     1      12.742 -18.433  19.320  1.00  0.00    -0.172 NA
ENDROOT
BRANCH   1   6
HETATM    6  C4  UNL     1      12.338 -13.873  20.791  1.00  0.00     0.153 C 
BRANCH   6   7
HETATM    7  S1  UNL     1      12.203 -13.278  22.468  1.00  0.00    -0.146 SA
BRANCH   7   8
HETATM    8  C3  UNL     1      11.428 -11.687  22.656  1.00  0.00     0.148 C 
BRANCH   8   9
HETATM    9  C2  UNL     1      12.005 -10.566  21.873  1.00  0.00     0.021 C 
HETATM   10  C1  UNL     1      13.475 -10.484  21.752  1.00  0.00     0.007 C 
ENDBRANCH   8   9
BRANCH   8  11
HETATM   11  C16 UNL     1      11.205 -11.321  24.094  1.00  0.00     0.187 C 
HETATM   12  O3  UNL     1      10.823 -12.148  24.955  1.00  0.00    -0.647 OA
HETATM   13  O4  UNL     1      11.420 -10.021  24.525  1.00  0.00    -0.647 OA
ENDBRANCH   8  11
ENDBRANCH   7   8
ENDBRANCH   6   7
ENDBRANCH   1   6
BRANCH   1  14
HETATM   14  N3  UNL     1      13.407 -15.976  21.738  1.00  0.00    -0.288 N 
ATOM     15  H3  UNL     1      12.912 -16.659  22.311  1.00  0.00     0.188 HD
BRANCH  14  16
HETATM   16  N4  UNL     1      14.753 -15.750  22.004  1.00  0.00    -0.310 N 
HETATM   17  C7  UNL     1      15.610 -15.365  21.153  1.00  0.00     0.120 C 
ATOM     18  H4  UNL     1      15.076 -15.907  22.959  1.00  0.00     0.186 HD
BRANCH  17  19
HETATM   19  C8  UNL     1      17.019 -15.152  21.532  1.00  0.00     0.007 A 
HETATM   20  C9  UNL     1      17.555 -15.707  22.673  1.00  0.00     0.054 A 
HETATM   21  C10 UNL     1      18.868 -15.524  23.052  1.00  0.00     0.104 A 
HETATM   22  C11 UNL     1      19.706 -14.749  22.265  1.00  0.00     0.125 A 
HETATM   23  O2  UNL     1      19.417 -16.075  24.194  1.00  0.00    -0.346 OA
HETATM   24  C12 UNL     1      19.157 -14.198  21.125  1.00  0.00     0.092 A 
HETATM   25  O1  UNL     1      21.041 -14.547  22.628  1.00  0.00    -0.344 OA
HETATM   26 CL1  UNL     1      20.225 -13.210  20.122  1.00  0.00    -0.079 Cl
HETATM   27  C13 UNL     1      17.850 -14.377  20.742  1.00  0.00     0.070 A 
HETATM   28 CL2  UNL     1      17.211 -13.655  19.287  1.00  0.00    -0.081 Cl
HETATM   29  C14 UNL     1      21.307 -14.611  24.034  1.00  0.00     0.202 C 
HETATM   30  C15 UNL     1      20.709 -15.834  24.664  1.00  0.00     0.202 C 
ENDBRANCH  17  19
ENDBRANCH  14  16
ENDBRANCH   1  14
TORSDOF 8
ENDMDL
