MODEL 1
REMARK VINA RESULT: -8.027983629      0.000      0.000
REMARK  10 active torsions:
REMARK  status: ('A' for Active; 'I' for Inactive)
REMARK    1  A    between atoms: C2_2  and  O1_3 
REMARK    2  A    between atoms: O1_3  and  C3_4 
REMARK    3  A    between atoms: C3_4  and  C4_6 
REMARK    4  A    between atoms: C4_6  and  C5_7 
REMARK    5  A    between atoms: C5_7  and  N1_8 
REMARK    6  A    between atoms: C5_7  and  C15_25 
REMARK    7  A    between atoms: N1_8  and  C6_9 
REMARK    8  A    between atoms: C7_12  and  C8_13 
REMARK    9  A    between atoms: C11_17  and  O3_18 
REMARK   10  A    between atoms: C15_25  and  C16_27 
ROOT
HETATM    1  C16 UNL     1      14.290 -13.500  18.625  1.00  0.00     0.299 C 
HETATM    2  O5  UNL     1      14.968 -14.486  18.237  1.00  0.00    -0.272 OA
HETATM    3  C17 UNL     1      14.272 -12.328  17.765  1.00  0.00     0.147 C 
HETATM    4  N3  UNL     1      14.262 -11.391  17.064  1.00  0.00    -0.188 NA
ENDROOT
BRANCH   1   5
HETATM    5  C15 UNL     1      13.550 -13.486  19.857  1.00  0.00     0.245 C 
HETATM    6  O4  UNL     1      12.338 -13.802  19.850  1.00  0.00    -0.285 OA
BRANCH   5   7
HETATM    7  C5  UNL     1      14.141 -13.104  21.195  1.00  0.00     0.253 C 
BRANCH   7   8
HETATM    8  C4  UNL     1      13.660 -11.659  21.396  1.00  0.00     0.159 C 
BRANCH   8   9
HETATM    9  C3  UNL     1      12.677 -11.588  22.499  1.00  0.00     0.262 C 
HETATM   10  O2  UNL     1      12.365 -12.690  23.068  1.00  0.00    -0.265 OA
BRANCH   9  11
HETATM   11  O1  UNL     1      12.080 -10.448  22.953  1.00  0.00    -0.322 OA
BRANCH  11  12
HETATM   12  C2  UNL     1      11.524 -10.348  24.270  1.00  0.00     0.174 C 
HETATM   13  C1  UNL     1      11.859  -8.949  24.770  1.00  0.00     0.034 C 
ENDBRANCH  11  12
ENDBRANCH   9  11
ENDBRANCH   8   9
ENDBRANCH   7   8
BRANCH   7  14
HETATM   14  N1  UNL     1      15.416 -13.338  21.362  1.00  0.00    -0.410 NA
BRANCH  14  15
HETATM   15  C6  UNL     1      16.633 -13.530  21.410  1.00  0.00     0.217 A 
HETATM   16  N2  UNL     1      17.363 -13.924  22.490  1.00  0.00    -0.324 N 
HETATM   17  C7  UNL     1      18.633 -14.067  22.381  1.00  0.00     0.052 A 
ATOM     18  H2  UNL     1      16.901 -14.105  23.382  1.00  0.00     0.169 HD
HETATM   19  C14 UNL     1      19.214 -13.812  21.159  1.00  0.00     0.084 A 
HETATM   20  S1  UNL     1      17.870 -13.373  20.211  1.00  0.00    -0.049 SA
BRANCH  17  21
HETATM   21  C8  UNL     1      19.520 -14.492  23.515  1.00  0.00    -0.005 A 
HETATM   22  C9  UNL     1      18.974 -14.979  24.673  1.00  0.00     0.040 A 
HETATM   23  C10 UNL     1      19.831 -15.363  25.702  1.00  0.00     0.069 A 
HETATM   24 CL1  UNL     1      19.159 -15.996  27.189  1.00  0.00    -0.081 Cl
HETATM   25  C11 UNL     1      21.194 -15.270  25.599  1.00  0.00     0.109 A 
HETATM   26  C12 UNL     1      21.711 -14.770  24.410  1.00  0.00     0.069 A 
HETATM   27 CL2  UNL     1      23.452 -14.651  24.273  1.00  0.00    -0.081 Cl
HETATM   28  C13 UNL     1      20.878 -14.388  23.383  1.00  0.00     0.040 A 
BRANCH  25  29
HETATM   29  O3  UNL     1      22.049 -15.649  26.621  1.00  0.00    -0.357 OA
ATOM     30  H3  UNL     1      22.674 -15.052  27.015  1.00  0.00     0.217 HD
ENDBRANCH  25  29
ENDBRANCH  17  21
ENDBRANCH  14  15
ENDBRANCH   7  14
ENDBRANCH   5   7
ENDBRANCH   1   5
TORSDOF 10
ENDMDL
MODEL 2
REMARK VINA RESULT: -8.011977385      1.341      2.013
REMARK  10 active torsions:
REMARK  status: ('A' for Active; 'I' for Inactive)
REMARK    1  A    between atoms: C2_2  and  O1_3 
REMARK    2  A    between atoms: O1_3  and  C3_4 
REMARK    3  A    between atoms: C3_4  and  C4_6 
REMARK    4  A    between atoms: C4_6  and  C5_7 
REMARK    5  A    between atoms: C5_7  and  N1_8 
REMARK    6  A    between atoms: C5_7  and  C15_25 
REMARK    7  A    between atoms: N1_8  and  C6_9 
REMARK    8  A    between atoms: C7_12  and  C8_13 
REMARK    9  A    between atoms: C11_17  and  O3_18 
REMARK   10  A    between atoms: C15_25  and  C16_27 
ROOT
HETATM    1  C16 UNL     1      12.477 -14.746  20.279  1.00  0.00     0.299 C 
HETATM    2  O5  UNL     1      11.552 -15.021  19.472  1.00  0.00    -0.272 OA
HETATM    3  C17 UNL     1      12.794 -15.742  21.289  1.00  0.00     0.147 C 
HETATM    4  N3  UNL     1      13.044 -16.551  22.096  1.00  0.00    -0.188 NA
ENDROOT
BRANCH   1   5
HETATM    5  C15 UNL     1      13.216 -13.514  20.242  1.00  0.00     0.245 C 
HETATM    6  O4  UNL     1      13.162 -12.794  19.219  1.00  0.00    -0.285 OA
BRANCH   5   7
HETATM    7  C5  UNL     1      14.080 -13.011  21.376  1.00  0.00     0.253 C 
BRANCH   7   8
HETATM    8  C4  UNL     1      13.812 -11.499  21.383  1.00  0.00     0.159 C 
BRANCH   8   9
HETATM    9  C3  UNL     1      12.565 -11.195  22.118  1.00  0.00     0.262 C 
HETATM   10  O2  UNL     1      11.625 -10.635  21.455  1.00  0.00    -0.265 OA
BRANCH   9  11
HETATM   11  O1  UNL     1      12.340 -11.463  23.437  1.00  0.00    -0.322 OA
BRANCH  11  12
HETATM   12  C2  UNL     1      11.215 -10.928  24.145  1.00  0.00     0.174 C 
HETATM   13  C1  UNL     1      11.647  -9.561  24.662  1.00  0.00     0.034 C 
ENDBRANCH  11  12
ENDBRANCH   9  11
ENDBRANCH   8   9
ENDBRANCH   7   8
BRANCH   7  14
HETATM   14  N1  UNL     1      15.329 -13.397  21.380  1.00  0.00    -0.410 NA
BRANCH  14  15
HETATM   15  C6  UNL     1      16.534 -13.655  21.414  1.00  0.00     0.217 A 
HETATM   16  N2  UNL     1      17.275 -13.983  22.508  1.00  0.00    -0.324 N 
HETATM   17  C7  UNL     1      18.532 -14.210  22.380  1.00  0.00     0.052 A 
ATOM     18  H2  UNL     1      16.834 -14.048  23.425  1.00  0.00     0.169 HD
HETATM   19  C14 UNL     1      19.085 -14.110  21.123  1.00  0.00     0.084 A 
HETATM   20  S1  UNL     1      17.739 -13.688  20.172  1.00  0.00    -0.049 SA
BRANCH  17  21
HETATM   21  C8  UNL     1      19.429 -14.573  23.527  1.00  0.00    -0.005 A 
HETATM   22  C9  UNL     1      18.898 -15.055  24.693  1.00  0.00     0.040 A 
HETATM   23  C10 UNL     1      19.765 -15.380  25.734  1.00  0.00     0.069 A 
HETATM   24 CL1  UNL     1      19.113 -16.005  27.233  1.00  0.00    -0.081 Cl
HETATM   25  C11 UNL     1      21.124 -15.236  25.633  1.00  0.00     0.109 A 
HETATM   26  C12 UNL     1      21.626 -14.744  24.434  1.00  0.00     0.069 A 
HETATM   27 CL2  UNL     1      23.362 -14.559  24.301  1.00  0.00    -0.081 Cl
HETATM   28  C13 UNL     1      20.783 -14.418  23.396  1.00  0.00     0.040 A 
BRANCH  25  29
HETATM   29  O3  UNL     1      21.990 -15.558  26.666  1.00  0.00    -0.357 OA
ATOM     30  H3  UNL     1      21.808 -16.248  27.293  1.00  0.00     0.217 HD
ENDBRANCH  25  29
ENDBRANCH  17  21
ENDBRANCH  14  15
ENDBRANCH   7  14
ENDBRANCH   5   7
ENDBRANCH   1   5
TORSDOF 10
ENDMDL
MODEL 3
REMARK VINA RESULT: -7.942451049      0.335      1.721
REMARK  10 active torsions:
REMARK  status: ('A' for Active; 'I' for Inactive)
REMARK    1  A    between atoms: C2_2  and  O1_3 
REMARK    2  A    between atoms: O1_3  and  C3_4 
REMARK    3  A    between atoms: C3_4  and  C4_6 
REMARK    4  A    between atoms: C4_6  and  C5_7 
REMARK    5  A    between atoms: C5_7  and  N1_8 
REMARK    6  A    between atoms: C5_7  and  C15_25 
REMARK    7  A    between atoms: N1_8  and  C6_9 
REMARK    8  A    between atoms: C7_12  and  C8_13 
REMARK    9  A    between atoms: C11_17  and  O3_18 
REMARK   10  A    between atoms: C15_25  and  C16_27 
ROOT
HETATM    1  C16 UNL     1      14.611 -13.552  18.365  1.00  0.00     0.299 C 
HETATM    2  O5  UNL     1      15.346 -14.501  17.987  1.00  0.00    -0.272 OA
HETATM    3  C17 UNL     1      14.567 -12.369  17.521  1.00  0.00     0.147 C 
HETATM    4  N3  UNL     1      14.537 -11.423  16.834  1.00  0.00    -0.188 NA
ENDROOT
BRANCH   1   5
HETATM    5  C15 UNL     1      13.829 -13.592  19.570  1.00  0.00     0.245 C 
HETATM    6  O4  UNL     1      12.631 -13.954  19.515  1.00  0.00    -0.285 OA
BRANCH   5   7
HETATM    7  C5  UNL     1      14.359 -13.216  20.935  1.00  0.00     0.253 C 
BRANCH   7   8
HETATM    8  C4  UNL     1      13.763 -11.821  21.176  1.00  0.00     0.159 C 
BRANCH   8   9
HETATM    9  C3  UNL     1      12.779 -11.860  22.279  1.00  0.00     0.262 C 
HETATM   10  O2  UNL     1      12.630 -12.978  22.881  1.00  0.00    -0.265 OA
BRANCH   9  11
HETATM   11  O1  UNL     1      12.022 -10.805  22.701  1.00  0.00    -0.322 OA
BRANCH  11  12
HETATM   12  C2  UNL     1      11.352 -10.802  23.967  1.00  0.00     0.174 C 
HETATM   13  C1  UNL     1      11.694  -9.473  24.629  1.00  0.00     0.034 C 
ENDBRANCH  11  12
ENDBRANCH   9  11
ENDBRANCH   8   9
ENDBRANCH   7   8
BRANCH   7  14
HETATM   14  N1  UNL     1      15.645 -13.358  21.125  1.00  0.00    -0.410 NA
BRANCH  14  15
HETATM   15  C6  UNL     1      16.861 -13.548  21.205  1.00  0.00     0.217 A 
HETATM   16  N2  UNL     1      17.563 -13.931  22.307  1.00  0.00    -0.324 N 
HETATM   17  C7  UNL     1      18.836 -14.074  22.231  1.00  0.00     0.052 A 
ATOM     18  H2  UNL     1      17.080 -14.103  23.188  1.00  0.00     0.169 HD
HETATM   19  C14 UNL     1      19.447 -13.830  21.021  1.00  0.00     0.084 A 
HETATM   20  S1  UNL     1      18.127 -13.401  20.036  1.00  0.00    -0.049 SA
BRANCH  17  21
HETATM   21  C8  UNL     1      19.695 -14.486  23.391  1.00  0.00    -0.005 A 
HETATM   22  C9  UNL     1      21.060 -14.431  23.293  1.00  0.00     0.040 A 
HETATM   23  C10 UNL     1      21.821 -14.822  24.392  1.00  0.00     0.069 A 
HETATM   24 CL1  UNL     1      23.568 -14.754  24.297  1.00  0.00    -0.081 Cl
HETATM   25  C11 UNL     1      21.257 -15.259  25.561  1.00  0.00     0.109 A 
HETATM   26  C12 UNL     1      19.869 -15.303  25.622  1.00  0.00     0.069 A 
HETATM   27 CL2  UNL     1      19.144 -15.860  27.115  1.00  0.00    -0.081 Cl
HETATM   28  C13 UNL     1      19.102 -14.919  24.546  1.00  0.00     0.040 A 
BRANCH  25  29
HETATM   29  O3  UNL     1      22.011 -15.651  26.656  1.00  0.00    -0.357 OA
ATOM     30  H3  UNL     1      21.785 -15.411  27.547  1.00  0.00     0.217 HD
ENDBRANCH  25  29
ENDBRANCH  17  21
ENDBRANCH  14  15
ENDBRANCH   7  14
ENDBRANCH   5   7
ENDBRANCH   1   5
TORSDOF 10
ENDMDL
MODEL 4
REMARK VINA RESULT: -7.940143469      1.671      2.452
REMARK  10 active torsions:
REMARK  status: ('A' for Active; 'I' for Inactive)
REMARK    1  A    between atoms: C2_2  and  O1_3 
REMARK    2  A    between atoms: O1_3  and  C3_4 
REMARK    3  A    between atoms: C3_4  and  C4_6 
REMARK    4  A    between atoms: C4_6  and  C5_7 
REMARK    5  A    between atoms: C5_7  and  N1_8 
REMARK    6  A    between atoms: C5_7  and  C15_25 
REMARK    7  A    between atoms: N1_8  and  C6_9 
REMARK    8  A    between atoms: C7_12  and  C8_13 
REMARK    9  A    between atoms: C11_17  and  O3_18 
REMARK   10  A    between atoms: C15_25  and  C16_27 
ROOT
HETATM    1  C16 UNL     1      12.631 -14.680  20.332  1.00  0.00     0.299 C 
HETATM    2  O5  UNL     1      11.690 -14.842  19.513  1.00  0.00    -0.272 OA
HETATM    3  C17 UNL     1      12.823 -15.714  21.336  1.00  0.00     0.147 C 
HETATM    4  N3  UNL     1      12.970 -16.553  22.138  1.00  0.00    -0.188 NA
ENDROOT
BRANCH   1   5
HETATM    5  C15 UNL     1      13.505 -13.539  20.315  1.00  0.00     0.245 C 
HETATM    6  O4  UNL     1      13.666 -12.903  19.248  1.00  0.00    -0.285 OA
BRANCH   5   7
HETATM    7  C5  UNL     1      14.266 -13.038  21.521  1.00  0.00     0.253 C 
BRANCH   7   8
HETATM    8  C4  UNL     1      13.930 -11.540  21.556  1.00  0.00     0.159 C 
BRANCH   8   9
HETATM    9  C3  UNL     1      12.608 -11.319  22.182  1.00  0.00     0.262 C 
HETATM   10  O2  UNL     1      11.703 -10.791  21.450  1.00  0.00    -0.265 OA
BRANCH   9  11
HETATM   11  O1  UNL     1      12.282 -11.632  23.470  1.00  0.00    -0.322 OA
BRANCH  11  12
HETATM   12  C2  UNL     1      11.094 -11.136  24.100  1.00  0.00     0.174 C 
HETATM   13  C1  UNL     1      11.456  -9.777  24.684  1.00  0.00     0.034 C 
ENDBRANCH  11  12
ENDBRANCH   9  11
ENDBRANCH   8   9
ENDBRANCH   7   8
BRANCH   7  14
HETATM   14  N1  UNL     1      15.529 -13.370  21.598  1.00  0.00    -0.410 NA
BRANCH  14  15
HETATM   15  C6  UNL     1      16.738 -13.612  21.582  1.00  0.00     0.217 A 
HETATM   16  N2  UNL     1      17.492 -14.106  22.602  1.00  0.00    -0.324 N 
HETATM   17  C7  UNL     1      18.750 -14.291  22.430  1.00  0.00     0.052 A 
ATOM     18  H2  UNL     1      17.059 -14.328  23.498  1.00  0.00     0.169 HD
HETATM   19  C14 UNL     1      19.292 -13.976  21.204  1.00  0.00     0.084 A 
HETATM   20  S1  UNL     1      17.932 -13.422  20.345  1.00  0.00    -0.049 SA
BRANCH  17  21
HETATM   21  C8  UNL     1      19.662 -14.826  23.496  1.00  0.00    -0.005 A 
HETATM   22  C9  UNL     1      20.352 -15.991  23.292  1.00  0.00     0.040 A 
HETATM   23  C10 UNL     1      21.189 -16.454  24.306  1.00  0.00     0.069 A 
HETATM   24 CL1  UNL     1      22.088 -17.936  24.069  1.00  0.00    -0.081 Cl
HETATM   25  C11 UNL     1      21.345 -15.789  25.493  1.00  0.00     0.109 A 
HETATM   26  C12 UNL     1      20.627 -14.611  25.664  1.00  0.00     0.069 A 
HETATM   27 CL2  UNL     1      20.825 -13.758  27.179  1.00  0.00    -0.081 Cl
HETATM   28  C13 UNL     1      19.797 -14.140  24.672  1.00  0.00     0.040 A 
BRANCH  25  29
HETATM   29  O3  UNL     1      22.175 -16.246  26.504  1.00  0.00    -0.357 OA
ATOM     30  H3  UNL     1      21.864 -16.416  27.385  1.00  0.00     0.217 HD
ENDBRANCH  25  29
ENDBRANCH  17  21
ENDBRANCH  14  15
ENDBRANCH   7  14
ENDBRANCH   5   7
ENDBRANCH   1   5
TORSDOF 10
ENDMDL
MODEL 5
REMARK VINA RESULT: -7.889660149      1.031      1.038
REMARK  10 active torsions:
REMARK  status: ('A' for Active; 'I' for Inactive)
REMARK    1  A    between atoms: C2_2  and  O1_3 
REMARK    2  A    between atoms: O1_3  and  C3_4 
REMARK    3  A    between atoms: C3_4  and  C4_6 
REMARK    4  A    between atoms: C4_6  and  C5_7 
REMARK    5  A    between atoms: C5_7  and  N1_8 
REMARK    6  A    between atoms: C5_7  and  C15_25 
REMARK    7  A    between atoms: N1_8  and  C6_9 
REMARK    8  A    between atoms: C7_12  and  C8_13 
REMARK    9  A    between atoms: C11_17  and  O3_18 
REMARK   10  A    between atoms: C15_25  and  C16_27 
ROOT
HETATM    1  C16 UNL     1      14.322 -13.565  18.731  1.00  0.00     0.299 C 
HETATM    2  O5  UNL     1      14.962 -14.590  18.379  1.00  0.00    -0.272 OA
HETATM    3  C17 UNL     1      14.333 -12.431  17.821  1.00  0.00     0.147 C 
HETATM    4  N3  UNL     1      14.345 -11.525  17.081  1.00  0.00    -0.188 NA
ENDROOT
BRANCH   1   5
HETATM    5  C15 UNL     1      13.598 -13.473  19.969  1.00  0.00     0.245 C 
HETATM    6  O4  UNL     1      12.376 -13.749  19.989  1.00  0.00    -0.285 OA
BRANCH   5   7
HETATM    7  C5  UNL     1      14.217 -13.054  21.283  1.00  0.00     0.253 C 
BRANCH   7   8
HETATM    8  C4  UNL     1      13.742 -11.604  21.453  1.00  0.00     0.159 C 
BRANCH   8   9
HETATM    9  C3  UNL     1      12.758 -11.505  22.553  1.00  0.00     0.262 C 
HETATM   10  O2  UNL     1      12.361 -12.604  23.074  1.00  0.00    -0.265 OA
BRANCH   9  11
HETATM   11  O1  UNL     1      12.243 -10.344  23.051  1.00  0.00    -0.322 OA
BRANCH  11  12
HETATM   12  C2  UNL     1      11.596 -10.279  24.328  1.00  0.00     0.174 C 
HETATM   13  C1  UNL     1      11.795  -8.857  24.837  1.00  0.00     0.034 C 
ENDBRANCH  11  12
ENDBRANCH   9  11
ENDBRANCH   8   9
ENDBRANCH   7   8
BRANCH   7  14
HETATM   14  N1  UNL     1      15.496 -13.286  21.430  1.00  0.00    -0.410 NA
BRANCH  14  15
HETATM   15  C6  UNL     1      16.711 -13.493  21.454  1.00  0.00     0.217 A 
HETATM   16  N2  UNL     1      17.437 -14.009  22.485  1.00  0.00    -0.324 N 
HETATM   17  C7  UNL     1      18.706 -14.151  22.359  1.00  0.00     0.052 A 
ATOM     18  H2  UNL     1      16.974 -14.281  23.352  1.00  0.00     0.169 HD
HETATM   19  C14 UNL     1      19.288 -13.770  21.170  1.00  0.00     0.084 A 
HETATM   20  S1  UNL     1      17.949 -13.218  20.278  1.00  0.00    -0.049 SA
BRANCH  17  21
HETATM   21  C8  UNL     1      19.589 -14.705  23.439  1.00  0.00    -0.005 A 
HETATM   22  C9  UNL     1      19.729 -14.036  24.626  1.00  0.00     0.040 A 
HETATM   23  C10 UNL     1      20.558 -14.583  25.603  1.00  0.00     0.069 A 
HETATM   24 CL1  UNL     1      20.748 -13.753  27.132  1.00  0.00    -0.081 Cl
HETATM   25  C11 UNL     1      21.235 -15.759  25.420  1.00  0.00     0.109 A 
HETATM   26  C12 UNL     1      21.069 -16.409  24.203  1.00  0.00     0.069 A 
HETATM   27 CL2  UNL     1      21.933 -17.913  23.965  1.00  0.00    -0.081 Cl
HETATM   28  C13 UNL     1      20.253 -15.882  23.227  1.00  0.00     0.040 A 
BRANCH  25  29
HETATM   29  O3  UNL     1      22.061 -16.306  26.389  1.00  0.00    -0.357 OA
ATOM     30  H3  UNL     1      22.828 -16.825  26.177  1.00  0.00     0.217 HD
ENDBRANCH  25  29
ENDBRANCH  17  21
ENDBRANCH  14  15
ENDBRANCH   7  14
ENDBRANCH   5   7
ENDBRANCH   1   5
TORSDOF 10
ENDMDL
