MODEL 1
REMARK VINA RESULT: -6.429484636      0.000      0.000
REMARK  7 active torsions:
REMARK  status: ('A' for Active; 'I' for Inactive)
REMARK    1  A    between atoms: O1_2  and  C2_3 
REMARK    2  A    between atoms: C4_5  and  O2_6 
REMARK    3  A    between atoms: C6_8  and  C7_9 
REMARK    4  A    between atoms: N1_10  and  N2_12 
REMARK       I    between atoms: N2_12  and  C8_14 
REMARK    5  A    between atoms: C8_14  and  C9_16 
REMARK    6  A    between atoms: C11_18  and  S1_19 
REMARK    7  A    between atoms: S1_19  and  N3_20 
ROOT
HETATM    1  N2  UNL     1      18.419 -14.454  22.784  1.00  0.00    -0.266 N 
ATOM      2  H2  UNL     1      18.214 -13.491  23.047  1.00  0.00     0.190 HD
HETATM    3  C8  UNL     1      17.738 -14.959  21.666  1.00  0.00     0.273 C 
HETATM    4  O3  UNL     1      17.985 -16.166  21.338  1.00  0.00    -0.266 OA
ENDROOT
BRANCH   3   5
HETATM    5  C9  UNL     1      16.784 -14.270  20.849  1.00  0.00     0.073 A 
HETATM    6  C10 UNL     1      15.420 -14.312  21.180  1.00  0.00     0.047 A 
HETATM    7  C11 UNL     1      14.445 -13.671  20.488  1.00  0.00     0.102 A 
HETATM    8  C12 UNL     1      14.832 -12.928  19.382  1.00  0.00     0.060 A 
HETATM    9 CL1  UNL     1      13.570 -12.098  18.491  1.00  0.00    -0.083 Cl
HETATM   10  C13 UNL     1      16.155 -12.858  19.023  1.00  0.00     0.068 A 
HETATM   11  C14 UNL     1      17.135 -13.529  19.753  1.00  0.00     0.133 A 
HETATM   12  F1  UNL     1      18.409 -13.405  19.288  1.00  0.00    -0.205 F 
BRANCH   7  13
HETATM   13  S1  UNL     1      12.751 -13.759  20.954  1.00  0.00     0.258 S 
HETATM   14  O4  UNL     1      12.173 -12.438  21.299  1.00  0.00    -0.201 OA
HETATM   15  O5  UNL     1      12.011 -14.414  19.813  1.00  0.00    -0.201 OA
BRANCH  13  16
HETATM   16  N3  UNL     1      12.669 -14.817  22.340  1.00  0.00    -0.324 N 
ATOM     17  H32 UNL     1      13.457 -15.302  22.770  1.00  0.00     0.169 HD
ATOM     18  H31 UNL     1      11.689 -14.850  22.624  1.00  0.00     0.169 HD
ENDBRANCH  13  16
ENDBRANCH   7  13
ENDBRANCH   3   5
BRANCH   1  19
HETATM   19  N1  UNL     1      19.340 -15.125  23.564  1.00  0.00    -0.308 N 
HETATM   20  C7  UNL     1      20.581 -15.197  23.545  1.00  0.00     0.129 C 
ATOM     21  H1  UNL     1      18.913 -15.675  24.310  1.00  0.00     0.186 HD
BRANCH  20  22
HETATM   22  C6  UNL     1      21.284 -16.031  24.555  1.00  0.00     0.057 A 
HETATM   23  C4  UNL     1      21.195 -16.004  25.919  1.00  0.00     0.089 A 
HETATM   24  C3  UNL     1      21.958 -16.882  26.597  1.00  0.00     0.082 A 
HETATM   25  C2  UNL     1      22.753 -17.720  25.866  1.00  0.00     0.112 A 
HETATM   26  S2  UNL     1      22.411 -17.259  24.256  1.00  0.00    -0.061 SA
BRANCH  23  27
HETATM   27  O2  UNL     1      20.320 -15.071  26.546  1.00  0.00    -0.354 OA
HETATM   28  C5  UNL     1      20.764 -13.949  27.240  1.00  0.00     0.210 C 
ENDBRANCH  23  27
BRANCH  25  29
HETATM   29  O1  UNL     1      23.630 -18.714  26.347  1.00  0.00    -0.349 OA
HETATM   30  C1  UNL     1      23.993 -18.630  27.724  1.00  0.00     0.211 C 
ENDBRANCH  25  29
ENDBRANCH  20  22
ENDBRANCH   1  19
TORSDOF 7
ENDMDL
MODEL 2
REMARK VINA RESULT: -6.391562097      1.173      1.312
REMARK  7 active torsions:
REMARK  status: ('A' for Active; 'I' for Inactive)
REMARK    1  A    between atoms: O1_2  and  C2_3 
REMARK    2  A    between atoms: C4_5  and  O2_6 
REMARK    3  A    between atoms: C6_8  and  C7_9 
REMARK    4  A    between atoms: N1_10  and  N2_12 
REMARK       I    between atoms: N2_12  and  C8_14 
REMARK    5  A    between atoms: C8_14  and  C9_16 
REMARK    6  A    between atoms: C11_18  and  S1_19 
REMARK    7  A    between atoms: S1_19  and  N3_20 
ROOT
HETATM    1  N2  UNL     1      18.504 -14.561  22.655  1.00  0.00    -0.266 N 
ATOM      2  H2  UNL     1      18.404 -13.566  22.854  1.00  0.00     0.190 HD
HETATM    3  C8  UNL     1      17.708 -15.078  21.622  1.00  0.00     0.273 C 
HETATM    4  O3  UNL     1      17.823 -16.323  21.374  1.00  0.00    -0.266 OA
ENDROOT
BRANCH   3   5
HETATM    5  C9  UNL     1      16.770 -14.362  20.809  1.00  0.00     0.073 A 
HETATM    6  C10 UNL     1      15.404 -14.382  21.137  1.00  0.00     0.047 A 
HETATM    7  C11 UNL     1      14.443 -13.715  20.449  1.00  0.00     0.102 A 
HETATM    8  C12 UNL     1      14.848 -12.966  19.353  1.00  0.00     0.060 A 
HETATM    9 CL1  UNL     1      13.604 -12.104  18.468  1.00  0.00    -0.083 Cl
HETATM   10  C13 UNL     1      16.172 -12.918  18.998  1.00  0.00     0.068 A 
HETATM   11  C14 UNL     1      17.138 -13.615  19.724  1.00  0.00     0.133 A 
HETATM   12  F1  UNL     1      18.415 -13.510  19.263  1.00  0.00    -0.205 F 
BRANCH   7  13
HETATM   13  S1  UNL     1      12.747 -13.776  20.910  1.00  0.00     0.258 S 
HETATM   14  O4  UNL     1      12.180 -12.442  21.224  1.00  0.00    -0.201 OA
HETATM   15  O5  UNL     1      12.006 -14.449  19.781  1.00  0.00    -0.201 OA
BRANCH  13  16
HETATM   16  N3  UNL     1      12.649 -14.803  22.319  1.00  0.00    -0.324 N 
ATOM     17  H32 UNL     1      12.295 -15.760  22.338  1.00  0.00     0.169 HD
ATOM     18  H31 UNL     1      13.012 -14.258  23.102  1.00  0.00     0.169 HD
ENDBRANCH  13  16
ENDBRANCH   7  13
ENDBRANCH   3   5
BRANCH   1  19
HETATM   19  N1  UNL     1      19.408 -15.259  23.430  1.00  0.00    -0.308 N 
HETATM   20  C7  UNL     1      19.503 -15.463  24.653  1.00  0.00     0.129 C 
ATOM     21  H1  UNL     1      20.152 -15.698  22.888  1.00  0.00     0.186 HD
BRANCH  20  22
HETATM   22  C6  UNL     1      20.628 -16.281  25.177  1.00  0.00     0.057 A 
HETATM   23  C4  UNL     1      21.965 -16.193  24.910  1.00  0.00     0.089 A 
HETATM   24  C3  UNL     1      22.771 -17.076  25.531  1.00  0.00     0.082 A 
HETATM   25  C2  UNL     1      22.183 -17.980  26.371  1.00  0.00     0.112 A 
HETATM   26  S2  UNL     1      20.526 -17.571  26.271  1.00  0.00    -0.061 SA
BRANCH  23  27
HETATM   27  O2  UNL     1      22.435 -15.196  24.007  1.00  0.00    -0.354 OA
HETATM   28  C5  UNL     1      23.569 -14.423  24.241  1.00  0.00     0.210 C 
ENDBRANCH  23  27
BRANCH  25  29
HETATM   29  O1  UNL     1      22.813 -18.991  27.126  1.00  0.00    -0.349 OA
HETATM   30  C1  UNL     1      24.007 -18.623  27.813  1.00  0.00     0.211 C 
ENDBRANCH  25  29
ENDBRANCH  20  22
ENDBRANCH   1  19
TORSDOF 7
ENDMDL
MODEL 3
REMARK VINA RESULT: -6.335929986      1.148      1.256
REMARK  7 active torsions:
REMARK  status: ('A' for Active; 'I' for Inactive)
REMARK    1  A    between atoms: O1_2  and  C2_3 
REMARK    2  A    between atoms: C4_5  and  O2_6 
REMARK    3  A    between atoms: C6_8  and  C7_9 
REMARK    4  A    between atoms: N1_10  and  N2_12 
REMARK       I    between atoms: N2_12  and  C8_14 
REMARK    5  A    between atoms: C8_14  and  C9_16 
REMARK    6  A    between atoms: C11_18  and  S1_19 
REMARK    7  A    between atoms: S1_19  and  N3_20 
ROOT
HETATM    1  N2  UNL     1      18.469 -14.404  23.423  1.00  0.00    -0.266 N 
ATOM      2  H2  UNL     1      18.345 -13.448  23.754  1.00  0.00     0.190 HD
HETATM    3  C8  UNL     1      17.608 -14.833  22.402  1.00  0.00     0.273 C 
HETATM    4  O3  UNL     1      17.755 -16.030  21.990  1.00  0.00    -0.266 OA
ENDROOT
BRANCH   3   5
HETATM    5  C9  UNL     1      16.572 -14.075  21.767  1.00  0.00     0.073 A 
HETATM    6  C10 UNL     1      15.253 -14.559  21.765  1.00  0.00     0.047 A 
HETATM    7  C11 UNL     1      14.199 -13.904  21.217  1.00  0.00     0.102 A 
HETATM    8  C12 UNL     1      14.451 -12.675  20.623  1.00  0.00     0.060 A 
HETATM    9 CL1  UNL     1      13.086 -11.830  19.917  1.00  0.00    -0.083 Cl
HETATM   10  C13 UNL     1      15.724 -12.164  20.603  1.00  0.00     0.068 A 
HETATM   11  C14 UNL     1      16.788 -12.861  21.173  1.00  0.00     0.133 A 
HETATM   12  F1  UNL     1      18.009 -12.265  21.072  1.00  0.00    -0.205 F 
BRANCH   7  13
HETATM   13  S1  UNL     1      12.567 -14.560  21.249  1.00  0.00     0.258 S 
HETATM   14  O4  UNL     1      11.904 -14.539  19.923  1.00  0.00    -0.201 OA
HETATM   15  O5  UNL     1      12.664 -15.960  21.804  1.00  0.00    -0.201 OA
BRANCH  13  16
HETATM   16  N3  UNL     1      11.659 -13.585  22.376  1.00  0.00    -0.324 N 
ATOM     17  H32 UNL     1      10.994 -12.851  22.132  1.00  0.00     0.169 HD
ATOM     18  H31 UNL     1      11.925 -13.896  23.311  1.00  0.00     0.169 HD
ENDBRANCH  13  16
ENDBRANCH   7  13
ENDBRANCH   3   5
BRANCH   1  19
HETATM   19  N1  UNL     1      19.468 -15.141  24.026  1.00  0.00    -0.308 N 
HETATM   20  C7  UNL     1      20.673 -15.314  23.771  1.00  0.00     0.129 C 
ATOM     21  H1  UNL     1      19.153 -15.649  24.853  1.00  0.00     0.186 HD
BRANCH  20  22
HETATM   22  C6  UNL     1      21.491 -16.194  24.645  1.00  0.00     0.057 A 
HETATM   23  C4  UNL     1      21.473 -16.327  26.005  1.00  0.00     0.089 A 
HETATM   24  C3  UNL     1      22.337 -17.209  26.543  1.00  0.00     0.082 A 
HETATM   25  C2  UNL     1      23.155 -17.891  25.685  1.00  0.00     0.112 A 
HETATM   26  S2  UNL     1      22.693 -17.283  24.156  1.00  0.00    -0.061 SA
BRANCH  23  27
HETATM   27  O2  UNL     1      20.563 -15.546  26.774  1.00  0.00    -0.354 OA
HETATM   28  C5  UNL     1      20.868 -14.284  27.276  1.00  0.00     0.210 C 
ENDBRANCH  23  27
BRANCH  25  29
HETATM   29  O1  UNL     1      24.131 -18.856  26.009  1.00  0.00    -0.349 OA
HETATM   30  C1  UNL     1      25.463 -18.380  26.186  1.00  0.00     0.211 C 
ENDBRANCH  25  29
ENDBRANCH  20  22
ENDBRANCH   1  19
TORSDOF 7
ENDMDL
MODEL 4
REMARK VINA RESULT: -6.321623689      3.713      4.225
REMARK  7 active torsions:
REMARK  status: ('A' for Active; 'I' for Inactive)
REMARK    1  A    between atoms: O1_2  and  C2_3 
REMARK    2  A    between atoms: C4_5  and  O2_6 
REMARK    3  A    between atoms: C6_8  and  C7_9 
REMARK    4  A    between atoms: N1_10  and  N2_12 
REMARK       I    between atoms: N2_12  and  C8_14 
REMARK    5  A    between atoms: C8_14  and  C9_16 
REMARK    6  A    between atoms: C11_18  and  S1_19 
REMARK    7  A    between atoms: S1_19  and  N3_20 
ROOT
HETATM    1  N2  UNL     1      16.384 -14.192  22.355  1.00  0.00    -0.266 N 
ATOM      2  H2  UNL     1      15.962 -13.299  22.606  1.00  0.00     0.190 HD
HETATM    3  C8  UNL     1      16.371 -14.534  20.994  1.00  0.00     0.273 C 
HETATM    4  O3  UNL     1      16.890 -15.654  20.677  1.00  0.00    -0.266 OA
ENDROOT
BRANCH   3   5
HETATM    5  C9  UNL     1      15.831 -13.765  19.913  1.00  0.00     0.073 A 
HETATM    6  C10 UNL     1      16.643 -13.440  18.813  1.00  0.00     0.047 A 
HETATM    7  C11 UNL     1      16.219 -12.742  17.730  1.00  0.00     0.102 A 
HETATM    8  C12 UNL     1      14.895 -12.327  17.717  1.00  0.00     0.060 A 
HETATM    9 CL1  UNL     1      14.349 -11.427  16.315  1.00  0.00    -0.083 Cl
HETATM   10  C13 UNL     1      14.066 -12.623  18.771  1.00  0.00     0.068 A 
HETATM   11  C14 UNL     1      14.531 -13.341  19.872  1.00  0.00     0.133 A 
HETATM   12  F1  UNL     1      13.624 -13.553  20.865  1.00  0.00    -0.205 F 
BRANCH   7  13
HETATM   13  S1  UNL     1      17.282 -12.370  16.379  1.00  0.00     0.258 S 
HETATM   14  O4  UNL     1      17.230 -10.945  15.972  1.00  0.00    -0.201 OA
HETATM   15  O5  UNL     1      18.675 -12.786  16.785  1.00  0.00    -0.201 OA
BRANCH  13  16
HETATM   16  N3  UNL     1      16.774 -13.381  15.050  1.00  0.00    -0.324 N 
ATOM     17  H32 UNL     1      17.234 -14.237  14.738  1.00  0.00     0.169 HD
ATOM     18  H31 UNL     1      15.938 -12.947  14.656  1.00  0.00     0.169 HD
ENDBRANCH  13  16
ENDBRANCH   7  13
ENDBRANCH   3   5
BRANCH   1  19
HETATM   19  N1  UNL     1      16.910 -14.939  23.390  1.00  0.00    -0.308 N 
HETATM   20  C7  UNL     1      18.055 -15.056  23.861  1.00  0.00     0.129 C 
ATOM     21  H1  UNL     1      16.216 -15.515  23.867  1.00  0.00     0.186 HD
BRANCH  20  22
HETATM   22  C6  UNL     1      18.288 -15.970  25.010  1.00  0.00     0.057 A 
HETATM   23  C4  UNL     1      19.130 -15.827  26.077  1.00  0.00     0.089 A 
HETATM   24  C3  UNL     1      19.142 -16.825  26.981  1.00  0.00     0.082 A 
HETATM   25  C2  UNL     1      18.316 -17.890  26.753  1.00  0.00     0.112 A 
HETATM   26  S2  UNL     1      17.546 -17.467  25.287  1.00  0.00    -0.061 SA
BRANCH  23  27
HETATM   27  O2  UNL     1      19.936 -14.657  26.182  1.00  0.00    -0.354 OA
HETATM   28  C5  UNL     1      20.582 -14.273  27.354  1.00  0.00     0.210 C 
ENDBRANCH  23  27
BRANCH  25  29
HETATM   29  O1  UNL     1      18.156 -19.042  27.551  1.00  0.00    -0.349 OA
HETATM   30  C1  UNL     1      17.168 -19.979  27.125  1.00  0.00     0.211 C 
ENDBRANCH  25  29
ENDBRANCH  20  22
ENDBRANCH   1  19
TORSDOF 7
ENDMDL
MODEL 5
REMARK VINA RESULT: -6.253637652      1.593      1.796
REMARK  7 active torsions:
REMARK  status: ('A' for Active; 'I' for Inactive)
REMARK    1  A    between atoms: O1_2  and  C2_3 
REMARK    2  A    between atoms: C4_5  and  O2_6 
REMARK    3  A    between atoms: C6_8  and  C7_9 
REMARK    4  A    between atoms: N1_10  and  N2_12 
REMARK       I    between atoms: N2_12  and  C8_14 
REMARK    5  A    between atoms: C8_14  and  C9_16 
REMARK    6  A    between atoms: C11_18  and  S1_19 
REMARK    7  A    between atoms: S1_19  and  N3_20 
ROOT
HETATM    1  N2  UNL     1      18.484 -14.612  23.392  1.00  0.00    -0.266 N 
ATOM      2  H2  UNL     1      18.292 -13.735  23.876  1.00  0.00     0.190 HD
HETATM    3  C8  UNL     1      17.684 -14.902  22.276  1.00  0.00     0.273 C 
HETATM    4  O3  UNL     1      17.914 -16.000  21.672  1.00  0.00    -0.266 OA
ENDROOT
BRANCH   3   5
HETATM    5  C9  UNL     1      16.625 -14.100  21.737  1.00  0.00     0.073 A 
HETATM    6  C10 UNL     1      15.309 -14.590  21.736  1.00  0.00     0.047 A 
HETATM    7  C11 UNL     1      14.236 -13.899  21.276  1.00  0.00     0.102 A 
HETATM    8  C12 UNL     1      14.466 -12.625  20.776  1.00  0.00     0.060 A 
HETATM    9 CL1  UNL     1      13.077 -11.733  20.184  1.00  0.00    -0.083 Cl
HETATM   10  C13 UNL     1      15.736 -12.106  20.759  1.00  0.00     0.068 A 
HETATM   11  C14 UNL     1      16.820 -12.841  21.238  1.00  0.00     0.133 A 
HETATM   12  F1  UNL     1      18.035 -12.232  21.148  1.00  0.00    -0.205 F 
BRANCH   7  13
HETATM   13  S1  UNL     1      12.608 -14.565  21.304  1.00  0.00     0.258 S 
HETATM   14  O4  UNL     1      11.920 -14.476  19.994  1.00  0.00    -0.201 OA
HETATM   15  O5  UNL     1      12.723 -15.992  21.782  1.00  0.00    -0.201 OA
BRANCH  13  16
HETATM   16  N3  UNL     1      11.718 -13.657  22.500  1.00  0.00    -0.324 N 
ATOM     17  H32 UNL     1      11.768 -12.648  22.644  1.00  0.00     0.169 HD
ATOM     18  H31 UNL     1      11.149 -14.330  23.013  1.00  0.00     0.169 HD
ENDBRANCH  13  16
ENDBRANCH   7  13
ENDBRANCH   3   5
BRANCH   1  19
HETATM   19  N1  UNL     1      19.504 -15.389  23.902  1.00  0.00    -0.308 N 
HETATM   20  C7  UNL     1      19.822 -15.729  25.055  1.00  0.00     0.129 C 
ATOM     21  H1  UNL     1      20.126 -15.762  23.184  1.00  0.00     0.186 HD
BRANCH  20  22
HETATM   22  C6  UNL     1      21.010 -16.597  25.265  1.00  0.00     0.057 A 
HETATM   23  C4  UNL     1      22.282 -16.459  24.786  1.00  0.00     0.089 A 
HETATM   24  C3  UNL     1      23.171 -17.408  25.138  1.00  0.00     0.082 A 
HETATM   25  C2  UNL     1      22.725 -18.422  25.939  1.00  0.00     0.112 A 
HETATM   26  S2  UNL     1      21.081 -18.021  26.179  1.00  0.00    -0.061 SA
BRANCH  23  27
HETATM   27  O2  UNL     1      22.603 -15.346  23.958  1.00  0.00    -0.354 OA
HETATM   28  C5  UNL     1      23.580 -14.408  24.277  1.00  0.00     0.210 C 
ENDBRANCH  23  27
BRANCH  25  29
HETATM   29  O1  UNL     1      23.463 -19.518  26.434  1.00  0.00    -0.349 OA
HETATM   30  C1  UNL     1      23.524 -19.657  27.852  1.00  0.00     0.211 C 
ENDBRANCH  25  29
ENDBRANCH  20  22
ENDBRANCH   1  19
TORSDOF 7
ENDMDL
