MODEL 1
REMARK VINA RESULT: -12.037102523      0.000      0.000
REMARK  5 active torsions:
REMARK  status: ('A' for Active; 'I' for Inactive)
REMARK    1  A    between atoms: C1_1  and  C13_15 
REMARK    2  A    between atoms: C2_2  and  C3_3 
REMARK    3  A    between atoms: C6_8  and  C7_9 
REMARK    4  A    between atoms: C15_17  and  C16_18 
REMARK    5  A    between atoms: C16_18  and  C17_19 
ROOT
HETATM    1  C13 UNL     1      57.096  36.177  33.980  1.00  0.00     0.033 A 
HETATM    2  C14 UNL     1      57.909  37.056  33.327  1.00  0.00     0.037 A 
HETATM    3  C15 UNL     1      58.370  38.237  33.929  1.00  0.00    -0.039 A 
HETATM    4  C23 UNL     1      57.973  38.477  35.211  1.00  0.00    -0.003 A 
HETATM    5  C24 UNL     1      58.376  39.581  35.923  1.00  0.00     0.014 A 
HETATM    6  C25 UNL     1      58.004  39.843  37.239  1.00  0.00     0.001 A 
HETATM    7  C26 UNL     1      57.180  38.926  37.847  1.00  0.00     0.002 A 
HETATM    8  C27 UNL     1      56.740  37.799  37.196  1.00  0.00     0.030 A 
HETATM    9  C28 UNL     1      57.137  37.583  35.896  1.00  0.00     0.043 A 
HETATM   10  N2  UNL     1      56.742  36.474  35.234  1.00  0.00    -0.356 N 
ATOM     11  H2  UNL     1      56.133  35.819  35.724  1.00  0.00     0.166 HD
ENDROOT
BRANCH   1  12
HETATM   12  C1  UNL     1      56.643  34.959  33.302  1.00  0.00     0.030 C 
HETATM   13  C2  UNL     1      56.846  34.726  32.039  1.00  0.00     0.016 C 
BRANCH  13  14
HETATM   14  C3  UNL     1      56.376  33.504  31.421  1.00  0.00    -0.008 A 
HETATM   15  C4  UNL     1      55.573  32.508  31.983  1.00  0.00     0.100 A 
HETATM   16  N1  UNL     1      55.340  31.531  31.119  1.00  0.00    -0.374 N 
HETATM   17  C5  UNL     1      55.968  31.843  29.982  1.00  0.00     0.100 A 
ATOM     18  H1  UNL     1      54.783  30.695  31.291  1.00  0.00     0.164 HD
HETATM   19  C6  UNL     1      56.623  33.059  30.126  1.00  0.00     0.001 A 
BRANCH  19  20
HETATM   20  C7  UNL     1      57.416  33.709  29.092  1.00  0.00    -0.024 A 
HETATM   21  C8  UNL     1      57.964  32.960  28.056  1.00  0.00     0.012 A 
HETATM   22  C9  UNL     1      58.723  33.542  27.065  1.00  0.00     0.001 A 
HETATM   23  C10 UNL     1      58.966  34.897  27.068  1.00  0.00     0.000 A 
HETATM   24  C11 UNL     1      58.443  35.655  28.069  1.00  0.00     0.001 A 
HETATM   25  C12 UNL     1      57.679  35.060  29.066  1.00  0.00     0.012 A 
ENDBRANCH  19  20
ENDBRANCH  13  14
ENDBRANCH   1  12
BRANCH   3  26
HETATM   26  C16 UNL     1      59.176  39.203  33.164  1.00  0.00     0.078 C 
BRANCH  26  27
HETATM   27  C17 UNL     1      60.313  38.633  32.432  1.00  0.00    -0.054 A 
HETATM   28  C18 UNL     1      60.271  37.634  31.515  1.00  0.00     0.007 A 
HETATM   29  C19 UNL     1      61.392  37.141  30.870  1.00  0.00     0.001 A 
HETATM   30  C20 UNL     1      62.634  37.661  31.140  1.00  0.00     0.000 A 
HETATM   31  C21 UNL     1      62.725  38.676  32.065  1.00  0.00     0.001 A 
HETATM   32  C22 UNL     1      61.596  39.148  32.693  1.00  0.00     0.007 A 
ENDBRANCH  26  27
ENDBRANCH   3  26
TORSDOF 5
ENDMDL
MODEL 2
REMARK VINA RESULT: -11.835188443      5.275      9.462
REMARK  5 active torsions:
REMARK  status: ('A' for Active; 'I' for Inactive)
REMARK    1  A    between atoms: C1_1  and  C13_15 
REMARK    2  A    between atoms: C2_2  and  C3_3 
REMARK    3  A    between atoms: C6_8  and  C7_9 
REMARK    4  A    between atoms: C15_17  and  C16_18 
REMARK    5  A    between atoms: C16_18  and  C17_19 
ROOT
HETATM    1  C13 UNL     1      57.928  34.471  26.594  1.00  0.00     0.033 A 
HETATM    2  C14 UNL     1      56.806  33.843  26.144  1.00  0.00     0.037 A 
HETATM    3  C15 UNL     1      56.105  32.912  26.926  1.00  0.00    -0.039 A 
HETATM    4  C23 UNL     1      56.593  32.657  28.174  1.00  0.00    -0.003 A 
HETATM    5  C24 UNL     1      55.986  31.790  29.050  1.00  0.00     0.014 A 
HETATM    6  C25 UNL     1      56.448  31.524  30.336  1.00  0.00     0.001 A 
HETATM    7  C26 UNL     1      57.587  32.182  30.737  1.00  0.00     0.002 A 
HETATM    8  C27 UNL     1      58.244  33.064  29.914  1.00  0.00     0.030 A 
HETATM    9  C28 UNL     1      57.747  33.295  28.651  1.00  0.00     0.043 A 
HETATM   10  N2  UNL     1      58.355  34.173  27.825  1.00  0.00    -0.356 N 
ATOM     11  H2  UNL     1      59.196  34.641  28.163  1.00  0.00     0.166 HD
ENDROOT
BRANCH   1  12
HETATM   12  C1  UNL     1      58.622  35.435  25.733  1.00  0.00     0.030 C 
HETATM   13  C2  UNL     1      59.306  36.441  26.193  1.00  0.00     0.016 C 
BRANCH  13  14
HETATM   14  C3  UNL     1      59.972  37.362  25.297  1.00  0.00    -0.008 A 
HETATM   15  C4  UNL     1      59.433  38.032  24.195  1.00  0.00     0.100 A 
HETATM   16  N1  UNL     1      60.339  38.800  23.607  1.00  0.00    -0.374 N 
HETATM   17  C5  UNL     1      61.481  38.665  24.286  1.00  0.00     0.100 A 
ATOM     18  H1  UNL     1      60.191  39.386  22.786  1.00  0.00     0.164 HD
HETATM   19  C6  UNL     1      61.297  37.782  25.343  1.00  0.00     0.001 A 
BRANCH  19  20
HETATM   20  C7  UNL     1      62.328  37.390  26.294  1.00  0.00    -0.024 A 
HETATM   21  C8  UNL     1      63.492  36.773  25.848  1.00  0.00     0.012 A 
HETATM   22  C9  UNL     1      64.485  36.385  26.721  1.00  0.00     0.001 A 
HETATM   23  C10 UNL     1      64.356  36.598  28.074  1.00  0.00     0.000 A 
HETATM   24  C11 UNL     1      63.228  37.200  28.539  1.00  0.00     0.001 A 
HETATM   25  C12 UNL     1      62.230  37.587  27.652  1.00  0.00     0.012 A 
ENDBRANCH  19  20
ENDBRANCH  13  14
ENDBRANCH   1  12
BRANCH   3  26
HETATM   26  C16 UNL     1      54.946  32.191  26.376  1.00  0.00     0.078 C 
BRANCH  26  27
HETATM   27  C17 UNL     1      54.982  31.956  24.927  1.00  0.00    -0.054 A 
HETATM   28  C18 UNL     1      55.957  31.320  24.231  1.00  0.00     0.007 A 
HETATM   29  C19 UNL     1      55.925  31.143  22.858  1.00  0.00     0.001 A 
HETATM   30  C20 UNL     1      54.870  31.619  22.121  1.00  0.00     0.000 A 
HETATM   31  C21 UNL     1      53.856  32.273  22.786  1.00  0.00     0.001 A 
HETATM   32  C22 UNL     1      53.912  32.436  24.150  1.00  0.00     0.007 A 
ENDBRANCH  26  27
ENDBRANCH   3  26
TORSDOF 5
ENDMDL
MODEL 3
REMARK VINA RESULT: -11.644501913      4.882      7.546
REMARK  5 active torsions:
REMARK  status: ('A' for Active; 'I' for Inactive)
REMARK    1  A    between atoms: C1_1  and  C13_15 
REMARK    2  A    between atoms: C2_2  and  C3_3 
REMARK    3  A    between atoms: C6_8  and  C7_9 
REMARK    4  A    between atoms: C15_17  and  C16_18 
REMARK    5  A    between atoms: C16_18  and  C17_19 
ROOT
HETATM    1  C13 UNL     1      56.761  33.009  26.770  1.00  0.00     0.033 A 
HETATM    2  C14 UNL     1      57.319  34.248  26.875  1.00  0.00     0.037 A 
HETATM    3  C15 UNL     1      57.924  34.697  28.060  1.00  0.00    -0.039 A 
HETATM    4  C23 UNL     1      57.937  33.835  29.116  1.00  0.00    -0.003 A 
HETATM    5  C24 UNL     1      58.522  34.141  30.322  1.00  0.00     0.014 A 
HETATM    6  C25 UNL     1      58.569  33.276  31.412  1.00  0.00     0.001 A 
HETATM    7  C26 UNL     1      57.987  32.041  31.251  1.00  0.00     0.002 A 
HETATM    8  C27 UNL     1      57.386  31.667  30.073  1.00  0.00     0.030 A 
HETATM    9  C28 UNL     1      57.367  32.558  29.024  1.00  0.00     0.043 A 
HETATM   10  N2  UNL     1      56.805  32.215  27.844  1.00  0.00    -0.356 N 
ATOM     11  H2  UNL     1      56.387  31.288  27.768  1.00  0.00     0.166 HD
ENDROOT
BRANCH   1  12
HETATM   12  C1  UNL     1      56.141  32.591  25.508  1.00  0.00     0.030 C 
HETATM   13  C2  UNL     1      55.555  33.418  24.692  1.00  0.00     0.016 C 
BRANCH  13  14
HETATM   14  C3  UNL     1      54.959  32.951  23.459  1.00  0.00    -0.008 A 
HETATM   15  C4  UNL     1      53.738  32.293  23.288  1.00  0.00     0.100 A 
HETATM   16  N1  UNL     1      53.513  32.017  22.012  1.00  0.00    -0.374 N 
HETATM   17  C5  UNL     1      54.555  32.474  21.313  1.00  0.00     0.100 A 
ATOM     18  H1  UNL     1      52.693  31.543  21.632  1.00  0.00     0.164 HD
HETATM   19  C6  UNL     1      55.475  33.061  22.172  1.00  0.00     0.001 A 
BRANCH  19  20
HETATM   20  C7  UNL     1      56.738  33.661  21.762  1.00  0.00    -0.024 A 
HETATM   21  C8  UNL     1      57.009  33.867  20.414  1.00  0.00     0.012 A 
HETATM   22  C9  UNL     1      58.194  34.428  19.992  1.00  0.00     0.001 A 
HETATM   23  C10 UNL     1      59.157  34.805  20.899  1.00  0.00     0.000 A 
HETATM   24  C11 UNL     1      58.920  34.615  22.225  1.00  0.00     0.001 A 
HETATM   25  C12 UNL     1      57.721  34.048  22.643  1.00  0.00     0.012 A 
ENDBRANCH  19  20
ENDBRANCH  13  14
ENDBRANCH   1  12
BRANCH   3  26
HETATM   26  C16 UNL     1      58.440  36.072  28.163  1.00  0.00     0.078 C 
BRANCH  26  27
HETATM   27  C17 UNL     1      59.380  36.472  27.109  1.00  0.00    -0.054 A 
HETATM   28  C18 UNL     1      59.093  36.673  25.798  1.00  0.00     0.007 A 
HETATM   29  C19 UNL     1      60.039  37.043  24.857  1.00  0.00     0.001 A 
HETATM   30  C20 UNL     1      61.348  37.228  25.224  1.00  0.00     0.000 A 
HETATM   31  C21 UNL     1      61.686  37.034  26.545  1.00  0.00     0.001 A 
HETATM   32  C22 UNL     1      60.727  36.667  27.460  1.00  0.00     0.007 A 
ENDBRANCH  26  27
ENDBRANCH   3  26
TORSDOF 5
ENDMDL
MODEL 4
REMARK VINA RESULT: -11.581057344      2.078      4.958
REMARK  5 active torsions:
REMARK  status: ('A' for Active; 'I' for Inactive)
REMARK    1  A    between atoms: C1_1  and  C13_15 
REMARK    2  A    between atoms: C2_2  and  C3_3 
REMARK    3  A    between atoms: C6_8  and  C7_9 
REMARK    4  A    between atoms: C15_17  and  C16_18 
REMARK    5  A    between atoms: C16_18  and  C17_19 
ROOT
HETATM    1  C13 UNL     1      58.986  37.835  33.223  1.00  0.00     0.033 A 
HETATM    2  C14 UNL     1      58.138  36.780  33.381  1.00  0.00     0.037 A 
HETATM    3  C15 UNL     1      57.353  36.618  34.534  1.00  0.00    -0.039 A 
HETATM    4  C23 UNL     1      57.468  37.571  35.502  1.00  0.00    -0.003 A 
HETATM    5  C24 UNL     1      56.735  37.545  36.665  1.00  0.00     0.014 A 
HETATM    6  C25 UNL     1      56.815  38.513  37.663  1.00  0.00     0.001 A 
HETATM    7  C26 UNL     1      57.690  39.553  37.453  1.00  0.00     0.002 A 
HETATM    8  C27 UNL     1      58.452  39.643  36.313  1.00  0.00     0.030 A 
HETATM    9  C28 UNL     1      58.336  38.662  35.355  1.00  0.00     0.043 A 
HETATM   10  N2  UNL     1      59.053  38.731  34.212  1.00  0.00    -0.356 N 
ATOM     11  H2  UNL     1      59.688  39.521  34.096  1.00  0.00     0.166 HD
ENDROOT
BRANCH   1  12
HETATM   12  C1  UNL     1      59.784  37.954  31.999  1.00  0.00     0.030 C 
HETATM   13  C2  UNL     1      60.233  36.929  31.335  1.00  0.00     0.016 C 
BRANCH  13  14
HETATM   14  C3  UNL     1      61.016  37.104  30.132  1.00  0.00    -0.008 A 
HETATM   15  C4  UNL     1      62.263  37.720  29.998  1.00  0.00     0.100 A 
HETATM   16  N1  UNL     1      62.683  37.695  28.742  1.00  0.00    -0.374 N 
HETATM   17  C5  UNL     1      61.747  37.074  28.019  1.00  0.00     0.100 A 
ATOM     18  H1  UNL     1      63.560  38.079  28.391  1.00  0.00     0.164 HD
HETATM   19  C6  UNL     1      60.696  36.691  28.843  1.00  0.00     0.001 A 
BRANCH  19  20
HETATM   20  C7  UNL     1      59.496  35.995  28.398  1.00  0.00    -0.024 A 
HETATM   21  C8  UNL     1      59.316  35.702  27.051  1.00  0.00     0.012 A 
HETATM   22  C9  UNL     1      58.192  35.049  26.596  1.00  0.00     0.001 A 
HETATM   23  C10 UNL     1      57.201  34.663  27.469  1.00  0.00     0.000 A 
HETATM   24  C11 UNL     1      57.349  34.937  28.793  1.00  0.00     0.001 A 
HETATM   25  C12 UNL     1      58.486  35.596  29.244  1.00  0.00     0.012 A 
ENDBRANCH  19  20
ENDBRANCH  13  14
ENDBRANCH   1  12
BRANCH   3  26
HETATM   26  C16 UNL     1      56.513  35.422  34.706  1.00  0.00     0.078 C 
BRANCH  26  27
HETATM   27  C17 UNL     1      56.659  34.395  33.667  1.00  0.00    -0.054 A 
HETATM   28  C18 UNL     1      57.700  33.540  33.510  1.00  0.00     0.007 A 
HETATM   29  C19 UNL     1      57.772  32.600  32.497  1.00  0.00     0.001 A 
HETATM   30  C20 UNL     1      56.757  32.490  31.579  1.00  0.00     0.000 A 
HETATM   31  C21 UNL     1      55.679  33.338  31.698  1.00  0.00     0.001 A 
HETATM   32  C22 UNL     1      55.632  34.264  32.715  1.00  0.00     0.007 A 
ENDBRANCH  26  27
ENDBRANCH   3  26
TORSDOF 5
ENDMDL
MODEL 5
REMARK VINA RESULT: -11.430702826      3.447      8.563
REMARK  5 active torsions:
REMARK  status: ('A' for Active; 'I' for Inactive)
REMARK    1  A    between atoms: C1_1  and  C13_15 
REMARK    2  A    between atoms: C2_2  and  C3_3 
REMARK    3  A    between atoms: C6_8  and  C7_9 
REMARK    4  A    between atoms: C15_17  and  C16_18 
REMARK    5  A    between atoms: C16_18  and  C17_19 
ROOT
HETATM    1  C13 UNL     1      58.345  35.121  26.878  1.00  0.00     0.033 A 
HETATM    2  C14 UNL     1      58.886  36.276  26.396  1.00  0.00     0.037 A 
HETATM    3  C15 UNL     1      59.137  36.471  25.029  1.00  0.00    -0.039 A 
HETATM    4  C23 UNL     1      58.811  35.449  24.186  1.00  0.00    -0.003 A 
HETATM    5  C24 UNL     1      58.979  35.524  22.824  1.00  0.00     0.014 A 
HETATM    6  C25 UNL     1      58.638  34.506  21.936  1.00  0.00     0.001 A 
HETATM    7  C26 UNL     1      58.100  33.363  22.477  1.00  0.00     0.002 A 
HETATM    8  C27 UNL     1      57.902  33.221  23.829  1.00  0.00     0.030 A 
HETATM    9  C28 UNL     1      58.254  34.256  24.666  1.00  0.00     0.043 A 
HETATM   10  N2  UNL     1      58.052  34.159  25.999  1.00  0.00    -0.356 N 
ATOM     11  H2  UNL     1      57.648  33.294  26.357  1.00  0.00     0.166 HD
ENDROOT
BRANCH   1  12
HETATM   12  C1  UNL     1      58.106  34.971  28.317  1.00  0.00     0.030 C 
HETATM   13  C2  UNL     1      58.843  35.537  29.227  1.00  0.00     0.016 C 
BRANCH  13  14
HETATM   14  C3  UNL     1      58.561  35.355  30.635  1.00  0.00    -0.008 A 
HETATM   15  C4  UNL     1      57.680  34.446  31.226  1.00  0.00     0.100 A 
HETATM   16  N1  UNL     1      57.681  34.560  32.546  1.00  0.00    -0.374 N 
HETATM   17  C5  UNL     1      58.544  35.528  32.863  1.00  0.00     0.100 A 
ATOM     18  H1  UNL     1      57.124  34.010  33.199  1.00  0.00     0.164 HD
HETATM   19  C6  UNL     1      59.112  36.048  31.707  1.00  0.00     0.001 A 
BRANCH  19  20
HETATM   20  C7  UNL     1      60.094  37.123  31.669  1.00  0.00    -0.024 A 
HETATM   21  C8  UNL     1      59.879  38.292  32.390  1.00  0.00     0.012 A 
HETATM   22  C9  UNL     1      60.785  39.330  32.372  1.00  0.00     0.001 A 
HETATM   23  C10 UNL     1      61.942  39.242  31.633  1.00  0.00     0.000 A 
HETATM   24  C11 UNL     1      62.179  38.110  30.917  1.00  0.00     0.001 A 
HETATM   25  C12 UNL     1      61.260  37.068  30.940  1.00  0.00     0.012 A 
ENDBRANCH  19  20
ENDBRANCH  13  14
ENDBRANCH   1  12
BRANCH   3  26
HETATM   26  C16 UNL     1      59.800  37.697  24.556  1.00  0.00     0.078 C 
BRANCH  26  27
HETATM   27  C17 UNL     1      61.234  37.791  24.855  1.00  0.00    -0.054 A 
HETATM   28  C18 UNL     1      61.878  37.262  25.926  1.00  0.00     0.007 A 
HETATM   29  C19 UNL     1      63.237  37.400  26.146  1.00  0.00     0.001 A 
HETATM   30  C20 UNL     1      64.017  38.101  25.259  1.00  0.00     0.000 A 
HETATM   31  C21 UNL     1      63.406  38.656  24.157  1.00  0.00     0.001 A 
HETATM   32  C22 UNL     1      62.053  38.505  23.962  1.00  0.00     0.007 A 
ENDBRANCH  26  27
ENDBRANCH   3  26
TORSDOF 5
ENDMDL
