MODEL 1
REMARK VINA RESULT: -12.058102277      0.000      0.000
REMARK  4 active torsions:
REMARK  status: ('A' for Active; 'I' for Inactive)
REMARK    1  A    between atoms: C1_1  and  C24_28 
REMARK    2  A    between atoms: C2_2  and  C3_3 
REMARK    3  A    between atoms: C7_7  and  C8_8 
REMARK    4  A    between atoms: C9_11  and  C10_12 
ROOT
HETATM    1  C8  UNL     1      58.660  35.397  26.295  1.00  0.00     0.116 A 
HETATM    2  N1  UNL     1      58.008  34.800  25.286  1.00  0.00    -0.339 N 
ATOM      3  H1  UNL     1      58.129  35.037  24.301  1.00  0.00     0.167 HD
HETATM    4  C9  UNL     1      57.174  33.851  25.741  1.00  0.00     0.072 A 
HETATM    5  C16 UNL     1      57.319  33.860  27.121  1.00  0.00     0.072 A 
HETATM    6  C17 UNL     1      56.634  33.018  28.075  1.00  0.00    -0.007 A 
HETATM    7  C18 UNL     1      57.346  32.168  28.871  1.00  0.00     0.014 A 
HETATM    8  C19 UNL     1      56.712  31.340  29.804  1.00  0.00     0.001 A 
HETATM    9  C20 UNL     1      55.341  31.428  29.874  1.00  0.00     0.000 A 
HETATM   10  C21 UNL     1      54.581  32.268  29.093  1.00  0.00     0.001 A 
HETATM   11  C22 UNL     1      55.274  33.069  28.182  1.00  0.00     0.014 A 
HETATM   12  N2  UNL     1      58.233  34.814  27.422  1.00  0.00    -0.339 N 
ATOM     13  H2  UNL     1      58.547  35.052  28.363  1.00  0.00     0.167 HD
ENDROOT
BRANCH   1  14
HETATM   14  C7  UNL     1      59.658  36.488  26.188  1.00  0.00     0.009 A 
HETATM   15  C6  UNL     1      59.554  37.436  25.207  1.00  0.00     0.015 A 
HETATM   16  C5  UNL     1      60.465  38.448  25.099  1.00  0.00     0.002 A 
HETATM   17  C4  UNL     1      61.487  38.481  26.007  1.00  0.00     0.011 A 
HETATM   18  C3  UNL     1      61.679  37.579  27.022  1.00  0.00    -0.035 A 
HETATM   19  C23 UNL     1      60.691  36.560  27.069  1.00  0.00     0.026 A 
BRANCH  18  20
HETATM   20  C2  UNL     1      62.770  37.532  27.950  1.00  0.00     0.012 C 
HETATM   21  C1  UNL     1      62.879  37.634  29.202  1.00  0.00     0.012 C 
BRANCH  21  22
HETATM   22  C24 UNL     1      62.013  37.859  30.302  1.00  0.00    -0.036 A 
HETATM   23  C25 UNL     1      61.987  39.099  30.967  1.00  0.00     0.011 A 
HETATM   24  C26 UNL     1      61.076  39.400  31.934  1.00  0.00     0.001 A 
HETATM   25  C27 UNL     1      60.124  38.500  32.316  1.00  0.00     0.000 A 
HETATM   26  C28 UNL     1      60.112  37.277  31.692  1.00  0.00     0.001 A 
HETATM   27  C29 UNL     1      61.035  36.981  30.715  1.00  0.00     0.011 A 
ENDBRANCH  21  22
ENDBRANCH  18  20
ENDBRANCH   1  14
BRANCH   4  28
HETATM   28  C10 UNL     1      56.293  32.982  24.969  1.00  0.00    -0.007 A 
HETATM   29  C11 UNL     1      56.769  31.865  24.316  1.00  0.00     0.014 A 
HETATM   30  C12 UNL     1      55.956  31.030  23.581  1.00  0.00     0.001 A 
HETATM   31  C13 UNL     1      54.598  31.304  23.480  1.00  0.00     0.000 A 
HETATM   32  C14 UNL     1      54.086  32.411  24.119  1.00  0.00     0.001 A 
HETATM   33  C15 UNL     1      54.928  33.225  24.847  1.00  0.00     0.014 A 
ENDBRANCH   4  28
TORSDOF 4
ENDMDL
MODEL 2
REMARK VINA RESULT: -11.903582441      0.883      3.396
REMARK  4 active torsions:
REMARK  status: ('A' for Active; 'I' for Inactive)
REMARK    1  A    between atoms: C1_1  and  C24_28 
REMARK    2  A    between atoms: C2_2  and  C3_3 
REMARK    3  A    between atoms: C7_7  and  C8_8 
REMARK    4  A    between atoms: C9_11  and  C10_12 
ROOT
HETATM    1  C8  UNL     1      59.016  35.717  26.522  1.00  0.00     0.116 A 
HETATM    2  N1  UNL     1      58.286  35.422  27.608  1.00  0.00    -0.339 N 
ATOM      3  H1  UNL     1      58.460  35.801  28.539  1.00  0.00     0.167 HD
HETATM    4  C9  UNL     1      57.297  34.564  27.311  1.00  0.00     0.072 A 
HETATM    5  C16 UNL     1      57.421  34.310  25.952  1.00  0.00     0.072 A 
HETATM    6  C17 UNL     1      56.591  33.444  25.146  1.00  0.00    -0.007 A 
HETATM    7  C18 UNL     1      55.874  33.960  24.106  1.00  0.00     0.014 A 
HETATM    8  C19 UNL     1      55.060  33.148  23.308  1.00  0.00     0.001 A 
HETATM    9  C20 UNL     1      55.021  31.811  23.628  1.00  0.00     0.000 A 
HETATM   10  C21 UNL     1      55.724  31.245  24.667  1.00  0.00     0.001 A 
HETATM   11  C22 UNL     1      56.519  32.110  25.426  1.00  0.00     0.014 A 
HETATM   12  N2  UNL     1      58.479  35.030  25.504  1.00  0.00    -0.339 N 
ATOM     13  H2  UNL     1      58.815  35.046  24.542  1.00  0.00     0.167 HD
ENDROOT
BRANCH   1  14
HETATM   14  C7  UNL     1      60.187  36.623  26.454  1.00  0.00     0.009 A 
HETATM   15  C6  UNL     1      60.369  37.450  25.379  1.00  0.00     0.015 A 
HETATM   16  C5  UNL     1      61.442  38.292  25.305  1.00  0.00     0.002 A 
HETATM   17  C4  UNL     1      62.330  38.280  26.345  1.00  0.00     0.011 A 
HETATM   18  C3  UNL     1      62.237  37.489  27.462  1.00  0.00    -0.035 A 
HETATM   19  C23 UNL     1      61.095  36.644  27.465  1.00  0.00     0.026 A 
BRANCH  18  20
HETATM   20  C2  UNL     1      63.177  37.391  28.540  1.00  0.00     0.012 C 
HETATM   21  C1  UNL     1      63.112  37.517  29.792  1.00  0.00     0.012 C 
BRANCH  21  22
HETATM   22  C24 UNL     1      62.115  37.830  30.750  1.00  0.00    -0.036 A 
HETATM   23  C25 UNL     1      62.038  39.111  31.330  1.00  0.00     0.011 A 
HETATM   24  C26 UNL     1      61.016  39.491  32.146  1.00  0.00     0.001 A 
HETATM   25  C27 UNL     1      59.996  38.637  32.452  1.00  0.00     0.000 A 
HETATM   26  C28 UNL     1      60.030  37.378  31.907  1.00  0.00     0.001 A 
HETATM   27  C29 UNL     1      61.066  37.001  31.082  1.00  0.00     0.011 A 
ENDBRANCH  21  22
ENDBRANCH  18  20
ENDBRANCH   1  14
BRANCH   4  28
HETATM   28  C10 UNL     1      56.293  34.002  28.207  1.00  0.00    -0.007 A 
HETATM   29  C11 UNL     1      55.160  34.706  28.555  1.00  0.00     0.014 A 
HETATM   30  C12 UNL     1      54.198  34.197  29.400  1.00  0.00     0.001 A 
HETATM   31  C13 UNL     1      54.354  32.924  29.934  1.00  0.00     0.000 A 
HETATM   32  C14 UNL     1      55.474  32.190  29.609  1.00  0.00     0.001 A 
HETATM   33  C15 UNL     1      56.416  32.731  28.760  1.00  0.00     0.014 A 
ENDBRANCH   4  28
TORSDOF 4
ENDMDL
MODEL 3
REMARK VINA RESULT: -11.378858062      2.612      8.834
REMARK  4 active torsions:
REMARK  status: ('A' for Active; 'I' for Inactive)
REMARK    1  A    between atoms: C1_1  and  C24_28 
REMARK    2  A    between atoms: C2_2  and  C3_3 
REMARK    3  A    between atoms: C7_7  and  C8_8 
REMARK    4  A    between atoms: C9_11  and  C10_12 
ROOT
HETATM    1  C8  UNL     1      58.437  35.075  29.386  1.00  0.00     0.116 A 
HETATM    2  N1  UNL     1      57.836  34.928  30.576  1.00  0.00    -0.339 N 
ATOM      3  H1  UNL     1      57.030  34.325  30.744  1.00  0.00     0.167 HD
HETATM    4  C9  UNL     1      58.433  35.677  31.518  1.00  0.00     0.072 A 
HETATM    5  C16 UNL     1      59.472  36.330  30.870  1.00  0.00     0.072 A 
HETATM    6  C17 UNL     1      60.416  37.257  31.450  1.00  0.00    -0.007 A 
HETATM    7  C18 UNL     1      61.749  36.964  31.449  1.00  0.00     0.014 A 
HETATM    8  C19 UNL     1      62.688  37.841  32.004  1.00  0.00     0.001 A 
HETATM    9  C20 UNL     1      62.198  39.006  32.548  1.00  0.00     0.000 A 
HETATM   10  C21 UNL     1      60.864  39.344  32.573  1.00  0.00     0.001 A 
HETATM   11  C22 UNL     1      59.977  38.426  32.002  1.00  0.00     0.014 A 
HETATM   12  N2  UNL     1      59.444  35.939  29.572  1.00  0.00    -0.339 N 
ATOM     13  H2  UNL     1      60.090  36.254  28.849  1.00  0.00     0.167 HD
ENDROOT
BRANCH   1  14
HETATM   14  C7  UNL     1      58.065  34.414  28.112  1.00  0.00     0.009 A 
HETATM   15  C6  UNL     1      57.436  33.199  28.114  1.00  0.00     0.015 A 
HETATM   16  C5  UNL     1      57.085  32.580  26.948  1.00  0.00     0.002 A 
HETATM   17  C4  UNL     1      57.386  33.219  25.776  1.00  0.00     0.011 A 
HETATM   18  C3  UNL     1      58.014  34.434  25.670  1.00  0.00    -0.035 A 
HETATM   19  C23 UNL     1      58.344  35.012  26.924  1.00  0.00     0.026 A 
BRANCH  18  20
HETATM   20  C2  UNL     1      58.410  35.105  24.468  1.00  0.00     0.012 C 
HETATM   21  C1  UNL     1      58.369  34.829  23.239  1.00  0.00     0.012 C 
BRANCH  21  22
HETATM   22  C24 UNL     1      57.943  33.741  22.436  1.00  0.00    -0.036 A 
HETATM   23  C25 UNL     1      58.760  32.609  22.250  1.00  0.00     0.011 A 
HETATM   24  C26 UNL     1      58.333  31.489  21.603  1.00  0.00     0.001 A 
HETATM   25  C27 UNL     1      57.071  31.402  21.092  1.00  0.00     0.000 A 
HETATM   26  C28 UNL     1      56.239  32.483  21.252  1.00  0.00     0.001 A 
HETATM   27  C29 UNL     1      56.677  33.611  21.908  1.00  0.00     0.011 A 
ENDBRANCH  21  22
ENDBRANCH  18  20
ENDBRANCH   1  14
BRANCH   4  28
HETATM   28  C10 UNL     1      58.083  35.796  32.929  1.00  0.00    -0.007 A 
HETATM   29  C11 UNL     1      58.239  34.742  33.804  1.00  0.00     0.014 A 
HETATM   30  C12 UNL     1      57.916  34.831  35.140  1.00  0.00     0.001 A 
HETATM   31  C13 UNL     1      57.409  36.020  35.649  1.00  0.00     0.000 A 
HETATM   32  C14 UNL     1      57.239  37.095  34.805  1.00  0.00     0.001 A 
HETATM   33  C15 UNL     1      57.574  36.971  33.473  1.00  0.00     0.014 A 
ENDBRANCH   4  28
TORSDOF 4
ENDMDL
MODEL 4
REMARK VINA RESULT: -11.330705658      2.327      9.079
REMARK  4 active torsions:
REMARK  status: ('A' for Active; 'I' for Inactive)
REMARK    1  A    between atoms: C1_1  and  C24_28 
REMARK    2  A    between atoms: C2_2  and  C3_3 
REMARK    3  A    between atoms: C7_7  and  C8_8 
REMARK    4  A    between atoms: C9_11  and  C10_12 
ROOT
HETATM    1  C8  UNL     1      58.395  35.360  29.145  1.00  0.00     0.116 A 
HETATM    2  N1  UNL     1      57.805  35.131  30.327  1.00  0.00    -0.339 N 
ATOM      3  H1  UNL     1      56.981  34.543  30.456  1.00  0.00     0.167 HD
HETATM    4  C9  UNL     1      58.438  35.778  31.319  1.00  0.00     0.072 A 
HETATM    5  C16 UNL     1      59.490  36.450  30.713  1.00  0.00     0.072 A 
HETATM    6  C17 UNL     1      60.472  37.293  31.355  1.00  0.00    -0.007 A 
HETATM    7  C18 UNL     1      61.794  36.959  31.309  1.00  0.00     0.014 A 
HETATM    8  C19 UNL     1      62.769  37.754  31.921  1.00  0.00     0.001 A 
HETATM    9  C20 UNL     1      62.325  38.884  32.569  1.00  0.00     0.000 A 
HETATM   10  C21 UNL     1      61.004  39.261  32.643  1.00  0.00     0.001 A 
HETATM   11  C22 UNL     1      60.080  38.425  32.011  1.00  0.00     0.014 A 
HETATM   12  N2  UNL     1      59.433  36.172  29.388  1.00  0.00    -0.339 N 
ATOM     13  H2  UNL     1      60.080  36.527  28.684  1.00  0.00     0.167 HD
ENDROOT
BRANCH   1  14
HETATM   14  C7  UNL     1      57.985  34.822  27.825  1.00  0.00     0.009 A 
HETATM   15  C6  UNL     1      58.576  35.269  26.675  1.00  0.00     0.015 A 
HETATM   16  C5  UNL     1      58.210  34.780  25.453  1.00  0.00     0.002 A 
HETATM   17  C4  UNL     1      57.229  33.828  25.420  1.00  0.00     0.011 A 
HETATM   18  C3  UNL     1      56.576  33.318  26.513  1.00  0.00    -0.035 A 
HETATM   19  C23 UNL     1      57.014  33.874  27.745  1.00  0.00     0.026 A 
BRANCH  18  20
HETATM   20  C2  UNL     1      55.498  32.374  26.521  1.00  0.00     0.012 C 
HETATM   21  C1  UNL     1      54.828  31.781  25.634  1.00  0.00     0.012 C 
BRANCH  21  22
HETATM   22  C24 UNL     1      54.782  31.753  24.217  1.00  0.00    -0.036 A 
HETATM   23  C25 UNL     1      53.727  32.362  23.511  1.00  0.00     0.011 A 
HETATM   24  C26 UNL     1      53.717  32.478  22.154  1.00  0.00     0.001 A 
HETATM   25  C27 UNL     1      54.745  32.002  21.394  1.00  0.00     0.000 A 
HETATM   26  C28 UNL     1      55.796  31.401  22.041  1.00  0.00     0.001 A 
HETATM   27  C29 UNL     1      55.800  31.289  23.413  1.00  0.00     0.011 A 
ENDBRANCH  21  22
ENDBRANCH  18  20
ENDBRANCH   1  14
BRANCH   4  28
HETATM   28  C10 UNL     1      58.110  35.788  32.741  1.00  0.00    -0.007 A 
HETATM   29  C11 UNL     1      58.283  34.671  33.530  1.00  0.00     0.014 A 
HETATM   30  C12 UNL     1      57.980  34.656  34.874  1.00  0.00     0.001 A 
HETATM   31  C13 UNL     1      57.479  35.801  35.480  1.00  0.00     0.000 A 
HETATM   32  C14 UNL     1      57.293  36.937  34.723  1.00  0.00     0.001 A 
HETATM   33  C15 UNL     1      57.608  36.916  33.381  1.00  0.00     0.014 A 
ENDBRANCH   4  28
TORSDOF 4
ENDMDL
MODEL 5
REMARK VINA RESULT: -11.288626081      3.283      6.018
REMARK  4 active torsions:
REMARK  status: ('A' for Active; 'I' for Inactive)
REMARK    1  A    between atoms: C1_1  and  C24_28 
REMARK    2  A    between atoms: C2_2  and  C3_3 
REMARK    3  A    between atoms: C7_7  and  C8_8 
REMARK    4  A    between atoms: C9_11  and  C10_12 
ROOT
HETATM    1  C8  UNL     1      56.191  32.569  26.823  1.00  0.00     0.116 A 
HETATM    2  N1  UNL     1      55.343  32.181  25.859  1.00  0.00    -0.339 N 
ATOM      3  H1  UNL     1      54.483  31.659  26.025  1.00  0.00     0.167 HD
HETATM    4  C9  UNL     1      55.775  32.567  24.648  1.00  0.00     0.072 A 
HETATM    5  C16 UNL     1      56.968  33.240  24.875  1.00  0.00     0.072 A 
HETATM    6  C17 UNL     1      57.826  33.852  23.887  1.00  0.00    -0.007 A 
HETATM    7  C18 UNL     1      58.063  35.195  23.925  1.00  0.00     0.014 A 
HETATM    8  C19 UNL     1      58.889  35.817  22.983  1.00  0.00     0.001 A 
HETATM    9  C20 UNL     1      59.445  35.006  22.021  1.00  0.00     0.000 A 
HETATM   10  C21 UNL     1      59.236  33.648  21.941  1.00  0.00     0.001 A 
HETATM   11  C22 UNL     1      58.401  33.088  22.913  1.00  0.00     0.014 A 
HETATM   12  N2  UNL     1      57.189  33.222  26.212  1.00  0.00    -0.339 N 
ATOM     13  H2  UNL     1      57.993  33.640  26.681  1.00  0.00     0.167 HD
ENDROOT
BRANCH   1  14
HETATM   14  C7  UNL     1      56.056  32.328  28.280  1.00  0.00     0.009 A 
HETATM   15  C6  UNL     1      54.827  32.103  28.838  1.00  0.00     0.015 A 
HETATM   16  C5  UNL     1      54.688  31.876  30.178  1.00  0.00     0.002 A 
HETATM   17  C4  UNL     1      55.822  31.882  30.943  1.00  0.00     0.011 A 
HETATM   18  C3  UNL     1      57.094  32.099  30.479  1.00  0.00    -0.035 A 
HETATM   19  C23 UNL     1      57.156  32.325  29.079  1.00  0.00     0.026 A 
BRANCH  18  20
HETATM   20  C2  UNL     1      58.299  32.185  31.251  1.00  0.00     0.012 C 
HETATM   21  C1  UNL     1      58.665  32.848  32.258  1.00  0.00     0.012 C 
BRANCH  21  22
HETATM   22  C24 UNL     1      58.105  33.834  33.108  1.00  0.00    -0.036 A 
HETATM   23  C25 UNL     1      58.390  35.201  32.926  1.00  0.00     0.011 A 
HETATM   24  C26 UNL     1      57.765  36.185  33.631  1.00  0.00     0.001 A 
HETATM   25  C27 UNL     1      56.815  35.895  34.566  1.00  0.00     0.000 A 
HETATM   26  C28 UNL     1      56.504  34.574  34.775  1.00  0.00     0.001 A 
HETATM   27  C29 UNL     1      57.138  33.585  34.059  1.00  0.00     0.011 A 
ENDBRANCH  21  22
ENDBRANCH  18  20
ENDBRANCH   1  14
BRANCH   4  28
HETATM   28  C10 UNL     1      55.143  32.341  23.353  1.00  0.00    -0.007 A 
HETATM   29  C11 UNL     1      53.814  32.633  23.136  1.00  0.00     0.014 A 
HETATM   30  C12 UNL     1      53.195  32.427  21.922  1.00  0.00     0.001 A 
HETATM   31  C13 UNL     1      53.921  31.906  20.859  1.00  0.00     0.000 A 
HETATM   32  C14 UNL     1      55.252  31.602  21.037  1.00  0.00     0.001 A 
HETATM   33  C15 UNL     1      55.839  31.821  22.266  1.00  0.00     0.014 A 
ENDBRANCH   4  28
TORSDOF 4
ENDMDL
