MODEL 1
REMARK VINA RESULT: -11.457166354      0.000      0.000
REMARK  4 active torsions:
REMARK  status: ('A' for Active; 'I' for Inactive)
REMARK    1  A    between atoms: C3_3  and  C4_4 
REMARK    2  A    between atoms: C10_12  and  C11_13 
REMARK    3  A    between atoms: C17_19  and  C18_20 
REMARK    4  A    between atoms: C22_24  and  C23_25 
ROOT
HETATM    1  C1  UNL     1      60.812  36.965  30.603  1.00  0.00     0.052 C 
HETATM    2  C2  UNL     1      59.812  36.255  29.744  1.00  0.00    -0.021 A 
HETATM    3  C3  UNL     1      59.731  36.142  28.379  1.00  0.00     0.050 A 
HETATM    4  N1  UNL     1      58.613  35.397  28.096  1.00  0.00    -0.354 N 
ATOM      5  H1  UNL     1      58.302  35.154  27.155  1.00  0.00     0.166 HD
HETATM    6  C10 UNL     1      57.989  35.035  29.219  1.00  0.00     0.054 A 
HETATM    7  C17 UNL     1      58.709  35.553  30.266  1.00  0.00     0.010 A 
ENDROOT
BRANCH   7   8
HETATM    8  C18 UNL     1      58.411  35.414  31.699  1.00  0.00    -0.022 A 
HETATM    9  C19 UNL     1      58.242  34.148  32.261  1.00  0.00     0.012 A 
HETATM   10  C20 UNL     1      57.952  33.966  33.596  1.00  0.00     0.002 A 
HETATM   11  C21 UNL     1      57.824  35.076  34.404  1.00  0.00     0.012 A 
HETATM   12  C22 UNL     1      57.986  36.364  33.880  1.00  0.00    -0.025 A 
HETATM   13  C28 UNL     1      58.271  36.484  32.555  1.00  0.00     0.024 A 
BRANCH  12  14
HETATM   14  C23 UNL     1      57.833  37.459  34.806  1.00  0.00    -0.023 A 
HETATM   15  C24 UNL     1      57.185  37.275  36.003  1.00  0.00     0.029 A 
HETATM   16  C25 UNL     1      57.029  38.325  36.911  1.00  0.00     0.088 A 
HETATM   17  N2  UNL     1      57.527  39.538  36.596  1.00  0.00    -0.375 N 
HETATM   18  C26 UNL     1      58.163  39.746  35.437  1.00  0.00     0.088 A 
ATOM     19  H2  UNL     1      57.417  40.310  37.253  1.00  0.00     0.164 HD
HETATM   20  C27 UNL     1      58.326  38.712  34.525  1.00  0.00     0.029 A 
ENDBRANCH  12  14
ENDBRANCH   7   8
BRANCH   6  21
HETATM   21  C11 UNL     1      56.766  34.239  29.374  1.00  0.00    -0.009 A 
HETATM   22  C12 UNL     1      55.547  34.792  29.681  1.00  0.00     0.014 A 
HETATM   23  C13 UNL     1      54.432  33.982  29.814  1.00  0.00     0.001 A 
HETATM   24  C14 UNL     1      54.597  32.615  29.627  1.00  0.00     0.000 A 
HETATM   25  C15 UNL     1      55.817  32.059  29.320  1.00  0.00     0.001 A 
HETATM   26  C16 UNL     1      56.903  32.884  29.193  1.00  0.00     0.014 A 
ENDBRANCH   6  21
BRANCH   3  27
HETATM   27  C4  UNL     1      60.594  36.702  27.366  1.00  0.00    -0.009 A 
HETATM   28  C5  UNL     1      61.912  37.010  27.490  1.00  0.00     0.014 A 
HETATM   29  C6  UNL     1      62.651  37.591  26.451  1.00  0.00     0.001 A 
HETATM   30  C7  UNL     1      62.051  37.874  25.245  1.00  0.00     0.000 A 
HETATM   31  C8  UNL     1      60.722  37.574  25.091  1.00  0.00     0.001 A 
HETATM   32  C9  UNL     1      60.008  37.002  26.125  1.00  0.00     0.014 A 
ENDBRANCH   3  27
TORSDOF 4
ENDMDL
MODEL 2
REMARK VINA RESULT: -10.940052407      4.359      6.329
REMARK  4 active torsions:
REMARK  status: ('A' for Active; 'I' for Inactive)
REMARK    1  A    between atoms: C3_3  and  C4_4 
REMARK    2  A    between atoms: C10_12  and  C11_13 
REMARK    3  A    between atoms: C17_19  and  C18_20 
REMARK    4  A    between atoms: C22_24  and  C23_25 
ROOT
HETATM    1  C1  UNL     1      58.145  34.408  23.409  1.00  0.00     0.052 C 
HETATM    2  C2  UNL     1      57.045  33.843  24.252  1.00  0.00    -0.021 A 
HETATM    3  C3  UNL     1      55.981  33.047  23.911  1.00  0.00     0.050 A 
HETATM    4  N1  UNL     1      55.256  32.822  25.055  1.00  0.00    -0.354 N 
ATOM      5  H1  UNL     1      54.406  32.261  25.101  1.00  0.00     0.166 HD
HETATM    6  C10 UNL     1      55.816  33.439  26.099  1.00  0.00     0.054 A 
HETATM    7  C17 UNL     1      56.934  34.085  25.635  1.00  0.00     0.010 A 
ENDROOT
BRANCH   7   8
HETATM    8  C18 UNL     1      57.877  34.896  26.418  1.00  0.00    -0.022 A 
HETATM    9  C19 UNL     1      58.806  35.711  25.772  1.00  0.00     0.012 A 
HETATM   10  C20 UNL     1      59.718  36.482  26.461  1.00  0.00     0.002 A 
HETATM   11  C21 UNL     1      59.710  36.444  27.840  1.00  0.00     0.012 A 
HETATM   12  C22 UNL     1      58.794  35.640  28.527  1.00  0.00    -0.025 A 
HETATM   13  C28 UNL     1      57.917  34.900  27.795  1.00  0.00     0.024 A 
BRANCH  12  14
HETATM   14  C23 UNL     1      58.866  35.670  29.967  1.00  0.00    -0.023 A 
HETATM   15  C24 UNL     1      57.994  34.926  30.724  1.00  0.00     0.029 A 
HETATM   16  C25 UNL     1      58.050  34.944  32.120  1.00  0.00     0.088 A 
HETATM   17  N2  UNL     1      58.981  35.709  32.725  1.00  0.00    -0.375 N 
HETATM   18  C26 UNL     1      59.844  36.444  32.012  1.00  0.00     0.088 A 
ATOM     19  H2  UNL     1      59.029  35.728  33.743  1.00  0.00     0.164 HD
HETATM   20  C27 UNL     1      59.800  36.436  30.625  1.00  0.00     0.029 A 
ENDBRANCH  12  14
ENDBRANCH   7   8
BRANCH   6  21
HETATM   21  C11 UNL     1      55.373  33.461  27.498  1.00  0.00    -0.009 A 
HETATM   22  C12 UNL     1      54.706  34.525  28.055  1.00  0.00     0.014 A 
HETATM   23  C13 UNL     1      54.317  34.481  29.383  1.00  0.00     0.001 A 
HETATM   24  C14 UNL     1      54.624  33.338  30.111  1.00  0.00     0.000 A 
HETATM   25  C15 UNL     1      55.292  32.272  29.556  1.00  0.00     0.001 A 
HETATM   26  C16 UNL     1      55.664  32.342  28.240  1.00  0.00     0.014 A 
ENDBRANCH   6  21
BRANCH   3  27
HETATM   27  C4  UNL     1      55.605  32.535  22.615  1.00  0.00    -0.009 A 
HETATM   28  C5  UNL     1      56.381  31.817  21.761  1.00  0.00     0.014 A 
HETATM   29  C6  UNL     1      55.928  31.400  20.502  1.00  0.00     0.001 A 
HETATM   30  C7  UNL     1      54.655  31.712  20.082  1.00  0.00     0.000 A 
HETATM   31  C8  UNL     1      53.851  32.437  20.923  1.00  0.00     0.001 A 
HETATM   32  C9  UNL     1      54.312  32.840  22.160  1.00  0.00     0.014 A 
ENDBRANCH   3  27
TORSDOF 4
ENDMDL
MODEL 3
REMARK VINA RESULT: -10.871636636      4.349      6.423
REMARK  4 active torsions:
REMARK  status: ('A' for Active; 'I' for Inactive)
REMARK    1  A    between atoms: C3_3  and  C4_4 
REMARK    2  A    between atoms: C10_12  and  C11_13 
REMARK    3  A    between atoms: C17_19  and  C18_20 
REMARK    4  A    between atoms: C22_24  and  C23_25 
ROOT
HETATM    1  C1  UNL     1      58.098  34.452  23.414  1.00  0.00     0.052 C 
HETATM    2  C2  UNL     1      57.034  33.837  24.268  1.00  0.00    -0.021 A 
HETATM    3  C3  UNL     1      55.987  33.016  23.933  1.00  0.00     0.050 A 
HETATM    4  N1  UNL     1      55.294  32.746  25.086  1.00  0.00    -0.354 N 
ATOM      5  H1  UNL     1      54.462  32.158  25.138  1.00  0.00     0.166 HD
HETATM    6  C10 UNL     1      55.856  33.358  26.131  1.00  0.00     0.054 A 
HETATM    7  C17 UNL     1      56.944  34.047  25.658  1.00  0.00     0.010 A 
ENDROOT
BRANCH   7   8
HETATM    8  C18 UNL     1      57.878  34.870  26.438  1.00  0.00    -0.022 A 
HETATM    9  C19 UNL     1      58.797  35.696  25.788  1.00  0.00     0.012 A 
HETATM   10  C20 UNL     1      59.701  36.479  26.475  1.00  0.00     0.002 A 
HETATM   11  C21 UNL     1      59.696  36.443  27.854  1.00  0.00     0.012 A 
HETATM   12  C22 UNL     1      58.791  35.628  28.544  1.00  0.00    -0.025 A 
HETATM   13  C28 UNL     1      57.922  34.877  27.815  1.00  0.00     0.024 A 
BRANCH  12  14
HETATM   14  C23 UNL     1      58.865  35.662  29.984  1.00  0.00    -0.023 A 
HETATM   15  C24 UNL     1      59.801  36.442  30.616  1.00  0.00     0.029 A 
HETATM   16  C25 UNL     1      59.887  36.485  32.010  1.00  0.00     0.088 A 
HETATM   17  N2  UNL     1      59.028  35.743  32.738  1.00  0.00    -0.375 N 
HETATM   18  C26 UNL     1      58.105  34.974  32.149  1.00  0.00     0.088 A 
ATOM     19  H2  UNL     1      59.083  35.769  33.756  1.00  0.00     0.164 HD
HETATM   20  C27 UNL     1      58.008  34.921  30.765  1.00  0.00     0.029 A 
ENDBRANCH  12  14
ENDBRANCH   7   8
BRANCH   6  21
HETATM   21  C11 UNL     1      55.443  33.338  27.539  1.00  0.00    -0.009 A 
HETATM   22  C12 UNL     1      55.726  32.296  28.388  1.00  0.00     0.014 A 
HETATM   23  C13 UNL     1      55.305  32.342  29.706  1.00  0.00     0.001 A 
HETATM   24  C14 UNL     1      54.599  33.463  30.123  1.00  0.00     0.000 A 
HETATM   25  C15 UNL     1      54.314  34.508  29.275  1.00  0.00     0.001 A 
HETATM   26  C16 UNL     1      54.743  34.437  27.976  1.00  0.00     0.014 A 
ENDBRANCH   6  21
BRANCH   3  27
HETATM   27  C4  UNL     1      55.599  32.518  22.634  1.00  0.00    -0.009 A 
HETATM   28  C5  UNL     1      56.359  31.791  21.774  1.00  0.00     0.014 A 
HETATM   29  C6  UNL     1      55.897  31.390  20.513  1.00  0.00     0.001 A 
HETATM   30  C7  UNL     1      54.629  31.729  20.098  1.00  0.00     0.000 A 
HETATM   31  C8  UNL     1      53.840  32.463  20.945  1.00  0.00     0.001 A 
HETATM   32  C9  UNL     1      54.311  32.850  22.184  1.00  0.00     0.014 A 
ENDBRANCH   3  27
TORSDOF 4
ENDMDL
MODEL 4
REMARK VINA RESULT: -10.851530068      4.579      7.306
REMARK  4 active torsions:
REMARK  status: ('A' for Active; 'I' for Inactive)
REMARK    1  A    between atoms: C3_3  and  C4_4 
REMARK    2  A    between atoms: C10_12  and  C11_13 
REMARK    3  A    between atoms: C17_19  and  C18_20 
REMARK    4  A    between atoms: C22_24  and  C23_25 
ROOT
HETATM    1  C1  UNL     1      55.720  31.484  24.923  1.00  0.00     0.052 C 
HETATM    2  C2  UNL     1      56.402  32.742  24.484  1.00  0.00    -0.021 A 
HETATM    3  C3  UNL     1      56.361  33.404  23.283  1.00  0.00     0.050 A 
HETATM    4  N1  UNL     1      57.181  34.500  23.393  1.00  0.00    -0.354 N 
ATOM      5  H1  UNL     1      57.345  35.178  22.648  1.00  0.00     0.166 HD
HETATM    6  C10 UNL     1      57.733  34.558  24.607  1.00  0.00     0.054 A 
HETATM    7  C17 UNL     1      57.270  33.477  25.314  1.00  0.00     0.010 A 
ENDROOT
BRANCH   7   8
HETATM    8  C18 UNL     1      57.598  33.121  26.701  1.00  0.00    -0.022 A 
HETATM    9  C19 UNL     1      58.788  32.451  26.991  1.00  0.00     0.012 A 
HETATM   10  C20 UNL     1      59.136  32.085  28.273  1.00  0.00     0.002 A 
HETATM   11  C21 UNL     1      58.276  32.393  29.307  1.00  0.00     0.012 A 
HETATM   12  C22 UNL     1      57.073  33.064  29.060  1.00  0.00    -0.025 A 
HETATM   13  C28 UNL     1      56.781  33.401  27.774  1.00  0.00     0.024 A 
BRANCH  12  14
HETATM   14  C23 UNL     1      56.244  33.341  30.207  1.00  0.00    -0.023 A 
HETATM   15  C24 UNL     1      56.602  34.313  31.108  1.00  0.00     0.029 A 
HETATM   16  C25 UNL     1      55.810  34.594  32.224  1.00  0.00     0.088 A 
HETATM   17  N2  UNL     1      54.675  33.891  32.410  1.00  0.00    -0.375 N 
HETATM   18  C26 UNL     1      54.300  32.938  31.548  1.00  0.00     0.088 A 
ATOM     19  H2  UNL     1      54.091  34.089  33.222  1.00  0.00     0.164 HD
HETATM   20  C27 UNL     1      55.077  32.648  30.434  1.00  0.00     0.029 A 
ENDBRANCH  12  14
ENDBRANCH   7   8
BRANCH   6  21
HETATM   21  C11 UNL     1      58.663  35.557  25.146  1.00  0.00    -0.009 A 
HETATM   22  C12 UNL     1      58.983  35.639  26.479  1.00  0.00     0.014 A 
HETATM   23  C13 UNL     1      59.869  36.607  26.921  1.00  0.00     0.001 A 
HETATM   24  C14 UNL     1      60.407  37.474  25.978  1.00  0.00     0.000 A 
HETATM   25  C15 UNL     1      60.087  37.394  24.642  1.00  0.00     0.001 A 
HETATM   26  C16 UNL     1      59.210  36.426  24.232  1.00  0.00     0.014 A 
ENDBRANCH   6  21
BRANCH   3  27
HETATM   27  C4  UNL     1      55.650  33.058  22.075  1.00  0.00    -0.009 A 
HETATM   28  C5  UNL     1      54.619  32.181  21.954  1.00  0.00     0.014 A 
HETATM   29  C6  UNL     1      54.022  31.886  20.721  1.00  0.00     0.001 A 
HETATM   30  C7  UNL     1      54.471  32.490  19.569  1.00  0.00     0.000 A 
HETATM   31  C8  UNL     1      55.510  33.379  19.661  1.00  0.00     0.001 A 
HETATM   32  C9  UNL     1      56.087  33.658  20.884  1.00  0.00     0.014 A 
ENDBRANCH   3  27
TORSDOF 4
ENDMDL
MODEL 5
REMARK VINA RESULT: -10.658842777      1.946      7.910
REMARK  4 active torsions:
REMARK  status: ('A' for Active; 'I' for Inactive)
REMARK    1  A    between atoms: C3_3  and  C4_4 
REMARK    2  A    between atoms: C10_12  and  C11_13 
REMARK    3  A    between atoms: C17_19  and  C18_20 
REMARK    4  A    between atoms: C22_24  and  C23_25 
ROOT
HETATM    1  C1  UNL     1      56.721  34.848  34.148  1.00  0.00     0.052 C 
HETATM    2  C2  UNL     1      57.720  35.801  33.568  1.00  0.00    -0.021 A 
HETATM    3  C3  UNL     1      58.197  36.994  34.049  1.00  0.00     0.050 A 
HETATM    4  N1  UNL     1      59.086  37.481  33.125  1.00  0.00    -0.354 N 
ATOM      5  H1  UNL     1      59.598  38.359  33.219  1.00  0.00     0.166 HD
HETATM    6  C10 UNL     1      59.192  36.650  32.086  1.00  0.00     0.054 A 
HETATM    7  C17 UNL     1      58.353  35.591  32.328  1.00  0.00     0.010 A 
ENDROOT
BRANCH   7   8
HETATM    8  C18 UNL     1      58.133  34.421  31.466  1.00  0.00    -0.022 A 
HETATM    9  C19 UNL     1      58.705  33.191  31.794  1.00  0.00     0.012 A 
HETATM   10  C20 UNL     1      58.537  32.067  31.014  1.00  0.00     0.002 A 
HETATM   11  C21 UNL     1      57.776  32.164  29.867  1.00  0.00     0.012 A 
HETATM   12  C22 UNL     1      57.185  33.379  29.503  1.00  0.00    -0.025 A 
HETATM   13  C28 UNL     1      57.385  34.455  30.311  1.00  0.00     0.024 A 
BRANCH  12  14
HETATM   14  C23 UNL     1      56.408  33.377  28.288  1.00  0.00    -0.023 A 
HETATM   15  C24 UNL     1      56.707  32.503  27.271  1.00  0.00     0.029 A 
HETATM   16  C25 UNL     1      55.964  32.488  26.087  1.00  0.00     0.088 A 
HETATM   17  N2  UNL     1      54.938  33.352  25.952  1.00  0.00    -0.375 N 
HETATM   18  C26 UNL     1      54.624  34.214  26.926  1.00  0.00     0.088 A 
ATOM     19  H2  UNL     1      54.391  33.348  25.091  1.00  0.00     0.164 HD
HETATM   20  C27 UNL     1      55.353  34.240  28.108  1.00  0.00     0.029 A 
ENDBRANCH  12  14
ENDBRANCH   7   8
BRANCH   6  21
HETATM   21  C11 UNL     1      60.025  36.782  30.884  1.00  0.00    -0.009 A 
HETATM   22  C12 UNL     1      59.625  36.347  29.645  1.00  0.00     0.014 A 
HETATM   23  C13 UNL     1      60.461  36.502  28.552  1.00  0.00     0.001 A 
HETATM   24  C14 UNL     1      61.695  37.104  28.760  1.00  0.00     0.000 A 
HETATM   25  C15 UNL     1      62.098  37.541  30.001  1.00  0.00     0.001 A 
HETATM   26  C16 UNL     1      61.251  37.376  31.064  1.00  0.00     0.014 A 
ENDBRANCH   6  21
BRANCH   3  27
HETATM   27  C4  UNL     1      57.850  37.689  35.266  1.00  0.00    -0.009 A 
HETATM   28  C5  UNL     1      57.042  37.242  36.264  1.00  0.00     0.014 A 
HETATM   29  C6  UNL     1      56.738  38.018  37.391  1.00  0.00     0.001 A 
HETATM   30  C7  UNL     1      57.259  39.284  37.525  1.00  0.00     0.000 A 
HETATM   31  C8  UNL     1      58.077  39.761  36.534  1.00  0.00     0.001 A 
HETATM   32  C9  UNL     1      58.367  38.984  35.429  1.00  0.00     0.014 A 
ENDBRANCH   3  27
TORSDOF 4
ENDMDL
