MODEL 1
REMARK VINA RESULT: -11.773479047      0.000      0.000
REMARK  5 active torsions:
REMARK  status: ('A' for Active; 'I' for Inactive)
REMARK    1  A    between atoms: C4_4  and  C5_5 
REMARK    2  A    between atoms: C9_9  and  N1_10 
REMARK    3  A    between atoms: N1_10  and  C10_12 
REMARK    4  A    between atoms: C10_12  and  C11_13 
REMARK    5  A    between atoms: C10_12  and  C17_19 
ROOT
HETATM    1  C10 UNL     1      57.693  33.627  24.892  1.00  0.00     0.054 C 
ENDROOT
BRANCH   1   2
HETATM    2  N1  UNL     1      57.836  32.749  26.007  1.00  0.00    -0.355 N 
ATOM      3  H1  UNL     1      58.710  32.226  26.070  1.00  0.00     0.166 HD
BRANCH   2   4
HETATM    4  C9  UNL     1      56.884  32.532  27.040  1.00  0.00     0.033 A 
HETATM    5  C8  UNL     1      55.593  32.181  26.743  1.00  0.00     0.029 A 
HETATM    6  C7  UNL     1      54.708  31.990  27.789  1.00  0.00     0.003 A 
HETATM    7  C6  UNL     1      55.089  32.141  29.117  1.00  0.00     0.012 A 
HETATM    8  C5  UNL     1      56.385  32.493  29.429  1.00  0.00    -0.024 A 
HETATM    9  C27 UNL     1      57.258  32.682  28.384  1.00  0.00     0.041 A 
BRANCH   8  10
HETATM   10  C4  UNL     1      56.829  32.664  30.823  1.00  0.00    -0.026 A 
HETATM   11  C3  UNL     1      58.113  32.348  31.194  1.00  0.00     0.012 A 
HETATM   12  C2  UNL     1      58.535  32.506  32.497  1.00  0.00     0.001 A 
HETATM   13  C1  UNL     1      57.678  32.989  33.482  1.00  0.00     0.000 A 
HETATM   14  C29 UNL     1      56.389  33.309  33.128  1.00  0.00     0.001 A 
HETATM   15  C28 UNL     1      55.988  33.143  31.814  1.00  0.00     0.012 A 
ENDBRANCH   8  10
ENDBRANCH   2   4
ENDBRANCH   1   2
BRANCH   1  16
HETATM   16  C11 UNL     1      58.340  34.951  24.995  1.00  0.00    -0.009 A 
HETATM   17  C12 UNL     1      58.586  35.850  24.022  1.00  0.00     0.014 A 
HETATM   18  C13 UNL     1      59.178  37.060  24.227  1.00  0.00     0.001 A 
HETATM   19  C14 UNL     1      59.562  37.418  25.496  1.00  0.00     0.000 A 
HETATM   20  C15 UNL     1      59.343  36.550  26.542  1.00  0.00     0.001 A 
HETATM   21  C16 UNL     1      58.740  35.335  26.285  1.00  0.00     0.014 A 
ENDBRANCH   1  16
BRANCH   1  22
HETATM   22  C17 UNL     1      57.608  33.035  23.566  1.00  0.00     0.003 A 
HETATM   23  C18 UNL     1      58.750  32.687  22.821  1.00  0.00     0.014 A 
HETATM   24  C19 UNL     1      58.689  32.109  21.576  1.00  0.00     0.002 A 
HETATM   25  C20 UNL     1      57.485  31.843  21.001  1.00  0.00     0.012 A 
HETATM   26  C21 UNL     1      56.350  32.164  21.691  1.00  0.00    -0.025 A 
HETATM   27  C22 UNL     1      55.131  31.888  21.081  1.00  0.00     0.012 A 
HETATM   28  C26 UNL     1      56.408  32.751  22.953  1.00  0.00    -0.013 A 
HETATM   29  C23 UNL     1      53.950  32.184  21.702  1.00  0.00     0.001 A 
HETATM   30  C24 UNL     1      53.998  32.755  22.929  1.00  0.00     0.001 A 
HETATM   31  C25 UNL     1      55.211  33.037  23.551  1.00  0.00     0.013 A 
ENDBRANCH   1  22
TORSDOF 5
ENDMDL
MODEL 2
REMARK VINA RESULT: -11.555185709      5.661     10.958
REMARK  5 active torsions:
REMARK  status: ('A' for Active; 'I' for Inactive)
REMARK    1  A    between atoms: C4_4  and  C5_5 
REMARK    2  A    between atoms: C9_9  and  N1_10 
REMARK    3  A    between atoms: N1_10  and  C10_12 
REMARK    4  A    between atoms: C10_12  and  C11_13 
REMARK    5  A    between atoms: C10_12  and  C17_19 
ROOT
HETATM    1  C10 UNL     1      58.083  36.262  33.036  1.00  0.00     0.054 C 
ENDROOT
BRANCH   1   2
HETATM    2  N1  UNL     1      59.444  36.149  32.622  1.00  0.00    -0.355 N 
ATOM      3  H1  UNL     1      59.909  35.262  32.812  1.00  0.00     0.166 HD
BRANCH   2   4
HETATM    4  C9  UNL     1      60.216  37.151  31.971  1.00  0.00     0.033 A 
HETATM    5  C8  UNL     1      60.267  38.428  32.464  1.00  0.00     0.029 A 
HETATM    6  C7  UNL     1      61.029  39.362  31.784  1.00  0.00     0.003 A 
HETATM    7  C6  UNL     1      61.735  39.043  30.631  1.00  0.00     0.012 A 
HETATM    8  C5  UNL     1      61.691  37.761  30.125  1.00  0.00    -0.024 A 
HETATM    9  C27 UNL     1      60.932  36.839  30.806  1.00  0.00     0.041 A 
BRANCH   8  10
HETATM   10  C4  UNL     1      62.424  37.382  28.905  1.00  0.00    -0.026 A 
HETATM   11  C3  UNL     1      61.807  37.407  27.679  1.00  0.00     0.012 A 
HETATM   12  C2  UNL     1      62.487  37.053  26.534  1.00  0.00     0.001 A 
HETATM   13  C1  UNL     1      63.821  36.659  26.577  1.00  0.00     0.000 A 
HETATM   14  C29 UNL     1      64.454  36.627  27.796  1.00  0.00     0.001 A 
HETATM   15  C28 UNL     1      63.751  36.986  28.932  1.00  0.00     0.012 A 
ENDBRANCH   8  10
ENDBRANCH   2   4
ENDBRANCH   1   2
BRANCH   1  16
HETATM   16  C11 UNL     1      57.073  35.569  32.211  1.00  0.00    -0.009 A 
HETATM   17  C12 UNL     1      56.992  35.482  30.869  1.00  0.00     0.014 A 
HETATM   18  C13 UNL     1      56.021  34.798  30.201  1.00  0.00     0.001 A 
HETATM   19  C14 UNL     1      55.046  34.142  30.912  1.00  0.00     0.000 A 
HETATM   20  C15 UNL     1      55.063  34.186  32.288  1.00  0.00     0.001 A 
HETATM   21  C16 UNL     1      56.067  34.892  32.920  1.00  0.00     0.014 A 
ENDBRANCH   1  16
BRANCH   1  22
HETATM   22  C17 UNL     1      57.812  36.369  34.461  1.00  0.00     0.003 A 
HETATM   23  C18 UNL     1      57.510  35.249  35.257  1.00  0.00     0.014 A 
HETATM   24  C19 UNL     1      57.270  35.327  36.607  1.00  0.00     0.002 A 
HETATM   25  C20 UNL     1      57.318  36.529  37.244  1.00  0.00     0.012 A 
HETATM   26  C21 UNL     1      57.609  37.642  36.509  1.00  0.00    -0.025 A 
HETATM   27  C22 UNL     1      57.647  38.860  37.179  1.00  0.00     0.012 A 
HETATM   28  C26 UNL     1      57.851  37.566  35.139  1.00  0.00    -0.013 A 
HETATM   29  C23 UNL     1      57.925  40.021  36.515  1.00  0.00     0.001 A 
HETATM   30  C24 UNL     1      58.161  39.956  35.184  1.00  0.00     0.001 A 
HETATM   31  C25 UNL     1      58.126  38.745  34.499  1.00  0.00     0.013 A 
ENDBRANCH   1  22
TORSDOF 5
ENDMDL
MODEL 3
REMARK VINA RESULT: -11.525554991      1.016      1.325
REMARK  5 active torsions:
REMARK  status: ('A' for Active; 'I' for Inactive)
REMARK    1  A    between atoms: C4_4  and  C5_5 
REMARK    2  A    between atoms: C9_9  and  N1_10 
REMARK    3  A    between atoms: N1_10  and  C10_12 
REMARK    4  A    between atoms: C10_12  and  C11_13 
REMARK    5  A    between atoms: C10_12  and  C17_19 
ROOT
HETATM    1  C10 UNL     1      57.684  34.127  24.524  1.00  0.00     0.054 C 
ENDROOT
BRANCH   1   2
HETATM    2  N1  UNL     1      57.635  32.909  25.265  1.00  0.00    -0.355 N 
ATOM      3  H1  UNL     1      58.307  32.187  25.005  1.00  0.00     0.166 HD
BRANCH   2   4
HETATM    4  C9  UNL     1      56.744  32.602  26.330  1.00  0.00     0.033 A 
HETATM    5  C8  UNL     1      55.455  32.212  26.076  1.00  0.00     0.029 A 
HETATM    6  C7  UNL     1      54.632  31.933  27.153  1.00  0.00     0.003 A 
HETATM    7  C6  UNL     1      55.071  32.035  28.467  1.00  0.00     0.012 A 
HETATM    8  C5  UNL     1      56.366  32.426  28.734  1.00  0.00    -0.024 A 
HETATM    9  C27 UNL     1      57.178  32.702  27.660  1.00  0.00     0.041 A 
BRANCH   8  10
HETATM   10  C4  UNL     1      56.872  32.548  30.113  1.00  0.00    -0.026 A 
HETATM   11  C3  UNL     1      58.220  32.632  30.361  1.00  0.00     0.012 A 
HETATM   12  C2  UNL     1      58.699  32.746  31.648  1.00  0.00     0.001 A 
HETATM   13  C1  UNL     1      57.838  32.780  32.741  1.00  0.00     0.000 A 
HETATM   14  C29 UNL     1      56.486  32.696  32.510  1.00  0.00     0.001 A 
HETATM   15  C28 UNL     1      56.028  32.583  31.210  1.00  0.00     0.012 A 
ENDBRANCH   8  10
ENDBRANCH   2   4
ENDBRANCH   1   2
BRANCH   1  16
HETATM   16  C11 UNL     1      58.452  35.241  25.116  1.00  0.00    -0.009 A 
HETATM   17  C12 UNL     1      58.953  35.354  26.362  1.00  0.00     0.014 A 
HETATM   18  C13 UNL     1      59.668  36.426  26.807  1.00  0.00     0.001 A 
HETATM   19  C14 UNL     1      59.912  37.476  25.956  1.00  0.00     0.000 A 
HETATM   20  C15 UNL     1      59.431  37.431  24.667  1.00  0.00     0.001 A 
HETATM   21  C16 UNL     1      58.711  36.324  24.262  1.00  0.00     0.014 A 
ENDBRANCH   1  16
BRANCH   1  22
HETATM   22  C17 UNL     1      57.656  34.042  23.072  1.00  0.00     0.003 A 
HETATM   23  C18 UNL     1      58.766  34.380  22.276  1.00  0.00     0.014 A 
HETATM   24  C19 UNL     1      58.766  34.288  20.906  1.00  0.00     0.002 A 
HETATM   25  C20 UNL     1      57.658  33.852  20.248  1.00  0.00     0.012 A 
HETATM   26  C21 UNL     1      56.557  33.513  20.982  1.00  0.00    -0.025 A 
HETATM   27  C22 UNL     1      55.434  33.075  20.288  1.00  0.00     0.012 A 
HETATM   28  C26 UNL     1      56.554  33.607  22.372  1.00  0.00    -0.013 A 
HETATM   29  C23 UNL     1      54.292  32.722  20.948  1.00  0.00     0.001 A 
HETATM   30  C24 UNL     1      54.280  32.811  22.299  1.00  0.00     0.001 A 
HETATM   31  C25 UNL     1      55.396  33.247  23.007  1.00  0.00     0.013 A 
ENDBRANCH   1  22
TORSDOF 5
ENDMDL
MODEL 4
REMARK VINA RESULT: -11.498280811      2.634      5.817
REMARK  5 active torsions:
REMARK  status: ('A' for Active; 'I' for Inactive)
REMARK    1  A    between atoms: C4_4  and  C5_5 
REMARK    2  A    between atoms: C9_9  and  N1_10 
REMARK    3  A    between atoms: N1_10  and  C10_12 
REMARK    4  A    between atoms: C10_12  and  C11_13 
REMARK    5  A    between atoms: C10_12  and  C17_19 
ROOT
HETATM    1  C10 UNL     1      58.032  34.582  25.521  1.00  0.00     0.054 C 
ENDROOT
BRANCH   1   2
HETATM    2  N1  UNL     1      58.222  35.996  25.518  1.00  0.00    -0.355 N 
ATOM      3  H1  UNL     1      57.384  36.572  25.594  1.00  0.00     0.166 HD
BRANCH   2   4
HETATM    4  C9  UNL     1      59.464  36.682  25.418  1.00  0.00     0.033 A 
HETATM    5  C8  UNL     1      59.787  37.389  24.289  1.00  0.00     0.029 A 
HETATM    6  C7  UNL     1      61.012  38.030  24.246  1.00  0.00     0.003 A 
HETATM    7  C6  UNL     1      61.912  37.979  25.303  1.00  0.00     0.012 A 
HETATM    8  C5  UNL     1      61.598  37.271  26.444  1.00  0.00    -0.024 A 
HETATM    9  C27 UNL     1      60.379  36.636  26.480  1.00  0.00     0.041 A 
BRANCH   8  10
HETATM   10  C4  UNL     1      62.524  37.191  27.587  1.00  0.00    -0.026 A 
HETATM   11  C3  UNL     1      63.808  36.735  27.420  1.00  0.00     0.012 A 
HETATM   12  C2  UNL     1      64.679  36.657  28.486  1.00  0.00     0.001 A 
HETATM   13  C1  UNL     1      64.290  37.037  29.767  1.00  0.00     0.000 A 
HETATM   14  C29 UNL     1      63.008  37.496  29.952  1.00  0.00     0.001 A 
HETATM   15  C28 UNL     1      62.152  37.565  28.869  1.00  0.00     0.012 A 
ENDBRANCH   8  10
ENDBRANCH   2   4
ENDBRANCH   1   2
BRANCH   1  16
HETATM   16  C11 UNL     1      58.129  33.897  26.827  1.00  0.00    -0.009 A 
HETATM   17  C12 UNL     1      58.629  32.679  27.107  1.00  0.00     0.014 A 
HETATM   18  C13 UNL     1      58.687  32.142  28.359  1.00  0.00     0.001 A 
HETATM   19  C14 UNL     1      58.212  32.864  29.426  1.00  0.00     0.000 A 
HETATM   20  C15 UNL     1      57.686  34.119  29.217  1.00  0.00     0.001 A 
HETATM   21  C16 UNL     1      57.648  34.620  27.931  1.00  0.00     0.014 A 
ENDBRANCH   1  16
BRANCH   1  22
HETATM   22  C17 UNL     1      57.115  34.016  24.544  1.00  0.00     0.003 A 
HETATM   23  C18 UNL     1      55.871  33.466  24.907  1.00  0.00     0.014 A 
HETATM   24  C19 UNL     1      54.984  32.945  23.998  1.00  0.00     0.002 A 
HETATM   25  C20 UNL     1      55.285  32.943  22.671  1.00  0.00     0.012 A 
HETATM   26  C21 UNL     1      56.482  33.467  22.274  1.00  0.00    -0.025 A 
HETATM   27  C22 UNL     1      56.770  33.448  20.914  1.00  0.00     0.012 A 
HETATM   28  C26 UNL     1      57.384  33.995  23.195  1.00  0.00    -0.013 A 
HETATM   29  C23 UNL     1      57.948  33.948  20.436  1.00  0.00     0.001 A 
HETATM   30  C24 UNL     1      58.831  34.463  21.324  1.00  0.00     0.001 A 
HETATM   31  C25 UNL     1      58.557  34.488  22.689  1.00  0.00     0.013 A 
ENDBRANCH   1  22
TORSDOF 5
ENDMDL
MODEL 5
REMARK VINA RESULT: -11.339580485      3.978     10.518
REMARK  5 active torsions:
REMARK  status: ('A' for Active; 'I' for Inactive)
REMARK    1  A    between atoms: C4_4  and  C5_5 
REMARK    2  A    between atoms: C9_9  and  N1_10 
REMARK    3  A    between atoms: N1_10  and  C10_12 
REMARK    4  A    between atoms: C10_12  and  C11_13 
REMARK    5  A    between atoms: C10_12  and  C17_19 
ROOT
HETATM    1  C10 UNL     1      57.811  35.540  33.363  1.00  0.00     0.054 C 
ENDROOT
BRANCH   1   2
HETATM    2  N1  UNL     1      59.144  35.404  32.872  1.00  0.00    -0.355 N 
ATOM      3  H1  UNL     1      59.781  34.830  33.426  1.00  0.00     0.166 HD
BRANCH   2   4
HETATM    4  C9  UNL     1      59.674  35.987  31.689  1.00  0.00     0.033 A 
HETATM    5  C8  UNL     1      60.671  36.925  31.754  1.00  0.00     0.029 A 
HETATM    6  C7  UNL     1      61.141  37.464  30.570  1.00  0.00     0.003 A 
HETATM    7  C6  UNL     1      60.638  37.083  29.332  1.00  0.00     0.012 A 
HETATM    8  C5  UNL     1      59.635  36.140  29.253  1.00  0.00    -0.024 A 
HETATM    9  C27 UNL     1      59.172  35.610  30.434  1.00  0.00     0.041 A 
BRANCH   8  10
HETATM   10  C4  UNL     1      59.073  35.709  27.962  1.00  0.00    -0.026 A 
HETATM   11  C3  UNL     1      58.179  34.669  27.897  1.00  0.00     0.012 A 
HETATM   12  C2  UNL     1      57.650  34.261  26.692  1.00  0.00     0.001 A 
HETATM   13  C1  UNL     1      58.001  34.886  25.499  1.00  0.00     0.000 A 
HETATM   14  C29 UNL     1      58.895  35.928  25.545  1.00  0.00     0.001 A 
HETATM   15  C28 UNL     1      59.413  36.320  26.766  1.00  0.00     0.012 A 
ENDBRANCH   8  10
ENDBRANCH   2   4
ENDBRANCH   1   2
BRANCH   1  16
HETATM   16  C11 UNL     1      56.811  34.576  32.860  1.00  0.00    -0.009 A 
HETATM   17  C12 UNL     1      55.478  34.724  32.745  1.00  0.00     0.014 A 
HETATM   18  C13 UNL     1      54.639  33.771  32.249  1.00  0.00     0.001 A 
HETATM   19  C14 UNL     1      55.156  32.569  31.829  1.00  0.00     0.000 A 
HETATM   20  C15 UNL     1      56.511  32.345  31.916  1.00  0.00     0.001 A 
HETATM   21  C16 UNL     1      57.320  33.341  32.426  1.00  0.00     0.014 A 
ENDBRANCH   1  16
BRANCH   1  22
HETATM   22  C17 UNL     1      57.633  36.030  34.721  1.00  0.00     0.003 A 
HETATM   23  C18 UNL     1      57.284  35.182  35.789  1.00  0.00     0.014 A 
HETATM   24  C19 UNL     1      57.130  35.622  37.080  1.00  0.00     0.002 A 
HETATM   25  C20 UNL     1      57.315  36.935  37.384  1.00  0.00     0.012 A 
HETATM   26  C21 UNL     1      57.655  37.794  36.378  1.00  0.00    -0.025 A 
HETATM   27  C22 UNL     1      57.834  39.132  36.710  1.00  0.00     0.012 A 
HETATM   28  C26 UNL     1      57.811  37.350  35.066  1.00  0.00    -0.013 A 
HETATM   29  C23 UNL     1      58.169  40.055  35.761  1.00  0.00     0.001 A 
HETATM   30  C24 UNL     1      58.322  39.633  34.484  1.00  0.00     0.001 A 
HETATM   31  C25 UNL     1      58.146  38.297  34.136  1.00  0.00     0.013 A 
ENDBRANCH   1  22
TORSDOF 5
ENDMDL
