MODEL 1
REMARK VINA RESULT: -9.367556872      0.000      0.000
REMARK  5 active torsions:
REMARK  status: ('A' for Active; 'I' for Inactive)
REMARK       I    between atoms: C1_2  and  N1_3 
REMARK       I    between atoms: C1_2  and  N2_15 
REMARK    1  A    between atoms: N1_3  and  C2_5 
REMARK    2  A    between atoms: C5_8  and  C6_9 
REMARK    3  A    between atoms: N3_23  and  C15_24 
REMARK    4  A    between atoms: C15_24  and  O3_25 
REMARK    5  A    between atoms: C15_24  and  C16_27 
ROOT
HETATM    1  O1  UNL     1      20.267   4.016  23.420  1.00  0.00    -0.247 OA
HETATM    2  C1  UNL     1      21.473   4.367  23.404  1.00  0.00     0.322 C 
HETATM    3  N1  UNL     1      21.974   5.368  24.271  1.00  0.00    -0.309 N 
ATOM      4  H1  UNL     1      22.964   5.603  24.195  1.00  0.00     0.170 HD
HETATM    5  N2  UNL     1      22.319   3.708  22.473  1.00  0.00    -0.334 N 
HETATM    6  C9  UNL     1      21.785   2.652  21.603  1.00  0.00     0.128 C 
HETATM    7  C10 UNL     1      22.210   2.896  20.188  1.00  0.00     0.031 C 
HETATM    8  C11 UNL     1      23.689   3.070  20.040  1.00  0.00    -0.020 C 
HETATM    9  C12 UNL     1      24.256   1.877  19.250  1.00  0.00     0.020 C 
HETATM   10  C13 UNL     1      25.751   1.922  19.395  1.00  0.00     0.104 C 
HETATM   11  C14 UNL     1      26.215   3.255  18.879  1.00  0.00     0.225 C 
HETATM   12  O2  UNL     1      27.403   3.631  18.864  1.00  0.00    -0.273 OA
HETATM   13  N3  UNL     1      25.180   4.150  18.366  1.00  0.00    -0.297 N 
HETATM   14  C22 UNL     1      23.957   4.257  19.107  1.00  0.00     0.144 C 
HETATM   15  C23 UNL     1      24.362   3.126  21.351  1.00  0.00     0.031 C 
HETATM   16  C24 UNL     1      23.692   4.048  22.334  1.00  0.00     0.128 C 
ENDROOT
BRANCH  13  17
HETATM   17  C15 UNL     1      25.409   4.756  17.136  1.00  0.00     0.155 C 
BRANCH  17  18
HETATM   18  O3  UNL     1      26.322   4.167  16.382  1.00  0.00    -0.345 OA
ATOM     19  H3  UNL     1      26.506   4.603  15.559  1.00  0.00     0.219 HD
ENDBRANCH  17  18
BRANCH  17  20
HETATM   20  C16 UNL     1      24.815   5.933  16.525  1.00  0.00     0.015 A 
HETATM   21  C17 UNL     1      24.650   5.924  15.149  1.00  0.00     0.019 A 
HETATM   22  C18 UNL     1      23.977   6.928  14.496  1.00  0.00     0.043 A 
HETATM   23  C19 UNL     1      23.426   8.002  15.151  1.00  0.00     0.116 A 
HETATM   24  F4  UNL     1      22.741   8.999  14.547  1.00  0.00    -0.206 F 
HETATM   25  C20 UNL     1      23.587   8.021  16.505  1.00  0.00     0.043 A 
HETATM   26  C21 UNL     1      24.271   7.001  17.192  1.00  0.00     0.019 A 
ENDBRANCH  17  20
ENDBRANCH  13  17
BRANCH   3  27
HETATM   27  C2  UNL     1      21.212   6.072  25.238  1.00  0.00     0.036 A 
HETATM   28  C3  UNL     1      20.771   7.366  24.945  1.00  0.00     0.030 A 
HETATM   29  C4  UNL     1      20.016   8.111  25.835  1.00  0.00     0.018 A 
HETATM   30  C5  UNL     1      19.663   7.595  27.078  1.00  0.00     0.048 A 
HETATM   31  C7  UNL     1      20.088   6.326  27.380  1.00  0.00     0.018 A 
HETATM   32  C8  UNL     1      20.847   5.591  26.471  1.00  0.00     0.030 A 
BRANCH  30  33
HETATM   33  C6  UNL     1      18.821   8.395  28.010  1.00  0.00     0.417 C 
HETATM   34  F1  UNL     1      19.634   9.219  28.785  1.00  0.00    -0.166 F 
HETATM   35  F2  UNL     1      18.049   7.561  28.781  1.00  0.00    -0.166 F 
HETATM   36  F3  UNL     1      17.978   9.248  27.340  1.00  0.00    -0.166 F 
ENDBRANCH  30  33
ENDBRANCH   3  27
TORSDOF 5
ENDMDL
MODEL 2
REMARK VINA RESULT: -9.206207472      5.128      9.789
REMARK  5 active torsions:
REMARK  status: ('A' for Active; 'I' for Inactive)
REMARK       I    between atoms: C1_2  and  N1_3 
REMARK       I    between atoms: C1_2  and  N2_15 
REMARK    1  A    between atoms: N1_3  and  C2_5 
REMARK    2  A    between atoms: C5_8  and  C6_9 
REMARK    3  A    between atoms: N3_23  and  C15_24 
REMARK    4  A    between atoms: C15_24  and  O3_25 
REMARK    5  A    between atoms: C15_24  and  C16_27 
ROOT
HETATM    1  O1  UNL     1      22.206   3.157  20.179  1.00  0.00    -0.247 OA
HETATM    2  C1  UNL     1      22.374   3.660  21.318  1.00  0.00     0.322 C 
HETATM    3  N1  UNL     1      22.722   5.022  21.491  1.00  0.00    -0.309 N 
ATOM      4  H1  UNL     1      22.846   5.356  22.447  1.00  0.00     0.170 HD
HETATM    5  N2  UNL     1      22.194   2.798  22.431  1.00  0.00    -0.334 N 
HETATM    6  C9  UNL     1      21.806   1.396  22.229  1.00  0.00     0.128 C 
HETATM    7  C10 UNL     1      22.691   0.501  23.041  1.00  0.00     0.031 C 
HETATM    8  C11 UNL     1      22.745   0.880  24.487  1.00  0.00    -0.020 C 
HETATM    9  C12 UNL     1      22.071  -0.225  25.319  1.00  0.00     0.020 C 
HETATM   10  C13 UNL     1      21.863   0.327  26.701  1.00  0.00     0.104 C 
HETATM   11  C14 UNL     1      23.208   0.738  27.231  1.00  0.00     0.225 C 
HETATM   12  O2  UNL     1      23.397   1.251  28.351  1.00  0.00    -0.273 OA
HETATM   13  N3  UNL     1      24.351   0.509  26.351  1.00  0.00    -0.297 N 
HETATM   14  C22 UNL     1      24.203   0.825  24.960  1.00  0.00     0.144 C 
HETATM   15  C23 UNL     1      22.041   2.152  24.741  1.00  0.00     0.031 C 
HETATM   16  C24 UNL     1      22.397   3.242  23.766  1.00  0.00     0.128 C 
ENDROOT
BRANCH  13  17
HETATM   17  C15 UNL     1      25.473  -0.101  26.902  1.00  0.00     0.155 C 
BRANCH  17  18
HETATM   18  O3  UNL     1      25.361  -1.405  27.098  1.00  0.00    -0.345 OA
ATOM     19  H3  UNL     1      26.089  -1.923  26.777  1.00  0.00     0.219 HD
ENDBRANCH  17  18
BRANCH  17  20
HETATM   20  C16 UNL     1      26.758   0.444  27.302  1.00  0.00     0.015 A 
HETATM   21  C17 UNL     1      26.935   1.814  27.183  1.00  0.00     0.019 A 
HETATM   22  C18 UNL     1      28.060   2.441  27.661  1.00  0.00     0.043 A 
HETATM   23  C19 UNL     1      29.080   1.764  28.283  1.00  0.00     0.116 A 
HETATM   24  F4  UNL     1      30.194   2.346  28.782  1.00  0.00    -0.206 F 
HETATM   25  C20 UNL     1      28.916   0.415  28.402  1.00  0.00     0.043 A 
HETATM   26  C21 UNL     1      27.770  -0.244  27.921  1.00  0.00     0.019 A 
ENDBRANCH  17  20
ENDBRANCH  13  17
BRANCH   3  27
HETATM   27  C2  UNL     1      22.911   5.960  20.444  1.00  0.00     0.036 A 
HETATM   28  C3  UNL     1      23.976   5.781  19.556  1.00  0.00     0.030 A 
HETATM   29  C4  UNL     1      24.219   6.650  18.506  1.00  0.00     0.018 A 
HETATM   30  C5  UNL     1      23.402   7.755  18.291  1.00  0.00     0.048 A 
HETATM   31  C7  UNL     1      22.352   7.943  19.154  1.00  0.00     0.018 A 
HETATM   32  C8  UNL     1      22.123   7.058  20.205  1.00  0.00     0.030 A 
BRANCH  30  33
HETATM   33  C6  UNL     1      23.655   8.661  17.136  1.00  0.00     0.417 C 
HETATM   34  F1  UNL     1      25.000   9.018  17.107  1.00  0.00    -0.166 F 
HETATM   35  F2  UNL     1      22.832   9.758  17.209  1.00  0.00    -0.166 F 
HETATM   36  F3  UNL     1      23.421   8.039  15.933  1.00  0.00    -0.166 F 
ENDBRANCH  30  33
ENDBRANCH   3  27
TORSDOF 5
ENDMDL
MODEL 3
REMARK VINA RESULT: -9.051835646      5.163      9.809
REMARK  5 active torsions:
REMARK  status: ('A' for Active; 'I' for Inactive)
REMARK       I    between atoms: C1_2  and  N1_3 
REMARK       I    between atoms: C1_2  and  N2_15 
REMARK    1  A    between atoms: N1_3  and  C2_5 
REMARK    2  A    between atoms: C5_8  and  C6_9 
REMARK    3  A    between atoms: N3_23  and  C15_24 
REMARK    4  A    between atoms: C15_24  and  O3_25 
REMARK    5  A    between atoms: C15_24  and  C16_27 
ROOT
HETATM    1  O1  UNL     1      22.400   2.937  20.075  1.00  0.00    -0.247 OA
HETATM    2  C1  UNL     1      22.538   3.467  21.207  1.00  0.00     0.322 C 
HETATM    3  N1  UNL     1      22.874   4.834  21.357  1.00  0.00    -0.309 N 
ATOM      4  H1  UNL     1      22.974   5.191  22.307  1.00  0.00     0.170 HD
HETATM    5  N2  UNL     1      22.338   2.629  22.335  1.00  0.00    -0.334 N 
HETATM    6  C9  UNL     1      21.962   1.220  22.156  1.00  0.00     0.128 C 
HETATM    7  C10 UNL     1      22.834   0.349  23.007  1.00  0.00     0.031 C 
HETATM    8  C11 UNL     1      22.852   0.761  24.446  1.00  0.00    -0.020 C 
HETATM    9  C12 UNL     1      22.166  -0.330  25.286  1.00  0.00     0.020 C 
HETATM   10  C13 UNL     1      21.922   0.252  26.650  1.00  0.00     0.104 C 
HETATM   11  C14 UNL     1      23.252   0.684  27.202  1.00  0.00     0.225 C 
HETATM   12  O2  UNL     1      23.413   1.223  28.314  1.00  0.00    -0.273 OA
HETATM   13  N3  UNL     1      24.417   0.442  26.354  1.00  0.00    -0.297 N 
HETATM   14  C22 UNL     1      24.299   0.726  24.953  1.00  0.00     0.144 C 
HETATM   15  C23 UNL     1      22.135   2.034  24.654  1.00  0.00     0.031 C 
HETATM   16  C24 UNL     1      22.507   3.104  23.663  1.00  0.00     0.128 C 
ENDROOT
BRANCH  13  17
HETATM   17  C15 UNL     1      25.529  -0.148  26.944  1.00  0.00     0.155 C 
BRANCH  17  18
HETATM   18  O3  UNL     1      25.409  -1.441  27.196  1.00  0.00    -0.345 OA
ATOM     19  H3  UNL     1      25.214  -1.982  26.440  1.00  0.00     0.219 HD
ENDBRANCH  17  18
BRANCH  17  20
HETATM   20  C16 UNL     1      26.812   0.409  27.335  1.00  0.00     0.015 A 
HETATM   21  C17 UNL     1      26.986   1.776  27.190  1.00  0.00     0.019 A 
HETATM   22  C18 UNL     1      28.109   2.415  27.656  1.00  0.00     0.043 A 
HETATM   23  C19 UNL     1      29.130   1.754  28.292  1.00  0.00     0.116 A 
HETATM   24  F4  UNL     1      30.241   2.349  28.781  1.00  0.00    -0.206 F 
HETATM   25  C20 UNL     1      28.969   0.407  28.437  1.00  0.00     0.043 A 
HETATM   26  C21 UNL     1      27.826  -0.265  27.968  1.00  0.00     0.019 A 
ENDBRANCH  17  20
ENDBRANCH  13  17
BRANCH   3  27
HETATM   27  C2  UNL     1      23.082   5.750  20.294  1.00  0.00     0.036 A 
HETATM   28  C3  UNL     1      22.200   6.824  20.141  1.00  0.00     0.030 A 
HETATM   29  C4  UNL     1      22.344   7.762  19.133  1.00  0.00     0.018 A 
HETATM   30  C5  UNL     1      23.386   7.670  18.215  1.00  0.00     0.048 A 
HETATM   31  C7  UNL     1      24.260   6.622  18.354  1.00  0.00     0.018 A 
HETATM   32  C8  UNL     1      24.100   5.687  19.375  1.00  0.00     0.030 A 
BRANCH  30  33
HETATM   33  C6  UNL     1      23.549   8.707  17.158  1.00  0.00     0.417 C 
HETATM   34  F1  UNL     1      22.721   9.792  17.436  1.00  0.00    -0.166 F 
HETATM   35  F2  UNL     1      23.291   8.165  15.923  1.00  0.00    -0.166 F 
HETATM   36  F3  UNL     1      24.823   9.222  17.134  1.00  0.00    -0.166 F 
ENDBRANCH  30  33
ENDBRANCH   3  27
TORSDOF 5
ENDMDL
MODEL 4
REMARK VINA RESULT: -8.790632265      2.241      2.676
REMARK  5 active torsions:
REMARK  status: ('A' for Active; 'I' for Inactive)
REMARK       I    between atoms: C1_2  and  N1_3 
REMARK       I    between atoms: C1_2  and  N2_15 
REMARK    1  A    between atoms: N1_3  and  C2_5 
REMARK    2  A    between atoms: C5_8  and  C6_9 
REMARK    3  A    between atoms: N3_23  and  C15_24 
REMARK    4  A    between atoms: C15_24  and  O3_25 
REMARK    5  A    between atoms: C15_24  and  C16_27 
ROOT
HETATM    1  O1  UNL     1      21.004   1.158  22.487  1.00  0.00    -0.247 OA
HETATM    2  C1  UNL     1      22.129   1.707  22.594  1.00  0.00     0.322 C 
HETATM    3  N1  UNL     1      22.464   2.519  23.704  1.00  0.00    -0.309 N 
ATOM      4  H1  UNL     1      23.395   2.935  23.717  1.00  0.00     0.170 HD
HETATM    5  N2  UNL     1      23.058   1.471  21.546  1.00  0.00    -0.334 N 
HETATM    6  C9  UNL     1      22.700   0.601  20.418  1.00  0.00     0.128 C 
HETATM    7  C10 UNL     1      23.047   1.275  19.127  1.00  0.00     0.031 C 
HETATM    8  C11 UNL     1      24.469   1.737  19.067  1.00  0.00    -0.020 C 
HETATM    9  C12 UNL     1      25.220   0.909  18.010  1.00  0.00     0.020 C 
HETATM   10  C13 UNL     1      26.687   1.175  18.201  1.00  0.00     0.104 C 
HETATM   11  C14 UNL     1      26.899   2.656  18.060  1.00  0.00     0.225 C 
HETATM   12  O2  UNL     1      28.003   3.224  18.175  1.00  0.00    -0.273 OA
HETATM   13  N3  UNL     1      25.713   3.458  17.770  1.00  0.00    -0.297 N 
HETATM   14  C22 UNL     1      24.505   3.154  18.481  1.00  0.00     0.144 C 
HETATM   15  C23 UNL     1      25.149   1.567  20.365  1.00  0.00     0.031 C 
HETATM   16  C24 UNL     1      24.347   2.070  21.536  1.00  0.00     0.128 C 
ENDROOT
BRANCH  13  17
HETATM   17  C15 UNL     1      25.806   4.394  16.746  1.00  0.00     0.155 C 
BRANCH  17  18
HETATM   18  O3  UNL     1      26.616   4.060  15.755  1.00  0.00    -0.345 OA
ATOM     19  H3  UNL     1      26.747   4.734  15.098  1.00  0.00     0.219 HD
ENDBRANCH  17  18
BRANCH  17  20
HETATM   20  C16 UNL     1      25.165   5.685  16.570  1.00  0.00     0.015 A 
HETATM   21  C17 UNL     1      24.579   5.945  15.341  1.00  0.00     0.019 A 
HETATM   22  C18 UNL     1      23.833   7.077  15.121  1.00  0.00     0.043 A 
HETATM   23  C19 UNL     1      23.616   8.024  16.091  1.00  0.00     0.116 A 
HETATM   24  F4  UNL     1      22.874   9.141  15.920  1.00  0.00    -0.206 F 
HETATM   25  C20 UNL     1      24.191   7.779  17.303  1.00  0.00     0.043 A 
HETATM   26  C21 UNL     1      24.957   6.624  17.548  1.00  0.00     0.019 A 
ENDBRANCH  17  20
ENDBRANCH  13  17
BRANCH   3  27
HETATM   27  C2  UNL     1      21.610   2.803  24.800  1.00  0.00     0.036 A 
HETATM   28  C3  UNL     1      21.000   4.059  24.878  1.00  0.00     0.030 A 
HETATM   29  C4  UNL     1      20.148   4.405  25.913  1.00  0.00     0.018 A 
HETATM   30  C5  UNL     1      19.863   3.505  26.935  1.00  0.00     0.048 A 
HETATM   31  C7  UNL     1      20.454   2.268  26.871  1.00  0.00     0.018 A 
HETATM   32  C8  UNL     1      21.309   1.937  25.821  1.00  0.00     0.030 A 
BRANCH  30  33
HETATM   33  C6  UNL     1      18.917   3.879  28.022  1.00  0.00     0.417 C 
HETATM   34  F1  UNL     1      19.465   4.908  28.785  1.00  0.00    -0.166 F 
HETATM   35  F2  UNL     1      18.615   2.778  28.784  1.00  0.00    -0.166 F 
HETATM   36  F3  UNL     1      17.738   4.385  27.528  1.00  0.00    -0.166 F 
ENDBRANCH  30  33
ENDBRANCH   3  27
TORSDOF 5
ENDMDL
MODEL 5
REMARK VINA RESULT: -8.407172969      4.289      5.094
REMARK  5 active torsions:
REMARK  status: ('A' for Active; 'I' for Inactive)
REMARK       I    between atoms: C1_2  and  N1_3 
REMARK       I    between atoms: C1_2  and  N2_15 
REMARK    1  A    between atoms: N1_3  and  C2_5 
REMARK    2  A    between atoms: C5_8  and  C6_9 
REMARK    3  A    between atoms: N3_23  and  C15_24 
REMARK    4  A    between atoms: C15_24  and  O3_25 
REMARK    5  A    between atoms: C15_24  and  C16_27 
ROOT
HETATM    1  O1  UNL     1      19.998   3.497  23.855  1.00  0.00    -0.247 OA
HETATM    2  C1  UNL     1      21.247   3.405  23.751  1.00  0.00     0.322 C 
HETATM    3  N1  UNL     1      22.101   4.510  23.985  1.00  0.00    -0.309 N 
ATOM      4  H1  UNL     1      23.104   4.359  23.875  1.00  0.00     0.170 HD
HETATM    5  N2  UNL     1      21.768   2.135  23.389  1.00  0.00    -0.334 N 
HETATM    6  C9  UNL     1      20.865   0.995  23.179  1.00  0.00     0.128 C 
HETATM    7  C10 UNL     1      21.205   0.308  21.893  1.00  0.00     0.031 C 
HETATM    8  C11 UNL     1      22.649  -0.076  21.794  1.00  0.00    -0.020 C 
HETATM    9  C12 UNL     1      22.760  -1.610  21.813  1.00  0.00     0.020 C 
HETATM   10  C13 UNL     1      24.209  -1.945  22.031  1.00  0.00     0.104 C 
HETATM   11  C14 UNL     1      24.993  -1.303  20.921  1.00  0.00     0.225 C 
HETATM   12  O2  UNL     1      26.232  -1.369  20.804  1.00  0.00    -0.273 OA
HETATM   13  N3  UNL     1      24.223  -0.558  19.928  1.00  0.00    -0.297 N 
HETATM   14  C22 UNL     1      23.163   0.287  20.395  1.00  0.00     0.144 C 
HETATM   15  C23 UNL     1      23.431   0.465  22.920  1.00  0.00     0.031 C 
HETATM   16  C24 UNL     1      23.160   1.919  23.200  1.00  0.00     0.128 C 
ENDROOT
BRANCH  13  17
HETATM   17  C15 UNL     1      24.500  -0.801  18.587  1.00  0.00     0.155 C 
BRANCH  17  18
HETATM   18  O3  UNL     1      23.530  -1.398  17.914  1.00  0.00    -0.345 OA
ATOM     19  H3  UNL     1      23.766  -2.232  17.526  1.00  0.00     0.219 HD
ENDBRANCH  17  18
BRANCH  17  20
HETATM   20  C16 UNL     1      25.677  -0.510  17.787  1.00  0.00     0.015 A 
HETATM   21  C17 UNL     1      26.311   0.704  18.001  1.00  0.00     0.019 A 
HETATM   22  C18 UNL     1      27.504   1.012  17.394  1.00  0.00     0.043 A 
HETATM   23  C19 UNL     1      28.148   0.151  16.540  1.00  0.00     0.116 A 
HETATM   24  F4  UNL     1      29.331   0.410  15.939  1.00  0.00    -0.206 F 
HETATM   25  C20 UNL     1      27.530  -1.045  16.321  1.00  0.00     0.043 A 
HETATM   26  C21 UNL     1      26.309  -1.380  16.935  1.00  0.00     0.019 A 
ENDBRANCH  17  20
ENDBRANCH  13  17
BRANCH   3  27
HETATM   27  C2  UNL     1      21.677   5.810  24.360  1.00  0.00     0.036 A 
HETATM   28  C3  UNL     1      21.800   6.856  23.440  1.00  0.00     0.030 A 
HETATM   29  C4  UNL     1      21.399   8.149  23.732  1.00  0.00     0.018 A 
HETATM   30  C5  UNL     1      20.854   8.465  24.973  1.00  0.00     0.048 A 
HETATM   31  C7  UNL     1      20.727   7.448  25.885  1.00  0.00     0.018 A 
HETATM   32  C8  UNL     1      21.135   6.153  25.574  1.00  0.00     0.030 A 
BRANCH  30  33
HETATM   33  C6  UNL     1      20.396   9.853  25.259  1.00  0.00     0.417 C 
HETATM   34  F1  UNL     1      19.115   9.819  25.805  1.00  0.00    -0.166 F 
HETATM   35  F2  UNL     1      20.449  10.612  24.116  1.00  0.00    -0.166 F 
HETATM   36  F3  UNL     1      21.176  10.467  26.210  1.00  0.00    -0.166 F 
ENDBRANCH  30  33
ENDBRANCH   3  27
TORSDOF 5
ENDMDL
