MODEL 1
REMARK VINA RESULT: -10.257728884      0.000      0.000
REMARK  5 active torsions:
REMARK  status: ('A' for Active; 'I' for Inactive)
REMARK    1  A    between atoms: C2_2  and  C3_3 
REMARK    2  A    between atoms: C11_11  and  N1_12 
REMARK    3  A    between atoms: N1_12  and  C12_14 
REMARK    4  A    between atoms: C12_14  and  N2_16 
REMARK       I    between atoms: N3_19  and  C15_20 
REMARK    5  A    between atoms: C15_20  and  C16_22 
ROOT
HETATM    1  N1  UNL     1      25.396   4.055  16.672  1.00  0.00    -0.362 N 
ATOM      2  H1  UNL     1      26.210   4.443  16.196  1.00  0.00     0.162 HD
ENDROOT
BRANCH   1   3
HETATM    3  C11 UNL     1      24.225   4.881  16.675  1.00  0.00     0.083 C 
HETATM    4  C10 UNL     1      24.329   5.981  15.649  1.00  0.00     0.026 C 
HETATM    5  C9  UNL     1      23.175   6.952  15.806  1.00  0.00     0.011 C 
HETATM    6  C2  UNL     1      23.291   7.686  17.136  1.00  0.00    -0.040 C 
HETATM    7  C1  UNL     1      24.397   8.735  16.953  1.00  0.00     0.015 C 
HETATM    8  C20 UNL     1      23.635   6.792  18.261  1.00  0.00     0.011 C 
HETATM    9  C19 UNL     1      23.813   5.352  18.018  1.00  0.00     0.026 C 
BRANCH   6  10
HETATM   10  C3  UNL     1      21.948   8.394  17.298  1.00  0.00    -0.006 C 
HETATM   11  C4  UNL     1      21.958   9.766  16.657  1.00  0.00     0.005 C 
HETATM   12  C5  UNL     1      20.584  10.373  16.859  1.00  0.00     0.000 C 
HETATM   13  C6  UNL     1      20.176  10.446  18.300  1.00  0.00     0.000 C 
HETATM   14  C7  UNL     1      20.276   9.102  18.992  1.00  0.00     0.000 C 
HETATM   15  C8  UNL     1      21.648   8.490  18.779  1.00  0.00     0.005 C 
ENDBRANCH   6  10
ENDBRANCH   1   3
BRANCH   1  16
HETATM   16  C12 UNL     1      25.570   2.793  17.234  1.00  0.00     0.170 C 
HETATM   17  S1  UNL     1      26.658   1.756  16.626  1.00  0.00    -0.041 SA
BRANCH  16  18
HETATM   18  N2  UNL     1      24.822   2.369  18.361  1.00  0.00    -0.355 N 
HETATM   19  C13 UNL     1      23.566   1.661  18.257  1.00  0.00     0.145 C 
HETATM   20  C14 UNL     1      23.624   0.504  19.230  1.00  0.00     0.145 C 
HETATM   21  N3  UNL     1      23.677   1.065  20.564  1.00  0.00    -0.345 N 
HETATM   22  C15 UNL     1      23.141   0.342  21.637  1.00  0.00     0.274 C 
HETATM   23  C17 UNL     1      24.267   2.354  20.733  1.00  0.00     0.145 C 
HETATM   24  O1  UNL     1      22.599  -0.795  21.398  1.00  0.00    -0.268 OA
HETATM   25  C18 UNL     1      25.327   2.654  19.691  1.00  0.00     0.145 C 
BRANCH  22  26
HETATM   26  C16 UNL     1      23.154   0.791  23.034  1.00  0.00     0.269 C 
HETATM   27 CL1  UNL     1      22.155  -0.296  24.047  1.00  0.00    -0.073 Cl
HETATM   28 CL2  UNL     1      22.461   2.416  23.129  1.00  0.00    -0.073 Cl
HETATM   29 CL3  UNL     1      24.808   0.772  23.738  1.00  0.00    -0.073 Cl
ENDBRANCH  22  26
ENDBRANCH  16  18
ENDBRANCH   1  16
TORSDOF 5
ENDMDL
MODEL 2
REMARK VINA RESULT: -10.244370569      1.288      1.695
REMARK  5 active torsions:
REMARK  status: ('A' for Active; 'I' for Inactive)
REMARK    1  A    between atoms: C2_2  and  C3_3 
REMARK    2  A    between atoms: C11_11  and  N1_12 
REMARK    3  A    between atoms: N1_12  and  C12_14 
REMARK    4  A    between atoms: C12_14  and  N2_16 
REMARK       I    between atoms: N3_19  and  C15_20 
REMARK    5  A    between atoms: C15_20  and  C16_22 
ROOT
HETATM    1  N1  UNL     1      25.320   3.925  16.749  1.00  0.00    -0.362 N 
ATOM      2  H1  UNL     1      26.156   4.289  16.290  1.00  0.00     0.162 HD
ENDROOT
BRANCH   1   3
HETATM    3  C11 UNL     1      24.171   4.782  16.719  1.00  0.00     0.083 C 
HETATM    4  C10 UNL     1      24.331   5.876  15.694  1.00  0.00     0.026 C 
HETATM    5  C9  UNL     1      23.200   6.876  15.818  1.00  0.00     0.011 C 
HETATM    6  C2  UNL     1      23.301   7.612  17.149  1.00  0.00    -0.040 C 
HETATM    7  C1  UNL     1      24.438   8.630  16.991  1.00  0.00     0.015 C 
HETATM    8  C20 UNL     1      23.592   6.712  18.285  1.00  0.00     0.011 C 
HETATM    9  C19 UNL     1      23.738   5.268  18.051  1.00  0.00     0.026 C 
BRANCH   6  10
HETATM   10  C3  UNL     1      21.973   8.355  17.275  1.00  0.00    -0.006 C 
HETATM   11  C4  UNL     1      22.028   9.714  16.609  1.00  0.00     0.005 C 
HETATM   12  C5  UNL     1      20.666  10.358  16.776  1.00  0.00     0.000 C 
HETATM   13  C6  UNL     1      20.236  10.469  18.208  1.00  0.00     0.000 C 
HETATM   14  C7  UNL     1      20.290   9.136  18.926  1.00  0.00     0.000 C 
HETATM   15  C8  UNL     1      21.650   8.486  18.748  1.00  0.00     0.005 C 
ENDBRANCH   6  10
ENDBRANCH   1   3
BRANCH   1  16
HETATM   16  C12 UNL     1      25.448   2.662  17.322  1.00  0.00     0.170 C 
HETATM   17  S1  UNL     1      26.306   1.500  16.586  1.00  0.00    -0.041 SA
BRANCH  16  18
HETATM   18  N2  UNL     1      24.851   2.345  18.567  1.00  0.00    -0.355 N 
HETATM   19  C13 UNL     1      25.408   2.749  19.838  1.00  0.00     0.145 C 
HETATM   20  C14 UNL     1      24.271   3.297  20.672  1.00  0.00     0.145 C 
HETATM   21  N3  UNL     1      23.368   2.198  20.943  1.00  0.00    -0.345 N 
HETATM   22  C15 UNL     1      22.607   2.207  22.119  1.00  0.00     0.274 C 
HETATM   23  C17 UNL     1      23.297   1.131  19.998  1.00  0.00     0.145 C 
HETATM   24  O1  UNL     1      22.751   3.187  22.933  1.00  0.00    -0.268 OA
HETATM   25  C18 UNL     1      23.620   1.578  18.585  1.00  0.00     0.145 C 
BRANCH  22  26
HETATM   26  C16 UNL     1      21.642   1.166  22.495  1.00  0.00     0.269 C 
HETATM   27 CL1  UNL     1      20.095   1.410  21.628  1.00  0.00    -0.073 Cl
HETATM   28 CL2  UNL     1      21.318   1.276  24.230  1.00  0.00    -0.073 Cl
HETATM   29 CL3  UNL     1      22.218  -0.481  22.066  1.00  0.00    -0.073 Cl
ENDBRANCH  22  26
ENDBRANCH  16  18
ENDBRANCH   1  16
TORSDOF 5
ENDMDL
MODEL 3
REMARK VINA RESULT: -9.863822856      1.104      1.152
REMARK  5 active torsions:
REMARK  status: ('A' for Active; 'I' for Inactive)
REMARK    1  A    between atoms: C2_2  and  C3_3 
REMARK    2  A    between atoms: C11_11  and  N1_12 
REMARK    3  A    between atoms: N1_12  and  C12_14 
REMARK    4  A    between atoms: C12_14  and  N2_16 
REMARK       I    between atoms: N3_19  and  C15_20 
REMARK    5  A    between atoms: C15_20  and  C16_22 
ROOT
HETATM    1  N1  UNL     1      25.576   3.768  17.433  1.00  0.00    -0.362 N 
ATOM      2  H1  UNL     1      26.452   4.262  17.604  1.00  0.00     0.162 HD
ENDROOT
BRANCH   1   3
HETATM    3  C11 UNL     1      24.423   4.595  17.232  1.00  0.00     0.083 C 
HETATM    4  C10 UNL     1      24.669   5.626  16.160  1.00  0.00     0.026 C 
HETATM    5  C9  UNL     1      23.516   6.608  16.106  1.00  0.00     0.011 C 
HETATM    6  C2  UNL     1      23.469   7.426  17.390  1.00  0.00    -0.040 C 
HETATM    7  C1  UNL     1      24.600   8.458  17.284  1.00  0.00     0.015 C 
HETATM    8  C20 UNL     1      23.656   6.605  18.605  1.00  0.00     0.011 C 
HETATM    9  C19 UNL     1      23.848   5.153  18.479  1.00  0.00     0.026 C 
BRANCH   6  10
HETATM   10  C3  UNL     1      22.123   8.146  17.334  1.00  0.00    -0.006 C 
HETATM   11  C4  UNL     1      22.215   9.443  16.556  1.00  0.00     0.005 C 
HETATM   12  C5  UNL     1      20.834  10.067  16.546  1.00  0.00     0.000 C 
HETATM   13  C6  UNL     1      20.277  10.292  17.920  1.00  0.00     0.000 C 
HETATM   14  C7  UNL     1      20.289   9.029  18.756  1.00  0.00     0.000 C 
HETATM   15  C8  UNL     1      21.669   8.398  18.755  1.00  0.00     0.005 C 
ENDBRANCH   6  10
ENDBRANCH   1   3
BRANCH   1  16
HETATM   16  C12 UNL     1      25.660   2.378  17.425  1.00  0.00     0.170 C 
HETATM   17  S1  UNL     1      26.620   1.609  16.368  1.00  0.00    -0.041 SA
BRANCH  16  18
HETATM   18  N2  UNL     1      24.929   1.582  18.342  1.00  0.00    -0.355 N 
HETATM   19  C13 UNL     1      24.286   0.340  17.976  1.00  0.00     0.145 C 
HETATM   20  C14 UNL     1      24.622  -0.670  19.050  1.00  0.00     0.145 C 
HETATM   21  N3  UNL     1      23.995  -0.221  20.276  1.00  0.00    -0.345 N 
HETATM   22  C15 UNL     1      23.602  -1.164  21.233  1.00  0.00     0.274 C 
HETATM   23  C17 UNL     1      23.787   1.179  20.456  1.00  0.00     0.145 C 
HETATM   24  O1  UNL     1      23.795  -2.407  20.983  1.00  0.00    -0.268 OA
HETATM   25  C18 UNL     1      24.809   2.022  19.719  1.00  0.00     0.145 C 
BRANCH  22  26
HETATM   26  C16 UNL     1      22.979  -0.835  22.522  1.00  0.00     0.269 C 
HETATM   27 CL1  UNL     1      22.734  -2.320  23.492  1.00  0.00    -0.073 Cl
HETATM   28 CL2  UNL     1      21.394  -0.105  22.231  1.00  0.00    -0.073 Cl
HETATM   29 CL3  UNL     1      24.004   0.261  23.510  1.00  0.00    -0.073 Cl
ENDBRANCH  22  26
ENDBRANCH  16  18
ENDBRANCH   1  16
TORSDOF 5
ENDMDL
MODEL 4
REMARK VINA RESULT: -9.660947271      1.266      1.565
REMARK  5 active torsions:
REMARK  status: ('A' for Active; 'I' for Inactive)
REMARK    1  A    between atoms: C2_2  and  C3_3 
REMARK    2  A    between atoms: C11_11  and  N1_12 
REMARK    3  A    between atoms: N1_12  and  C12_14 
REMARK    4  A    between atoms: C12_14  and  N2_16 
REMARK       I    between atoms: N3_19  and  C15_20 
REMARK    5  A    between atoms: C15_20  and  C16_22 
ROOT
HETATM    1  N1  UNL     1      25.302   3.686  17.491  1.00  0.00    -0.362 N 
ATOM      2  H1  UNL     1      26.231   4.085  17.350  1.00  0.00     0.162 HD
ENDROOT
BRANCH   1   3
HETATM    3  C11 UNL     1      24.202   4.571  17.248  1.00  0.00     0.083 C 
HETATM    4  C10 UNL     1      24.531   5.569  16.167  1.00  0.00     0.026 C 
HETATM    5  C9  UNL     1      23.434   6.611  16.067  1.00  0.00     0.011 C 
HETATM    6  C2  UNL     1      23.400   7.452  17.337  1.00  0.00    -0.040 C 
HETATM    7  C1  UNL     1      24.588   8.419  17.244  1.00  0.00     0.015 C 
HETATM    8  C20 UNL     1      23.512   6.643  18.569  1.00  0.00     0.011 C 
HETATM    9  C19 UNL     1      23.627   5.181  18.471  1.00  0.00     0.026 C 
BRANCH   6  10
HETATM   10  C3  UNL     1      22.098   8.243  17.234  1.00  0.00    -0.006 C 
HETATM   11  C4  UNL     1      22.307   9.579  16.552  1.00  0.00     0.005 C 
HETATM   12  C5  UNL     1      20.961  10.273  16.486  1.00  0.00     0.000 C 
HETATM   13  C6  UNL     1      20.318  10.441  17.830  1.00  0.00     0.000 C 
HETATM   14  C7  UNL     1      20.209   9.130  18.581  1.00  0.00     0.000 C 
HETATM   15  C8  UNL     1      21.554   8.430  18.634  1.00  0.00     0.005 C 
ENDBRANCH   6  10
ENDBRANCH   1   3
BRANCH   1  16
HETATM   16  C12 UNL     1      25.273   2.354  17.896  1.00  0.00     0.170 C 
HETATM   17  S1  UNL     1      25.531   1.157  16.832  1.00  0.00    -0.041 SA
BRANCH  16  18
HETATM   18  N2  UNL     1      25.034   1.990  19.244  1.00  0.00    -0.355 N 
HETATM   19  C13 UNL     1      25.097   2.928  20.341  1.00  0.00     0.145 C 
HETATM   20  C14 UNL     1      23.879   2.690  21.205  1.00  0.00     0.145 C 
HETATM   21  N3  UNL     1      24.010   1.367  21.779  1.00  0.00    -0.345 N 
HETATM   22  C15 UNL     1      23.427   1.096  23.024  1.00  0.00     0.274 C 
HETATM   23  C17 UNL     1      24.748   0.384  21.055  1.00  0.00     0.145 C 
HETATM   24  O1  UNL     1      22.807   2.042  23.627  1.00  0.00    -0.268 OA
HETATM   25  C18 UNL     1      24.708   0.610  19.555  1.00  0.00     0.145 C 
BRANCH  22  26
HETATM   26  C16 UNL     1      23.469  -0.207  23.698  1.00  0.00     0.269 C 
HETATM   27 CL1  UNL     1      22.772  -1.476  22.645  1.00  0.00    -0.073 Cl
HETATM   28 CL2  UNL     1      22.498  -0.129  25.175  1.00  0.00    -0.073 Cl
HETATM   29 CL3  UNL     1      25.149  -0.721  24.078  1.00  0.00    -0.073 Cl
ENDBRANCH  22  26
ENDBRANCH  16  18
ENDBRANCH   1  16
TORSDOF 5
ENDMDL
MODEL 5
REMARK VINA RESULT: -9.314126815      4.044      4.792
REMARK  5 active torsions:
REMARK  status: ('A' for Active; 'I' for Inactive)
REMARK    1  A    between atoms: C2_2  and  C3_3 
REMARK    2  A    between atoms: C11_11  and  N1_12 
REMARK    3  A    between atoms: N1_12  and  C12_14 
REMARK    4  A    between atoms: C12_14  and  N2_16 
REMARK       I    between atoms: N3_19  and  C15_20 
REMARK    5  A    between atoms: C15_20  and  C16_22 
ROOT
HETATM    1  N1  UNL     1      24.544   3.795  19.381  1.00  0.00    -0.362 N 
ATOM      2  H1  UNL     1      25.428   4.232  19.644  1.00  0.00     0.162 HD
ENDROOT
BRANCH   1   3
HETATM    3  C11 UNL     1      23.576   4.664  18.780  1.00  0.00     0.083 C 
HETATM    4  C10 UNL     1      24.087   5.241  17.484  1.00  0.00     0.026 C 
HETATM    5  C9  UNL     1      23.134   6.302  16.973  1.00  0.00     0.011 C 
HETATM    6  C2  UNL     1      23.126   7.494  17.921  1.00  0.00    -0.040 C 
HETATM    7  C1  UNL     1      24.426   8.265  17.654  1.00  0.00     0.015 C 
HETATM    8  C20 UNL     1      23.065   7.100  19.344  1.00  0.00     0.011 C 
HETATM    9  C19 UNL     1      23.007   5.675  19.702  1.00  0.00     0.026 C 
BRANCH   6  10
HETATM   10  C3  UNL     1      21.938   8.338  17.463  1.00  0.00    -0.006 C 
HETATM   11  C4  UNL     1      22.383   9.536  16.651  1.00  0.00     0.005 C 
HETATM   12  C5  UNL     1      21.137  10.292  16.235  1.00  0.00     0.000 C 
HETATM   13  C6  UNL     1      20.281  10.705  17.395  1.00  0.00     0.000 C 
HETATM   14  C7  UNL     1      19.924   9.534  18.288  1.00  0.00     0.000 C 
HETATM   15  C8  UNL     1      21.171   8.771  18.694  1.00  0.00     0.005 C 
ENDBRANCH   6  10
ENDBRANCH   1   3
BRANCH   1  16
HETATM   16  C12 UNL     1      24.440   2.434  19.653  1.00  0.00     0.170 C 
HETATM   17  S1  UNL     1      23.714   1.910  21.005  1.00  0.00    -0.041 SA
BRANCH  16  18
HETATM   18  N2  UNL     1      24.945   1.455  18.761  1.00  0.00    -0.355 N 
HETATM   19  C13 UNL     1      24.453   0.096  18.715  1.00  0.00     0.145 C 
HETATM   20  C14 UNL     1      24.252  -0.257  17.258  1.00  0.00     0.145 C 
HETATM   21  N3  UNL     1      25.557  -0.265  16.633  1.00  0.00    -0.345 N 
HETATM   22  C15 UNL     1      25.790  -1.102  15.535  1.00  0.00     0.274 C 
HETATM   23  C17 UNL     1      26.573   0.579  17.174  1.00  0.00     0.145 C 
HETATM   24  O1  UNL     1      24.835  -1.855  15.127  1.00  0.00    -0.268 OA
HETATM   25  C18 UNL     1      26.009   1.817  17.844  1.00  0.00     0.145 C 
BRANCH  22  26
HETATM   26  C16 UNL     1      27.059  -1.184  14.802  1.00  0.00     0.269 C 
HETATM   27 CL1  UNL     1      26.850  -2.134  13.299  1.00  0.00    -0.073 Cl
HETATM   28 CL2  UNL     1      28.258  -2.009  15.807  1.00  0.00    -0.073 Cl
HETATM   29 CL3  UNL     1      27.662   0.435  14.306  1.00  0.00    -0.073 Cl
ENDBRANCH  22  26
ENDBRANCH  16  18
ENDBRANCH   1  16
TORSDOF 5
ENDMDL
