MODEL 1
REMARK VINA RESULT: -6.116709694      0.000      0.000
REMARK  3 active torsions:
REMARK  status: ('A' for Active; 'I' for Inactive)
REMARK       I    between atoms: C2_4  and  N2_5 
REMARK       I    between atoms: C2_4  and  N3_8 
REMARK    1  A    between atoms: N4_22  and  C17_23 
REMARK    2  A    between atoms: C17_23  and  C20_30 
REMARK    3  A    between atoms: C18_24  and  C19_26 
ROOT
HETATM    1  C1  UNL     1      24.483  -3.015  19.311  1.00  0.00     0.165 C 
HETATM    2  N1  UNL     1      24.325  -2.583  20.661  1.00  0.00    -0.231 N 
ATOM      3  H1  UNL     1      23.402  -2.715  21.073  1.00  0.00     0.177 HD
HETATM    4  C2  UNL     1      25.212  -2.047  21.414  1.00  0.00     0.671 C 
HETATM    5  N2  UNL     1      26.522  -1.828  20.921  1.00  0.00    -0.231 N 
ATOM      6  H2  UNL     1      26.870  -0.889  20.729  1.00  0.00     0.177 HD
HETATM    7  C3  UNL     1      27.352  -3.009  20.702  1.00  0.00     0.165 C 
HETATM    8  N3  UNL     1      24.865  -1.689  22.725  1.00  0.00    -0.216 N 
HETATM    9  C4  UNL     1      25.828  -1.550  23.804  1.00  0.00     0.141 C 
HETATM   10  C5  UNL     1      25.806  -0.095  24.176  1.00  0.00     0.023 C 
HETATM   11  C6  UNL     1      24.583   0.668  23.837  1.00  0.00     0.039 C 
HETATM   12  C7  UNL     1      23.312  -0.050  23.767  1.00  0.00     0.077 C 
HETATM   13  C8  UNL     1      23.496  -1.423  23.160  1.00  0.00     0.177 C 
HETATM   14  C9  UNL     1      22.668  -0.276  25.117  1.00  0.00    -0.022 A 
HETATM   15  C10 UNL     1      23.256   0.057  26.298  1.00  0.00     0.010 A 
HETATM   16  C11 UNL     1      22.598  -0.203  27.483  1.00  0.00     0.001 A 
HETATM   17  C12 UNL     1      21.355  -0.795  27.474  1.00  0.00     0.001 A 
HETATM   18  C13 UNL     1      20.785  -1.120  26.263  1.00  0.00     0.008 A 
HETATM   19  C14 UNL     1      21.430  -0.865  25.086  1.00  0.00    -0.048 A 
HETATM   20  C15 UNL     1      20.747  -1.218  23.797  1.00  0.00     0.059 C 
HETATM   21  C16 UNL     1      21.108  -0.272  22.708  1.00  0.00     0.129 C 
HETATM   22  N4  UNL     1      22.262   0.566  23.004  1.00  0.00    -0.363 N 
ENDROOT
BRANCH  22  23
HETATM   23  C17 UNL     1      22.190   1.901  22.501  1.00  0.00     0.068 C 
HETATM   24  C18 UNL     1      21.651   2.891  23.136  1.00  0.00     0.144 C 
HETATM   25 CL1  UNL     1      20.941   2.660  24.766  1.00  0.00    -0.077 Cl
BRANCH  24  26
HETATM   26  C19 UNL     1      21.497   4.247  22.620  1.00  0.00     0.430 C 
HETATM   27  F1  UNL     1      21.104   4.391  21.332  1.00  0.00    -0.165 F 
HETATM   28  F2  UNL     1      20.495   4.856  23.413  1.00  0.00    -0.165 F 
HETATM   29  F3  UNL     1      22.616   5.039  22.839  1.00  0.00    -0.165 F 
ENDBRANCH  24  26
BRANCH  23  30
HETATM   30  C20 UNL     1      22.929   2.169  21.272  1.00  0.00    -0.008 A 
HETATM   31  C21 UNL     1      22.400   1.692  20.075  1.00  0.00     0.014 A 
HETATM   32  C22 UNL     1      23.007   1.888  18.872  1.00  0.00     0.001 A 
HETATM   33  C23 UNL     1      24.206   2.589  18.803  1.00  0.00     0.000 A 
HETATM   34  C24 UNL     1      24.762   3.076  19.965  1.00  0.00     0.001 A 
HETATM   35  C25 UNL     1      24.105   2.852  21.180  1.00  0.00     0.014 A 
ENDBRANCH  23  30
ENDBRANCH  22  23
TORSDOF 3
ENDMDL
MODEL 2
REMARK VINA RESULT: -5.751660033      3.098      6.260
REMARK  3 active torsions:
REMARK  status: ('A' for Active; 'I' for Inactive)
REMARK       I    between atoms: C2_4  and  N2_5 
REMARK       I    between atoms: C2_4  and  N3_8 
REMARK    1  A    between atoms: N4_22  and  C17_23 
REMARK    2  A    between atoms: C17_23  and  C20_30 
REMARK    3  A    between atoms: C18_24  and  C19_26 
ROOT
HETATM    1  C1  UNL     1      20.541   6.088  26.503  1.00  0.00     0.165 C 
HETATM    2  N1  UNL     1      21.075   4.823  26.888  1.00  0.00    -0.231 N 
ATOM      3  H1  UNL     1      22.077   4.695  26.750  1.00  0.00     0.177 HD
HETATM    4  C2  UNL     1      20.438   3.831  27.387  1.00  0.00     0.671 C 
HETATM    5  N2  UNL     1      19.042   3.925  27.614  1.00  0.00    -0.231 N 
ATOM      6  H2  UNL     1      18.374   3.399  27.051  1.00  0.00     0.177 HD
HETATM    7  C3  UNL     1      18.605   4.809  28.690  1.00  0.00     0.165 C 
HETATM    8  N3  UNL     1      21.143   2.661  27.706  1.00  0.00    -0.216 N 
HETATM    9  C4  UNL     1      20.692   1.692  28.690  1.00  0.00     0.141 C 
HETATM   10  C5  UNL     1      20.405   0.438  27.914  1.00  0.00     0.023 C 
HETATM   11  C6  UNL     1      21.092   0.280  26.612  1.00  0.00     0.039 C 
HETATM   12  C7  UNL     1      22.388   0.931  26.426  1.00  0.00     0.077 C 
HETATM   13  C8  UNL     1      22.416   2.287  27.095  1.00  0.00     0.177 C 
HETATM   14  C9  UNL     1      23.547   0.154  27.009  1.00  0.00    -0.022 A 
HETATM   15  C10 UNL     1      23.400  -0.987  27.734  1.00  0.00     0.010 A 
HETATM   16  C11 UNL     1      24.517  -1.619  28.243  1.00  0.00     0.001 A 
HETATM   17  C12 UNL     1      25.773  -1.100  28.019  1.00  0.00     0.001 A 
HETATM   18  C13 UNL     1      25.890   0.057  27.282  1.00  0.00     0.008 A 
HETATM   19  C14 UNL     1      24.788   0.688  26.774  1.00  0.00    -0.048 A 
HETATM   20  C15 UNL     1      24.980   1.930  25.955  1.00  0.00     0.059 C 
HETATM   21  C16 UNL     1      23.945   2.054  24.895  1.00  0.00     0.129 C 
HETATM   22  N4  UNL     1      22.803   1.167  25.070  1.00  0.00    -0.363 N 
ENDROOT
BRANCH  22  23
HETATM   23  C17 UNL     1      22.252   0.639  23.863  1.00  0.00     0.068 C 
HETATM   24  C18 UNL     1      21.361   1.239  23.144  1.00  0.00     0.144 C 
HETATM   25 CL1  UNL     1      20.736   2.853  23.614  1.00  0.00    -0.077 Cl
BRANCH  24  26
HETATM   26  C19 UNL     1      20.727   0.695  21.947  1.00  0.00     0.430 C 
HETATM   27  F1  UNL     1      20.260  -0.575  22.003  1.00  0.00    -0.165 F 
HETATM   28  F2  UNL     1      19.608   1.520  21.687  1.00  0.00    -0.165 F 
HETATM   29  F3  UNL     1      21.511   0.835  20.809  1.00  0.00    -0.165 F 
ENDBRANCH  24  26
BRANCH  23  30
HETATM   30  C20 UNL     1      22.878  -0.574  23.344  1.00  0.00    -0.008 A 
HETATM   31  C21 UNL     1      22.471  -1.796  23.874  1.00  0.00     0.014 A 
HETATM   32  C22 UNL     1      22.989  -2.985  23.461  1.00  0.00     0.001 A 
HETATM   33  C23 UNL     1      23.965  -3.015  22.472  1.00  0.00     0.000 A 
HETATM   34  C24 UNL     1      24.394  -1.827  21.923  1.00  0.00     0.001 A 
HETATM   35  C25 UNL     1      23.836  -0.626  22.377  1.00  0.00     0.014 A 
ENDBRANCH  23  30
ENDBRANCH  22  23
TORSDOF 3
ENDMDL
MODEL 3
REMARK VINA RESULT: -5.614946313      3.337      4.940
REMARK  3 active torsions:
REMARK  status: ('A' for Active; 'I' for Inactive)
REMARK       I    between atoms: C2_4  and  N2_5 
REMARK       I    between atoms: C2_4  and  N3_8 
REMARK    1  A    between atoms: N4_22  and  C17_23 
REMARK    2  A    between atoms: C17_23  and  C20_30 
REMARK    3  A    between atoms: C18_24  and  C19_26 
ROOT
HETATM    1  C1  UNL     1      26.752  -3.015  27.444  1.00  0.00     0.165 C 
HETATM    2  N1  UNL     1      25.920  -1.871  27.628  1.00  0.00    -0.231 N 
ATOM      3  H1  UNL     1      24.928  -2.052  27.773  1.00  0.00     0.177 HD
HETATM    4  C2  UNL     1      26.280  -0.642  27.632  1.00  0.00     0.671 C 
HETATM    5  N2  UNL     1      27.642  -0.301  27.440  1.00  0.00    -0.231 N 
ATOM      6  H2  UNL     1      27.964   0.150  26.583  1.00  0.00     0.177 HD
HETATM    7  C3  UNL     1      28.564  -0.624  28.525  1.00  0.00     0.165 C 
HETATM    8  N3  UNL     1      25.310   0.350  27.832  1.00  0.00    -0.216 N 
HETATM    9  C4  UNL     1      25.608   1.678  28.343  1.00  0.00     0.141 C 
HETATM   10  C5  UNL     1      25.291   2.620  27.217  1.00  0.00     0.023 C 
HETATM   11  C6  UNL     1      24.334   2.146  26.192  1.00  0.00     0.039 C 
HETATM   12  C7  UNL     1      23.321   1.169  26.585  1.00  0.00     0.077 C 
HETATM   13  C8  UNL     1      23.887   0.163  27.562  1.00  0.00     0.177 C 
HETATM   14  C9  UNL     1      22.119   1.782  27.269  1.00  0.00    -0.022 A 
HETATM   15  C10 UNL     1      22.026   3.100  27.590  1.00  0.00     0.010 A 
HETATM   16  C11 UNL     1      20.896   3.567  28.229  1.00  0.00     0.001 A 
HETATM   17  C12 UNL     1      19.868   2.707  28.542  1.00  0.00     0.001 A 
HETATM   18  C13 UNL     1      19.990   1.377  28.205  1.00  0.00     0.008 A 
HETATM   19  C14 UNL     1      21.106   0.908  27.570  1.00  0.00    -0.048 A 
HETATM   20  C15 UNL     1      21.171  -0.545  27.204  1.00  0.00     0.059 C 
HETATM   21  C16 UNL     1      21.941  -0.761  25.950  1.00  0.00     0.129 C 
HETATM   22  N4  UNL     1      22.733   0.388  25.531  1.00  0.00    -0.363 N 
ENDROOT
BRANCH  22  23
HETATM   23  C17 UNL     1      22.810   0.591  24.120  1.00  0.00     0.068 C 
HETATM   24  C18 UNL     1      23.752   0.127  23.366  1.00  0.00     0.144 C 
HETATM   25 CL1  UNL     1      25.078  -0.863  24.058  1.00  0.00    -0.077 Cl
BRANCH  24  26
HETATM   26  C19 UNL     1      23.897   0.377  21.936  1.00  0.00     0.430 C 
HETATM   27  F1  UNL     1      23.827   1.662  21.510  1.00  0.00    -0.165 F 
HETATM   28  F2  UNL     1      25.186  -0.089  21.585  1.00  0.00    -0.165 F 
HETATM   29  F3  UNL     1      23.045  -0.398  21.161  1.00  0.00    -0.165 F 
ENDBRANCH  24  26
BRANCH  23  30
HETATM   30  C20 UNL     1      21.650   1.219  23.494  1.00  0.00    -0.008 A 
HETATM   31  C21 UNL     1      21.400   2.560  23.779  1.00  0.00     0.014 A 
HETATM   32  C22 UNL     1      20.348   3.241  23.248  1.00  0.00     0.001 A 
HETATM   33  C23 UNL     1      19.468   2.600  22.383  1.00  0.00     0.000 A 
HETATM   34  C24 UNL     1      19.681   1.274  22.077  1.00  0.00     0.001 A 
HETATM   35  C25 UNL     1      20.775   0.611  22.645  1.00  0.00     0.014 A 
ENDBRANCH  23  30
ENDBRANCH  22  23
TORSDOF 3
ENDMDL
MODEL 4
REMARK VINA RESULT: -5.546907864      2.403      5.696
REMARK  3 active torsions:
REMARK  status: ('A' for Active; 'I' for Inactive)
REMARK       I    between atoms: C2_4  and  N2_5 
REMARK       I    between atoms: C2_4  and  N3_8 
REMARK    1  A    between atoms: N4_22  and  C17_23 
REMARK    2  A    between atoms: C17_23  and  C20_30 
REMARK    3  A    between atoms: C18_24  and  C19_26 
ROOT
HETATM    1  C1  UNL     1      25.228   0.969  25.750  1.00  0.00     0.165 C 
HETATM    2  N1  UNL     1      24.794   1.017  24.392  1.00  0.00    -0.231 N 
ATOM      3  H1  UNL     1      25.379   1.550  23.749  1.00  0.00     0.177 HD
HETATM    4  C2  UNL     1      23.753   0.465  23.889  1.00  0.00     0.671 C 
HETATM    5  N2  UNL     1      22.886  -0.296  24.712  1.00  0.00    -0.231 N 
ATOM      6  H2  UNL     1      21.952   0.036  24.954  1.00  0.00     0.177 HD
HETATM    7  C3  UNL     1      23.390  -1.577  25.197  1.00  0.00     0.165 C 
HETATM    8  N3  UNL     1      23.493   0.624  22.520  1.00  0.00    -0.216 N 
HETATM    9  C4  UNL     1      22.687  -0.300  21.741  1.00  0.00     0.141 C 
HETATM   10  C5  UNL     1      21.477   0.484  21.319  1.00  0.00     0.023 C 
HETATM   11  C6  UNL     1      21.609   1.958  21.280  1.00  0.00     0.039 C 
HETATM   12  C7  UNL     1      22.930   2.532  21.028  1.00  0.00     0.077 C 
HETATM   13  C8  UNL     1      24.010   1.729  21.717  1.00  0.00     0.177 C 
HETATM   14  C9  UNL     1      23.307   2.567  19.564  1.00  0.00    -0.022 A 
HETATM   15  C10 UNL     1      22.546   2.022  18.576  1.00  0.00     0.010 A 
HETATM   16  C11 UNL     1      22.981   2.087  17.268  1.00  0.00     0.001 A 
HETATM   17  C12 UNL     1      24.175   2.699  16.961  1.00  0.00     0.001 A 
HETATM   18  C13 UNL     1      24.924   3.241  17.982  1.00  0.00     0.008 A 
HETATM   19  C14 UNL     1      24.499   3.181  19.280  1.00  0.00    -0.048 A 
HETATM   20  C15 UNL     1      25.345   3.813  20.346  1.00  0.00     0.059 C 
HETATM   21  C16 UNL     1      24.515   4.358  21.453  1.00  0.00     0.129 C 
HETATM   22  N4  UNL     1      23.135   3.890  21.451  1.00  0.00    -0.363 N 
ENDROOT
BRANCH  22  23
HETATM   23  C17 UNL     1      22.165   4.854  21.860  1.00  0.00     0.068 C 
HETATM   24  C18 UNL     1      21.505   4.798  22.971  1.00  0.00     0.144 C 
HETATM   25 CL1  UNL     1      21.781   3.464  24.137  1.00  0.00    -0.077 Cl
BRANCH  24  26
HETATM   26  C19 UNL     1      20.458   5.726  23.385  1.00  0.00     0.430 C 
HETATM   27  F1  UNL     1      19.566   6.129  22.447  1.00  0.00    -0.165 F 
HETATM   28  F2  UNL     1      19.712   5.056  24.383  1.00  0.00    -0.165 F 
HETATM   29  F3  UNL     1      20.954   6.845  24.040  1.00  0.00    -0.165 F 
ENDBRANCH  24  26
BRANCH  23  30
HETATM   30  C20 UNL     1      22.058   6.054  21.035  1.00  0.00    -0.008 A 
HETATM   31  C21 UNL     1      21.907   5.889  19.660  1.00  0.00     0.014 A 
HETATM   32  C22 UNL     1      21.796   6.939  18.802  1.00  0.00     0.001 A 
HETATM   33  C23 UNL     1      21.834   8.242  19.286  1.00  0.00     0.000 A 
HETATM   34  C24 UNL     1      21.983   8.446  20.639  1.00  0.00     0.001 A 
HETATM   35  C25 UNL     1      22.093   7.339  21.487  1.00  0.00     0.014 A 
ENDBRANCH  23  30
ENDBRANCH  22  23
TORSDOF 3
ENDMDL
MODEL 5
REMARK VINA RESULT: -5.361486764      2.876      6.108
REMARK  3 active torsions:
REMARK  status: ('A' for Active; 'I' for Inactive)
REMARK       I    between atoms: C2_4  and  N2_5 
REMARK       I    between atoms: C2_4  and  N3_8 
REMARK    1  A    between atoms: N4_22  and  C17_23 
REMARK    2  A    between atoms: C17_23  and  C20_30 
REMARK    3  A    between atoms: C18_24  and  C19_26 
ROOT
HETATM    1  C1  UNL     1      23.991   2.554  25.776  1.00  0.00     0.165 C 
HETATM    2  N1  UNL     1      23.774   2.161  24.423  1.00  0.00    -0.231 N 
ATOM      3  H1  UNL     1      24.587   2.188  23.808  1.00  0.00     0.177 HD
HETATM    4  C2  UNL     1      22.673   1.778  23.892  1.00  0.00     0.671 C 
HETATM    5  N2  UNL     1      21.494   1.710  24.676  1.00  0.00    -0.231 N 
ATOM      6  H2  UNL     1      20.725   2.366  24.541  1.00  0.00     0.177 HD
HETATM    7  C3  UNL     1      21.431   0.657  25.685  1.00  0.00     0.165 C 
HETATM    8  N3  UNL     1      22.657   1.427  22.535  1.00  0.00    -0.216 N 
HETATM    9  C4  UNL     1      21.670   0.540  21.943  1.00  0.00     0.141 C 
HETATM   10  C5  UNL     1      20.891   1.393  20.982  1.00  0.00     0.023 C 
HETATM   11  C6  UNL     1      21.558   2.612  20.472  1.00  0.00     0.039 C 
HETATM   12  C7  UNL     1      23.017   2.623  20.385  1.00  0.00     0.077 C 
HETATM   13  C8  UNL     1      23.637   1.901  21.561  1.00  0.00     0.177 C 
HETATM   14  C9  UNL     1      23.556   1.941  19.147  1.00  0.00    -0.022 A 
HETATM   15  C10 UNL     1      22.775   1.283  18.249  1.00  0.00     0.010 A 
HETATM   16  C11 UNL     1      23.359   0.675  17.156  1.00  0.00     0.001 A 
HETATM   17  C12 UNL     1      24.722   0.731  16.973  1.00  0.00     0.001 A 
HETATM   18  C13 UNL     1      25.487   1.405  17.900  1.00  0.00     0.008 A 
HETATM   19  C14 UNL     1      24.916   2.010  18.984  1.00  0.00    -0.048 A 
HETATM   20  C15 UNL     1      25.798   2.752  19.945  1.00  0.00     0.059 C 
HETATM   21  C16 UNL     1      25.097   3.918  20.544  1.00  0.00     0.129 C 
HETATM   22  N4  UNL     1      23.653   3.911  20.351  1.00  0.00    -0.363 N 
ENDROOT
BRANCH  22  23
HETATM   23  C17 UNL     1      23.062   5.193  20.140  1.00  0.00     0.068 C 
HETATM   24  C18 UNL     1      22.372   5.834  21.027  1.00  0.00     0.144 C 
HETATM   25 CL1  UNL     1      22.111   5.143  22.661  1.00  0.00    -0.077 Cl
BRANCH  24  26
HETATM   26  C19 UNL     1      21.696   7.110  20.819  1.00  0.00     0.430 C 
HETATM   27  F1  UNL     1      21.070   7.306  19.633  1.00  0.00    -0.165 F 
HETATM   28  F2  UNL     1      20.695   7.190  21.816  1.00  0.00    -0.165 F 
HETATM   29  F3  UNL     1      22.510   8.203  21.081  1.00  0.00    -0.165 F 
ENDBRANCH  24  26
BRANCH  23  30
HETATM   30  C20 UNL     1      23.418   5.873  18.898  1.00  0.00    -0.008 A 
HETATM   31  C21 UNL     1      23.792   5.088  17.809  1.00  0.00     0.014 A 
HETATM   32  C22 UNL     1      24.142   5.620  16.605  1.00  0.00     0.001 A 
HETATM   33  C23 UNL     1      24.136   6.998  16.424  1.00  0.00     0.000 A 
HETATM   34  C24 UNL     1      23.773   7.808  17.477  1.00  0.00     0.001 A 
HETATM   35  C25 UNL     1      23.420   7.221  18.698  1.00  0.00     0.014 A 
ENDBRANCH  23  30
ENDBRANCH  22  23
TORSDOF 3
ENDMDL
