MODEL 1
REMARK VINA RESULT: -6.576500437      0.000      0.000
REMARK  3 active torsions:
REMARK  status: ('A' for Active; 'I' for Inactive)
REMARK    1  A    between atoms: C8_8  and  O1_9 
REMARK    2  A    between atoms: C11_13  and  C12_14 
REMARK    3  A    between atoms: C13_18  and  N1_19 
ROOT
HETATM    1  C1  UNL     1      25.806   2.873  19.338  1.00  0.00     0.016 C 
HETATM    2  C2  UNL     1      24.547   2.470  18.708  1.00  0.00    -0.033 C 
HETATM    3  C3  UNL     1      24.746   2.752  17.202  1.00  0.00     0.010 C 
HETATM    4  C4  UNL     1      24.928   4.200  16.953  1.00  0.00     0.001 C 
HETATM    5  C5  UNL     1      24.340   5.195  17.826  1.00  0.00     0.001 C 
HETATM    6  C6  UNL     1      23.857   4.721  19.200  1.00  0.00     0.008 C 
HETATM    7  C7  UNL     1      23.356   3.384  19.001  1.00  0.00     0.030 C 
HETATM    8  C8  UNL     1      22.535   2.645  19.960  1.00  0.00     0.075 C 
HETATM    9  C9  UNL     1      22.490   1.352  19.129  1.00  0.00     0.045 C 
HETATM   10  C10 UNL     1      23.988   1.128  18.977  1.00  0.00     0.007 C 
HETATM   11  C11 UNL     1      24.600   0.305  20.048  1.00  0.00     0.078 C 
HETATM   12  C13 UNL     1      23.720  -0.054  21.211  1.00  0.00     0.232 C 
HETATM   13  C19 UNL     1      22.714   0.928  21.664  1.00  0.00     0.055 C 
HETATM   14  C20 UNL     1      22.972   2.373  21.298  1.00  0.00     0.094 C 
HETATM   15 BR1  UNL     1      21.883   3.452  22.524  1.00  0.00    -0.088 Br
ENDROOT
BRANCH  12  16
HETATM   16  N1  UNL     1      24.440  -0.532  22.343  1.00  0.00     0.093 N 
HETATM   17  C14 UNL     1      24.798   0.356  23.368  1.00  0.00     0.273 C 
HETATM   18  C15 UNL     1      25.662  -0.403  24.393  1.00  0.00     0.030 C 
HETATM   19  C16 UNL     1      24.773  -1.337  25.143  1.00  0.00     0.003 C 
HETATM   20  C17 UNL     1      23.622  -1.800  24.310  1.00  0.00     0.030 C 
HETATM   21  C18 UNL     1      23.842  -1.733  22.840  1.00  0.00     0.273 C 
ENDBRANCH  12  16
BRANCH  11  22
HETATM   22  C12 UNL     1      25.026  -1.035  19.425  1.00  0.00     0.194 C 
HETATM   23 CL1  UNL     1      23.697  -2.201  19.323  1.00  0.00    -0.083 Cl
HETATM   24 CL2  UNL     1      26.306  -1.843  20.336  1.00  0.00    -0.083 Cl
HETATM   25 CL3  UNL     1      25.701  -0.752  17.786  1.00  0.00    -0.083 Cl
ENDBRANCH  11  22
BRANCH   8  26
HETATM   26  O1  UNL     1      21.238   3.205  19.959  1.00  0.00    -0.388 OA
ATOM     27  H1  UNL     1      20.777   2.893  20.728  1.00  0.00     0.210 HD
ENDBRANCH   8  26
TORSDOF 3
ENDMDL
MODEL 2
REMARK VINA RESULT: -6.463455821      2.323      2.993
REMARK  3 active torsions:
REMARK  status: ('A' for Active; 'I' for Inactive)
REMARK    1  A    between atoms: C8_8  and  O1_9 
REMARK    2  A    between atoms: C11_13  and  C12_14 
REMARK    3  A    between atoms: C13_18  and  N1_19 
ROOT
HETATM    1  C1  UNL     1      23.852   4.563  21.550  1.00  0.00     0.016 C 
HETATM    2  C2  UNL     1      22.530   4.168  21.059  1.00  0.00    -0.033 C 
HETATM    3  C3  UNL     1      22.351   4.936  19.731  1.00  0.00     0.010 C 
HETATM    4  C4  UNL     1      22.322   6.398  19.964  1.00  0.00     0.001 C 
HETATM    5  C5  UNL     1      21.850   6.953  21.216  1.00  0.00     0.001 C 
HETATM    6  C6  UNL     1      21.744   5.997  22.408  1.00  0.00     0.008 C 
HETATM    7  C7  UNL     1      21.350   4.724  21.857  1.00  0.00     0.030 C 
HETATM    8  C8  UNL     1      20.849   3.593  22.637  1.00  0.00     0.075 C 
HETATM    9  C9  UNL     1      20.748   2.636  21.436  1.00  0.00     0.045 C 
HETATM   10  C10 UNL     1      22.187   2.734  20.949  1.00  0.00     0.007 C 
HETATM   11  C11 UNL     1      23.108   1.735  21.544  1.00  0.00     0.078 C 
HETATM   12  C13 UNL     1      22.557   0.884  22.652  1.00  0.00     0.232 C 
HETATM   13  C19 UNL     1      21.586   1.486  23.587  1.00  0.00     0.055 C 
HETATM   14  C20 UNL     1      21.605   2.994  23.699  1.00  0.00     0.094 C 
HETATM   15 BR1  UNL     1      20.719   3.431  25.395  1.00  0.00    -0.088 Br
ENDROOT
BRANCH  12  16
HETATM   16  N1  UNL     1      23.561   0.208  23.402  1.00  0.00     0.093 N 
HETATM   17  C14 UNL     1      24.582   0.942  24.023  1.00  0.00     0.273 C 
HETATM   18  C15 UNL     1      25.580  -0.046  24.656  1.00  0.00     0.030 C 
HETATM   19  C16 UNL     1      24.927  -0.662  25.847  1.00  0.00     0.003 C 
HETATM   20  C17 UNL     1      23.444  -0.749  25.687  1.00  0.00     0.030 C 
HETATM   21  C18 UNL     1      22.963  -0.752  24.279  1.00  0.00     0.273 C 
ENDBRANCH  12  16
BRANCH  11  22
HETATM   22  C12 UNL     1      23.515   0.752  20.434  1.00  0.00     0.194 C 
HETATM   23 CL1  UNL     1      22.969  -0.903  20.745  1.00  0.00    -0.083 Cl
HETATM   24 CL2  UNL     1      25.265   0.647  20.213  1.00  0.00    -0.083 Cl
HETATM   25 CL3  UNL     1      22.861   1.313  18.859  1.00  0.00    -0.083 Cl
ENDBRANCH  11  22
BRANCH   8  26
HETATM   26  O1  UNL     1      19.535   3.893  23.062  1.00  0.00    -0.388 OA
ATOM     27  H1  UNL     1      18.926   3.510  22.442  1.00  0.00     0.210 HD
ENDBRANCH   8  26
TORSDOF 3
ENDMDL
MODEL 3
REMARK VINA RESULT: -6.200158565      2.506      3.517
REMARK  3 active torsions:
REMARK  status: ('A' for Active; 'I' for Inactive)
REMARK    1  A    between atoms: C8_8  and  O1_9 
REMARK    2  A    between atoms: C11_13  and  C12_14 
REMARK    3  A    between atoms: C13_18  and  N1_19 
ROOT
HETATM    1  C1  UNL     1      24.803   1.111  20.818  1.00  0.00     0.016 C 
HETATM    2  C2  UNL     1      23.517   0.420  20.698  1.00  0.00    -0.033 C 
HETATM    3  C3  UNL     1      23.624  -0.396  19.391  1.00  0.00     0.010 C 
HETATM    4  C4  UNL     1      23.761   0.498  18.218  1.00  0.00     0.001 C 
HETATM    5  C5  UNL     1      23.204   1.835  18.219  1.00  0.00     0.001 C 
HETATM    6  C6  UNL     1      22.812   2.426  19.576  1.00  0.00     0.008 C 
HETATM    7  C7  UNL     1      22.327   1.319  20.362  1.00  0.00     0.030 C 
HETATM    8  C8  UNL     1      21.578   1.443  21.613  1.00  0.00     0.075 C 
HETATM    9  C9  UNL     1      21.512  -0.070  21.880  1.00  0.00     0.045 C 
HETATM   10  C10 UNL     1      23.003  -0.374  21.834  1.00  0.00     0.007 C 
HETATM   11  C11 UNL     1      23.692  -0.271  23.143  1.00  0.00     0.078 C 
HETATM   12  C13 UNL     1      22.888   0.273  24.291  1.00  0.00     0.232 C 
HETATM   13  C19 UNL     1      21.890   1.326  24.016  1.00  0.00     0.055 C 
HETATM   14  C20 UNL     1      22.098   2.137  22.756  1.00  0.00     0.094 C 
HETATM   15 BR1  UNL     1      21.060   3.787  22.988  1.00  0.00    -0.088 Br
ENDROOT
BRANCH  12  16
HETATM   16  N1  UNL     1      23.683   0.669  25.404  1.00  0.00     0.093 N 
HETATM   17  C14 UNL     1      24.883   1.362  25.194  1.00  0.00     0.273 C 
HETATM   18  C15 UNL     1      25.582   1.555  26.554  1.00  0.00     0.030 C 
HETATM   19  C16 UNL     1      24.813   2.573  27.327  1.00  0.00     0.003 C 
HETATM   20  C17 UNL     1      23.361   2.562  26.974  1.00  0.00     0.030 C 
HETATM   21  C18 UNL     1      22.863   1.280  26.405  1.00  0.00     0.273 C 
ENDBRANCH  12  16
BRANCH  11  22
HETATM   22  C12 UNL     1      24.108  -1.689  23.568  1.00  0.00     0.194 C 
HETATM   23 CL1  UNL     1      23.155  -2.310  24.924  1.00  0.00    -0.083 Cl
HETATM   24 CL2  UNL     1      25.796  -1.788  24.082  1.00  0.00    -0.083 Cl
HETATM   25 CL3  UNL     1      23.961  -2.806  22.171  1.00  0.00    -0.083 Cl
ENDBRANCH  11  22
BRANCH   8  26
HETATM   26  O1  UNL     1      20.272   1.886  21.306  1.00  0.00    -0.388 OA
ATOM     27  H1  UNL     1      19.800   2.012  22.121  1.00  0.00     0.210 HD
ENDBRANCH   8  26
TORSDOF 3
ENDMDL
MODEL 4
REMARK VINA RESULT: -6.117342649      2.253      3.307
REMARK  3 active torsions:
REMARK  status: ('A' for Active; 'I' for Inactive)
REMARK    1  A    between atoms: C8_8  and  O1_9 
REMARK    2  A    between atoms: C11_13  and  C12_14 
REMARK    3  A    between atoms: C13_18  and  N1_19 
ROOT
HETATM    1  C1  UNL     1      24.823   1.279  20.664  1.00  0.00     0.016 C 
HETATM    2  C2  UNL     1      23.538   0.599  20.488  1.00  0.00    -0.033 C 
HETATM    3  C3  UNL     1      23.619  -0.050  19.089  1.00  0.00     0.010 C 
HETATM    4  C4  UNL     1      23.727   0.981  18.032  1.00  0.00     0.001 C 
HETATM    5  C5  UNL     1      23.165   2.304  18.208  1.00  0.00     0.001 C 
HETATM    6  C6  UNL     1      22.800   2.723  19.635  1.00  0.00     0.008 C 
HETATM    7  C7  UNL     1      22.337   1.525  20.290  1.00  0.00     0.030 C 
HETATM    8  C8  UNL     1      21.615   1.491  21.561  1.00  0.00     0.075 C 
HETATM    9  C9  UNL     1      21.560  -0.045  21.643  1.00  0.00     0.045 C 
HETATM   10  C10 UNL     1      23.051  -0.330  21.530  1.00  0.00     0.007 C 
HETATM   11  C11 UNL     1      23.768  -0.384  22.826  1.00  0.00     0.078 C 
HETATM   12  C13 UNL     1      22.987   0.010  24.048  1.00  0.00     0.232 C 
HETATM   13  C19 UNL     1      21.979   1.082  23.925  1.00  0.00     0.055 C 
HETATM   14  C20 UNL     1      22.156   2.043  22.770  1.00  0.00     0.094 C 
HETATM   15 BR1  UNL     1      21.117   3.645  23.223  1.00  0.00    -0.088 Br
ENDROOT
BRANCH  12  16
HETATM   16  N1  UNL     1      23.804   0.273  25.185  1.00  0.00     0.093 N 
HETATM   17  C14 UNL     1      24.814   1.242  25.110  1.00  0.00     0.273 C 
HETATM   18  C15 UNL     1      25.604   1.229  26.433  1.00  0.00     0.030 C 
HETATM   19  C16 UNL     1      24.739   1.822  27.493  1.00  0.00     0.003 C 
HETATM   20  C17 UNL     1      23.287   1.584  27.226  1.00  0.00     0.030 C 
HETATM   21  C18 UNL     1      22.993   0.413  26.355  1.00  0.00     0.273 C 
ENDBRANCH  12  16
BRANCH  11  22
HETATM   22  C12 UNL     1      24.199  -1.840  23.065  1.00  0.00     0.194 C 
HETATM   23 CL1  UNL     1      25.791  -1.971  23.830  1.00  0.00    -0.083 Cl
HETATM   24 CL2  UNL     1      24.304  -2.782  21.574  1.00  0.00    -0.083 Cl
HETATM   25 CL3  UNL     1      22.976  -2.673  24.081  1.00  0.00    -0.083 Cl
ENDBRANCH  11  22
BRANCH   8  26
HETATM   26  O1  UNL     1      20.300   1.959  21.339  1.00  0.00    -0.388 OA
ATOM     27  H1  UNL     1      20.212   2.809  21.753  1.00  0.00     0.210 HD
ENDBRANCH   8  26
TORSDOF 3
ENDMDL
MODEL 5
REMARK VINA RESULT: -5.982323604      3.396      4.631
REMARK  3 active torsions:
REMARK  status: ('A' for Active; 'I' for Inactive)
REMARK    1  A    between atoms: C8_8  and  O1_9 
REMARK    2  A    between atoms: C11_13  and  C12_14 
REMARK    3  A    between atoms: C13_18  and  N1_19 
ROOT
HETATM    1  C1  UNL     1      24.505   0.837  21.788  1.00  0.00     0.016 C 
HETATM    2  C2  UNL     1      23.185   0.247  21.557  1.00  0.00    -0.033 C 
HETATM    3  C3  UNL     1      23.414  -0.830  20.472  1.00  0.00     0.010 C 
HETATM    4  C4  UNL     1      23.857  -0.215  19.200  1.00  0.00     0.001 C 
HETATM    5  C5  UNL     1      23.475   1.136  18.841  1.00  0.00     0.001 C 
HETATM    6  C6  UNL     1      22.931   2.028  19.960  1.00  0.00     0.008 C 
HETATM    7  C7  UNL     1      22.188   1.153  20.834  1.00  0.00     0.030 C 
HETATM    8  C8  UNL     1      21.257   1.598  21.871  1.00  0.00     0.075 C 
HETATM    9  C9  UNL     1      20.962   0.185  22.402  1.00  0.00     0.045 C 
HETATM   10  C10 UNL     1      22.391  -0.246  22.702  1.00  0.00     0.007 C 
HETATM   11  C11 UNL     1      22.853   0.069  24.075  1.00  0.00     0.078 C 
HETATM   12  C13 UNL     1      21.937   0.905  24.923  1.00  0.00     0.232 C 
HETATM   13  C19 UNL     1      21.136   1.958  24.267  1.00  0.00     0.055 C 
HETATM   14  C20 UNL     1      21.653   2.468  22.940  1.00  0.00     0.094 C 
HETATM   15 BR1  UNL     1      20.798   4.212  22.651  1.00  0.00    -0.088 Br
ENDROOT
BRANCH  12  16
HETATM   16  N1  UNL     1      22.571   1.456  26.073  1.00  0.00     0.093 N 
HETATM   17  C14 UNL     1      23.700   2.274  25.923  1.00  0.00     0.273 C 
HETATM   18  C15 UNL     1      24.238   2.626  27.323  1.00  0.00     0.030 C 
HETATM   19  C16 UNL     1      23.290   3.589  27.953  1.00  0.00     0.003 C 
HETATM   20  C17 UNL     1      21.889   3.385  27.474  1.00  0.00     0.030 C 
HETATM   21  C18 UNL     1      21.595   2.022  26.952  1.00  0.00     0.273 C 
ENDBRANCH  12  16
BRANCH  11  22
HETATM   22  C12 UNL     1      23.015  -1.260  24.832  1.00  0.00     0.194 C 
HETATM   23 CL1  UNL     1      24.544  -1.365  25.720  1.00  0.00    -0.083 Cl
HETATM   24 CL2  UNL     1      22.980  -2.669  23.767  1.00  0.00    -0.083 Cl
HETATM   25 CL3  UNL     1      21.646  -1.478  25.971  1.00  0.00    -0.083 Cl
ENDBRANCH  11  22
BRANCH   8  26
HETATM   26  O1  UNL     1      20.085   2.076  21.241  1.00  0.00    -0.388 OA
ATOM     27  H1  UNL     1      19.755   2.812  21.742  1.00  0.00     0.210 HD
ENDBRANCH   8  26
TORSDOF 3
ENDMDL
