MODEL 1
REMARK VINA RESULT: -5.741388843      0.000      0.000
REMARK  0 active torsions:
REMARK  status: ('A' for Active; 'I' for Inactive)
ROOT
HETATM    1  O1  UNL     1      16.878   3.256  28.866  1.00  0.00    -0.295 OA
HETATM    2  C1  UNL     1      18.014   3.637  28.747  1.00  0.00     0.159 C 
HETATM    3  C2  UNL     1      19.122   3.230  29.634  1.00  0.00     0.081 C 
HETATM    4  C3  UNL     1      20.014   4.452  29.578  1.00  0.00     0.016 C 
HETATM    5  C4  UNL     1      19.909   5.042  28.229  1.00  0.00     0.038 C 
HETATM    6  C5  UNL     1      18.574   4.559  27.741  1.00  0.00     0.234 C 
HETATM    7  O2  UNL     1      18.627   3.967  26.478  1.00  0.00    -0.227 OA
HETATM    8  O3  UNL     1      19.262   4.883  25.738  1.00  0.00    -0.224 OA
HETATM    9  C6  UNL     1      20.631   4.519  25.878  1.00  0.00     0.150 C 
HETATM   10  C7  UNL     1      21.308   5.535  24.961  1.00  0.00     0.210 C 
HETATM   11  F1  UNL     1      20.515   5.787  23.848  1.00  0.00    -0.246 F 
HETATM   12  C8  UNL     1      21.292   6.751  25.864  1.00  0.00     0.041 C 
HETATM   13  C9  UNL     1      21.849   6.097  27.135  1.00  0.00     0.017 C 
HETATM   14  C10 UNL     1      21.050   4.783  27.278  1.00  0.00     0.018 C 
HETATM   15  C11 UNL     1      22.080   3.821  27.823  1.00  0.00     0.071 C 
HETATM   16 BR1  UNL     1      23.485   4.760  28.812  1.00  0.00    -0.090 Br
HETATM   17  C12 UNL     1      22.731   2.976  26.717  1.00  0.00     0.034 C 
HETATM   18  C13 UNL     1      21.597   2.202  26.124  1.00  0.00     0.076 C 
HETATM   19 BR2  UNL     1      22.168   0.722  25.041  1.00  0.00    -0.090 Br
HETATM   20  C14 UNL     1      20.738   3.142  25.367  1.00  0.00     0.114 C 
HETATM   21 BR3  UNL     1      21.467   3.246  23.552  1.00  0.00    -0.087 Br
ENDROOT
TORSDOF 0
ENDMDL
MODEL 2
REMARK VINA RESULT: -5.700215418      7.697      9.983
REMARK  0 active torsions:
REMARK  status: ('A' for Active; 'I' for Inactive)
ROOT
HETATM    1  O1  UNL     1      29.364   2.592  19.393  1.00  0.00    -0.295 OA
HETATM    2  C1  UNL     1      28.316   2.021  19.237  1.00  0.00     0.159 C 
HETATM    3  C2  UNL     1      28.140   0.829  18.384  1.00  0.00     0.081 C 
HETATM    4  C3  UNL     1      26.701   0.989  17.939  1.00  0.00     0.016 C 
HETATM    5  C4  UNL     1      25.943   1.617  19.039  1.00  0.00     0.038 C 
HETATM    6  C5  UNL     1      27.000   2.338  19.824  1.00  0.00     0.234 C 
HETATM    7  O2  UNL     1      26.967   2.054  21.190  1.00  0.00    -0.227 OA
HETATM    8  O3  UNL     1      25.690   2.280  21.518  1.00  0.00    -0.224 OA
HETATM    9  C6  UNL     1      25.076   1.012  21.320  1.00  0.00     0.150 C 
HETATM   10  C7  UNL     1      23.646   1.295  21.778  1.00  0.00     0.210 C 
HETATM   11  F1  UNL     1      23.649   2.178  22.852  1.00  0.00    -0.246 F 
HETATM   12  C8  UNL     1      23.117   2.010  20.553  1.00  0.00     0.041 C 
HETATM   13  C9  UNL     1      23.596   1.015  19.486  1.00  0.00     0.017 C 
HETATM   14  C10 UNL     1      25.062   0.714  19.865  1.00  0.00     0.018 C 
HETATM   15  C11 UNL     1      25.206  -0.749  19.517  1.00  0.00     0.071 C 
HETATM   16 BR1  UNL     1      23.951  -1.278  18.110  1.00  0.00    -0.090 Br
HETATM   17  C12 UNL     1      24.998  -1.661  20.736  1.00  0.00     0.034 C 
HETATM   18  C13 UNL     1      26.088  -1.270  21.683  1.00  0.00     0.076 C 
HETATM   19 BR2  UNL     1      26.371  -2.548  23.088  1.00  0.00    -0.090 Br
HETATM   20  C14 UNL     1      25.778   0.077  22.216  1.00  0.00     0.114 C 
HETATM   21 BR3  UNL     1      24.650  -0.179  23.796  1.00  0.00    -0.087 Br
ENDROOT
TORSDOF 0
ENDMDL
MODEL 3
REMARK VINA RESULT: -5.469521257      2.490      4.414
REMARK  0 active torsions:
REMARK  status: ('A' for Active; 'I' for Inactive)
ROOT
HETATM    1  O1  UNL     1      20.261   2.619  23.358  1.00  0.00    -0.295 OA
HETATM    2  C1  UNL     1      20.721   2.864  24.443  1.00  0.00     0.159 C 
HETATM    3  C2  UNL     1      22.155   3.101  24.701  1.00  0.00     0.081 C 
HETATM    4  C3  UNL     1      22.289   2.605  26.125  1.00  0.00     0.016 C 
HETATM    5  C4  UNL     1      21.030   2.897  26.838  1.00  0.00     0.038 C 
HETATM    6  C5  UNL     1      20.017   2.988  25.734  1.00  0.00     0.234 C 
HETATM    7  O2  UNL     1      19.245   4.150  25.785  1.00  0.00    -0.227 OA
HETATM    8  O3  UNL     1      18.791   4.159  27.043  1.00  0.00    -0.224 OA
HETATM    9  C6  UNL     1      19.792   4.889  27.743  1.00  0.00     0.150 C 
HETATM   10  C7  UNL     1      19.198   4.941  29.150  1.00  0.00     0.210 C 
HETATM   11  F1  UNL     1      17.815   5.071  29.086  1.00  0.00    -0.246 F 
HETATM   12  C8  UNL     1      19.541   3.547  29.629  1.00  0.00     0.041 C 
HETATM   13  C9  UNL     1      21.020   3.525  29.221  1.00  0.00     0.017 C 
HETATM   14  C10 UNL     1      21.033   4.076  27.779  1.00  0.00     0.018 C 
HETATM   15  C11 UNL     1      22.315   4.875  27.735  1.00  0.00     0.071 C 
HETATM   16 BR1  UNL     1      23.625   4.199  29.024  1.00  0.00    -0.090 Br
HETATM   17  C12 UNL     1      22.079   6.369  28.004  1.00  0.00     0.034 C 
HETATM   18  C13 UNL     1      21.184   6.810  26.890  1.00  0.00     0.076 C 
HETATM   19 BR2  UNL     1      21.096   8.720  26.693  1.00  0.00    -0.090 Br
HETATM   20  C14 UNL     1      19.845   6.215  27.106  1.00  0.00     0.114 C 
HETATM   21 BR3  UNL     1      18.847   7.454  28.248  1.00  0.00    -0.087 Br
ENDROOT
TORSDOF 0
ENDMDL
MODEL 4
REMARK VINA RESULT: -5.448651943      6.806      8.180
REMARK  0 active torsions:
REMARK  status: ('A' for Active; 'I' for Inactive)
ROOT
HETATM    1  O1  UNL     1      27.064   0.335  24.748  1.00  0.00    -0.295 OA
HETATM    2  C1  UNL     1      26.043   0.387  24.111  1.00  0.00     0.159 C 
HETATM    3  C2  UNL     1      24.712   0.637  24.697  1.00  0.00     0.081 C 
HETATM    4  C3  UNL     1      23.816  -0.118  23.738  1.00  0.00     0.016 C 
HETATM    5  C4  UNL     1      24.404  -0.029  22.387  1.00  0.00     0.038 C 
HETATM    6  C5  UNL     1      25.858   0.226  22.656  1.00  0.00     0.234 C 
HETATM    7  O2  UNL     1      26.369   1.318  21.952  1.00  0.00    -0.227 OA
HETATM    8  O3  UNL     1      26.009   1.062  20.689  1.00  0.00    -0.224 OA
HETATM    9  C6  UNL     1      24.736   1.690  20.582  1.00  0.00     0.150 C 
HETATM   10  C7  UNL     1      24.401   1.442  19.113  1.00  0.00     0.210 C 
HETATM   11  F1  UNL     1      25.551   1.515  18.335  1.00  0.00    -0.246 F 
HETATM   12  C8  UNL     1      23.949  -0.002  19.189  1.00  0.00     0.041 C 
HETATM   13  C9  UNL     1      22.986   0.126  20.377  1.00  0.00     0.017 C 
HETATM   14  C10 UNL     1      23.768   0.945  21.426  1.00  0.00     0.018 C 
HETATM   15  C11 UNL     1      22.693   1.797  22.060  1.00  0.00     0.071 C 
HETATM   16 BR1  UNL     1      20.934   0.948  21.924  1.00  0.00    -0.090 Br
HETATM   17  C12 UNL     1      22.617   3.198  21.434  1.00  0.00     0.034 C 
HETATM   18  C13 UNL     1      23.956   3.804  21.714  1.00  0.00     0.076 C 
HETATM   19 BR2  UNL     1      23.997   5.709  21.467  1.00  0.00    -0.090 Br
HETATM   20  C14 UNL     1      24.962   3.116  20.874  1.00  0.00     0.114 C 
HETATM   21 BR3  UNL     1      25.019   4.062  19.160  1.00  0.00    -0.087 Br
ENDROOT
TORSDOF 0
ENDMDL
MODEL 5
REMARK VINA RESULT: -5.414805494      5.294      6.834
REMARK  0 active torsions:
REMARK  status: ('A' for Active; 'I' for Inactive)
ROOT
HETATM    1  O1  UNL     1      19.265   1.873  23.401  1.00  0.00    -0.295 OA
HETATM    2  C1  UNL     1      20.349   2.190  22.985  1.00  0.00     0.159 C 
HETATM    3  C2  UNL     1      21.233   3.174  23.639  1.00  0.00     0.081 C 
HETATM    4  C3  UNL     1      21.981   3.742  22.451  1.00  0.00     0.016 C 
HETATM    5  C4  UNL     1      22.160   2.664  21.458  1.00  0.00     0.038 C 
HETATM    6  C5  UNL     1      21.048   1.708  21.777  1.00  0.00     0.234 C 
HETATM    7  O2  UNL     1      21.477   0.389  21.928  1.00  0.00    -0.227 OA
HETATM    8  O3  UNL     1      22.182   0.168  20.813  1.00  0.00    -0.224 OA
HETATM    9  C6  UNL     1      23.500   0.556  21.181  1.00  0.00     0.150 C 
HETATM   10  C7  UNL     1      24.280   0.216  19.912  1.00  0.00     0.210 C 
HETATM   11  F1  UNL     1      23.771  -0.938  19.327  1.00  0.00    -0.246 F 
HETATM   12  C8  UNL     1      23.912   1.408  19.054  1.00  0.00     0.041 C 
HETATM   13  C9  UNL     1      24.195   2.517  20.076  1.00  0.00     0.017 C 
HETATM   14  C10 UNL     1      23.524   2.027  21.377  1.00  0.00     0.018 C 
HETATM   15  C11 UNL     1      24.476   2.508  22.448  1.00  0.00     0.071 C 
HETATM   16 BR1  UNL     1      25.483   4.080  21.858  1.00  0.00    -0.090 Br
HETATM   17  C12 UNL     1      25.467   1.416  22.879  1.00  0.00     0.034 C 
HETATM   18  C13 UNL     1      24.604   0.330  23.438  1.00  0.00     0.076 C 
HETATM   19 BR2  UNL     1      25.578  -0.958  24.478  1.00  0.00    -0.090 Br
HETATM   20  C14 UNL     1      23.873  -0.305  22.317  1.00  0.00     0.114 C 
HETATM   21 BR3  UNL     1      25.021  -1.730  21.620  1.00  0.00    -0.087 Br
ENDROOT
TORSDOF 0
ENDMDL
