MODEL 1
REMARK VINA RESULT: -8.251017804      0.000      0.000
REMARK  1 active torsions:
REMARK  status: ('A' for Active; 'I' for Inactive)
REMARK    1  A    between atoms: C13_17  and  C14_18 
ROOT
HETATM    1  O1  UNL     1      22.879   5.319  21.814  1.00  0.00    -0.294 OA
HETATM    2  C1  UNL     1      22.753   4.899  20.684  1.00  0.00     0.177 C 
HETATM    3  C2  UNL     1      22.785   6.012  19.654  1.00  0.00     0.099 C 
HETATM    4  C3  UNL     1      22.281   7.191  20.379  1.00  0.00     0.181 C 
HETATM    5  F1  UNL     1      23.396   7.868  20.898  1.00  0.00    -0.249 F 
HETATM    6  C4  UNL     1      21.506   8.254  19.552  1.00  0.00     0.038 C 
HETATM    7  C5  UNL     1      22.265   8.275  18.336  1.00  0.00     0.003 C 
HETATM    8  C6  UNL     1      22.340   9.054  17.130  1.00  0.00     0.000 C 
HETATM    9  C7  UNL     1      23.405   8.266  16.321  1.00  0.00     0.000 C 
HETATM   10  C8  UNL     1      24.507   7.638  17.124  1.00  0.00     0.000 C 
HETATM   11  C9  UNL     1      24.343   6.259  17.620  1.00  0.00     0.007 C 
HETATM   12  C10 UNL     1      24.176   6.001  19.105  1.00  0.00     0.024 C 
HETATM   13  C11 UNL     1      25.049   4.845  19.573  1.00  0.00     0.176 C 
HETATM   14  O2  UNL     1      24.583   3.612  19.718  1.00  0.00    -0.357 OA
HETATM   15  C12 UNL     1      23.397   3.214  19.259  1.00  0.00     0.307 A 
HETATM   16  O3  UNL     1      22.269   2.662  19.584  1.00  0.00    -0.330 OA
HETATM   17  C13 UNL     1      22.602   3.445  20.580  1.00  0.00     0.211 A 
ENDROOT
BRANCH  17  18
HETATM   18  C14 UNL     1      22.911   2.652  21.797  1.00  0.00     0.175 C 
HETATM   19 BR1  UNL     1      24.445   3.110  22.790  1.00  0.00    -0.056 Br
HETATM   20 BR2  UNL     1      21.354   2.892  22.970  1.00  0.00    -0.056 Br
HETATM   21 BR3  UNL     1      22.967   0.730  21.462  1.00  0.00    -0.056 Br
ENDBRANCH  17  18
TORSDOF 1
ENDMDL
MODEL 2
REMARK VINA RESULT: -7.724395682      0.156      1.152
REMARK  1 active torsions:
REMARK  status: ('A' for Active; 'I' for Inactive)
REMARK    1  A    between atoms: C13_17  and  C14_18 
ROOT
HETATM    1  O1  UNL     1      22.819   5.316  21.904  1.00  0.00    -0.294 OA
HETATM    2  C1  UNL     1      22.705   4.882  20.779  1.00  0.00     0.177 C 
HETATM    3  C2  UNL     1      22.769   5.979  19.733  1.00  0.00     0.099 C 
HETATM    4  C3  UNL     1      22.270   7.176  20.434  1.00  0.00     0.181 C 
HETATM    5  F1  UNL     1      23.387   7.845  20.961  1.00  0.00    -0.249 F 
HETATM    6  C4  UNL     1      21.525   8.238  19.579  1.00  0.00     0.038 C 
HETATM    7  C5  UNL     1      22.303   8.231  18.375  1.00  0.00     0.003 C 
HETATM    8  C6  UNL     1      22.408   8.991  17.160  1.00  0.00     0.000 C 
HETATM    9  C7  UNL     1      23.474   8.176  16.379  1.00  0.00     0.000 C 
HETATM   10  C8  UNL     1      24.554   7.544  17.208  1.00  0.00     0.000 C 
HETATM   11  C9  UNL     1      24.363   6.175  17.721  1.00  0.00     0.007 C 
HETATM   12  C10 UNL     1      24.168   5.941  19.207  1.00  0.00     0.024 C 
HETATM   13  C11 UNL     1      25.017   4.780  19.705  1.00  0.00     0.176 C 
HETATM   14  O2  UNL     1      24.531   3.555  19.861  1.00  0.00    -0.357 OA
HETATM   15  C12 UNL     1      23.347   3.168  19.387  1.00  0.00     0.307 A 
HETATM   16  O3  UNL     1      22.206   2.637  19.702  1.00  0.00    -0.330 OA
HETATM   17  C13 UNL     1      22.534   3.429  20.692  1.00  0.00     0.211 A 
ENDROOT
BRANCH  17  18
HETATM   18  C14 UNL     1      22.813   2.649  21.925  1.00  0.00     0.175 C 
HETATM   19 BR1  UNL     1      21.560   2.730  23.330  1.00  0.00    -0.056 Br
HETATM   20 BR2  UNL     1      22.916   0.779  21.332  1.00  0.00    -0.056 Br
HETATM   21 BR3  UNL     1      24.578   3.012  22.676  1.00  0.00    -0.056 Br
ENDBRANCH  17  18
TORSDOF 1
ENDMDL
MODEL 3
REMARK VINA RESULT: -7.302149823      1.404      2.017
REMARK  1 active torsions:
REMARK  status: ('A' for Active; 'I' for Inactive)
REMARK    1  A    between atoms: C13_17  and  C14_18 
ROOT
HETATM    1  O1  UNL     1      23.940   4.993  22.348  1.00  0.00    -0.294 OA
HETATM    2  C1  UNL     1      23.176   4.772  21.434  1.00  0.00     0.177 C 
HETATM    3  C2  UNL     1      22.466   6.028  20.967  1.00  0.00     0.099 C 
HETATM    4  C3  UNL     1      22.421   6.885  22.165  1.00  0.00     0.181 C 
HETATM    5  F1  UNL     1      23.554   7.714  22.125  1.00  0.00    -0.249 F 
HETATM    6  C4  UNL     1      21.213   7.852  22.300  1.00  0.00     0.038 C 
HETATM    7  C5  UNL     1      21.047   8.290  20.945  1.00  0.00     0.003 C 
HETATM    8  C6  UNL     1      20.289   9.273  20.220  1.00  0.00     0.000 C 
HETATM    9  C7  UNL     1      20.684   8.945  18.755  1.00  0.00     0.000 C 
HETATM   10  C8  UNL     1      22.096   8.478  18.544  1.00  0.00     0.000 C 
HETATM   11  C9  UNL     1      22.395   7.035  18.599  1.00  0.00     0.007 C 
HETATM   12  C10 UNL     1      23.209   6.472  19.748  1.00  0.00     0.024 C 
HETATM   13  C11 UNL     1      24.279   5.509  19.255  1.00  0.00     0.176 C 
HETATM   14  O2  UNL     1      24.113   4.193  19.260  1.00  0.00    -0.357 OA
HETATM   15  C12 UNL     1      22.938   3.600  19.470  1.00  0.00     0.307 A 
HETATM   16  O3  UNL     1      22.308   2.731  20.198  1.00  0.00    -0.330 OA
HETATM   17  C13 UNL     1      23.119   3.373  21.002  1.00  0.00     0.211 A 
ENDROOT
BRANCH  17  18
HETATM   18  C14 UNL     1      24.184   2.472  21.512  1.00  0.00     0.175 C 
HETATM   19 BR1  UNL     1      25.970   3.065  21.418  1.00  0.00    -0.056 Br
HETATM   20 BR2  UNL     1      23.752   2.195  23.408  1.00  0.00    -0.056 Br
HETATM   21 BR3  UNL     1      24.107   0.683  20.736  1.00  0.00    -0.056 Br
ENDBRANCH  17  18
TORSDOF 1
ENDMDL
MODEL 4
REMARK VINA RESULT: -7.258747475      2.909      3.741
REMARK  1 active torsions:
REMARK  status: ('A' for Active; 'I' for Inactive)
REMARK    1  A    between atoms: C13_17  and  C14_18 
ROOT
HETATM    1  O1  UNL     1      21.376   6.324  24.999  1.00  0.00    -0.294 OA
HETATM    2  C1  UNL     1      21.213   5.607  24.036  1.00  0.00     0.177 C 
HETATM    3  C2  UNL     1      21.407   6.352  22.730  1.00  0.00     0.099 C 
HETATM    4  C3  UNL     1      21.052   7.745  23.051  1.00  0.00     0.181 C 
HETATM    5  F1  UNL     1      22.239   8.405  23.408  1.00  0.00    -0.249 F 
HETATM    6  C4  UNL     1      20.437   8.602  21.909  1.00  0.00     0.038 C 
HETATM    7  C5  UNL     1      21.210   8.169  20.783  1.00  0.00     0.003 C 
HETATM    8  C6  UNL     1      21.404   8.540  19.408  1.00  0.00     0.000 C 
HETATM    9  C7  UNL     1      22.368   7.424  18.922  1.00  0.00     0.000 C 
HETATM   10  C8  UNL     1      23.366   6.933  19.930  1.00  0.00     0.000 C 
HETATM   11  C9  UNL     1      23.014   5.793  20.798  1.00  0.00     0.007 C 
HETATM   12  C10 UNL     1      22.792   6.010  22.282  1.00  0.00     0.024 C 
HETATM   13  C11 UNL     1      23.497   4.947  23.113  1.00  0.00     0.176 C 
HETATM   14  O2  UNL     1      22.871   3.878  23.587  1.00  0.00    -0.357 OA
HETATM   15  C12 UNL     1      21.650   3.510  23.201  1.00  0.00     0.307 A 
HETATM   16  O3  UNL     1      20.453   3.221  23.612  1.00  0.00    -0.330 OA
HETATM   17  C13 UNL     1      20.872   4.217  24.353  1.00  0.00     0.211 A 
ENDROOT
BRANCH  17  18
HETATM   18  C14 UNL     1      21.056   3.789  25.763  1.00  0.00     0.175 C 
HETATM   19 BR1  UNL     1      22.402   4.629  26.779  1.00  0.00    -0.056 Br
HETATM   20 BR2  UNL     1      19.336   4.161  26.636  1.00  0.00    -0.056 Br
HETATM   21 BR3  UNL     1      21.282   1.859  25.952  1.00  0.00    -0.056 Br
ENDBRANCH  17  18
TORSDOF 1
ENDMDL
MODEL 5
REMARK VINA RESULT: -7.115010463      7.095      8.501
REMARK  1 active torsions:
REMARK  status: ('A' for Active; 'I' for Inactive)
REMARK    1  A    between atoms: C13_17  and  C14_18 
ROOT
HETATM    1  O1  UNL     1      28.194  -0.033  17.874  1.00  0.00    -0.294 OA
HETATM    2  C1  UNL     1      27.219  -0.064  17.156  1.00  0.00     0.177 C 
HETATM    3  C2  UNL     1      27.586   0.047  15.689  1.00  0.00     0.099 C 
HETATM    4  C3  UNL     1      28.844   0.813  15.688  1.00  0.00     0.181 C 
HETATM    5  F1  UNL     1      29.896  -0.116  15.707  1.00  0.00    -0.249 F 
HETATM    6  C4  UNL     1      29.122   1.719  14.456  1.00  0.00     0.038 C 
HETATM    7  C5  UNL     1      28.635   0.899  13.386  1.00  0.00     0.003 C 
HETATM    8  C6  UNL     1      28.642   0.894  11.949  1.00  0.00     0.000 C 
HETATM    9  C7  UNL     1      27.769  -0.352  11.642  1.00  0.00     0.000 C 
HETATM   10  C8  UNL     1      27.900  -1.499  12.602  1.00  0.00     0.000 C 
HETATM   11  C9  UNL     1      27.002  -1.567  13.771  1.00  0.00     0.007 C 
HETATM   12  C10 UNL     1      27.554  -1.353  15.166  1.00  0.00     0.024 C 
HETATM   13  C11 UNL     1      27.027  -2.396  16.142  1.00  0.00     0.176 C 
HETATM   14  O2  UNL     1      26.001  -2.165  16.950  1.00  0.00    -0.357 OA
HETATM   15  C12 UNL     1      25.196  -1.109  16.834  1.00  0.00     0.307 A 
HETATM   16  O3  UNL     1      24.697  -0.087  17.458  1.00  0.00    -0.330 OA
HETATM   17  C13 UNL     1      25.939  -0.199  17.858  1.00  0.00     0.211 A 
ENDROOT
BRANCH  17  18
HETATM   18  C14 UNL     1      26.002  -0.572  19.295  1.00  0.00     0.175 C 
HETATM   19 BR1  UNL     1      27.218  -1.914  19.813  1.00  0.00    -0.056 Br
HETATM   20 BR2  UNL     1      26.513   1.080  20.228  1.00  0.00    -0.056 Br
HETATM   21 BR3  UNL     1      24.257  -1.025  20.043  1.00  0.00    -0.056 Br
ENDBRANCH  17  18
TORSDOF 1
ENDMDL
