MODEL 1
REMARK VINA RESULT: -7.953459039      0.000      0.000
REMARK  1 active torsions:
REMARK  status: ('A' for Active; 'I' for Inactive)
REMARK    1  A    between atoms: C2_2  and  C3_4 
ROOT
HETATM    1  C3  UNL     1      21.261   7.413  26.063  1.00  0.00     0.009 A 
HETATM    2  C4  UNL     1      21.321   6.736  27.265  1.00  0.00     0.047 A 
HETATM    3 CL2  UNL     1      21.597   7.465  28.850  1.00  0.00    -0.083 Cl
HETATM    4  C5  UNL     1      21.174   5.371  27.229  1.00  0.00     0.036 A 
HETATM    5  C6  UNL     1      20.966   4.597  26.073  1.00  0.00    -0.038 A 
HETATM    6  C7  UNL     1      20.913   5.289  24.892  1.00  0.00     0.019 A 
HETATM    7  C8  UNL     1      21.057   6.651  24.865  1.00  0.00    -0.044 A 
HETATM    8  C9  UNL     1      21.142   7.557  23.686  1.00  0.00     0.041 C 
HETATM    9  C10 UNL     1      21.311   7.009  22.292  1.00  0.00     0.031 C 
HETATM   10  C11 UNL     1      22.579   6.174  22.236  1.00  0.00     0.169 C 
HETATM   11  O1  UNL     1      22.360   4.993  21.576  1.00  0.00    -0.380 OA
HETATM   12  C12 UNL     1      23.415   4.564  20.780  1.00  0.00     0.066 C 
HETATM   13  C13 UNL     1      24.736   4.629  21.495  1.00  0.00     0.046 C 
HETATM   14  C14 UNL     1      23.399   5.460  19.552  1.00  0.00     0.046 C 
HETATM   15  C15 UNL     1      23.104   3.172  20.307  1.00  0.00     0.177 C 
HETATM   16  S1  UNL     1      23.389   1.928  21.537  1.00  0.00     0.148 S 
HETATM   17  O2  UNL     1      22.867   0.625  20.942  1.00  0.00    -0.228 OA
HETATM   18  O3  UNL     1      24.848   1.778  21.831  1.00  0.00    -0.228 OA
HETATM   19  C16 UNL     1      22.472   2.277  23.013  1.00  0.00     0.162 C 
HETATM   20  C17 UNL     1      22.108   1.053  23.801  1.00  0.00     0.114 C 
HETATM   21 CL3  UNL     1      23.383  -0.184  23.684  1.00  0.00    -0.122 Cl
HETATM   22  C18 UNL     1      21.967   1.381  25.292  1.00  0.00     0.105 C 
HETATM   23 CL4  UNL     1      21.994  -0.161  26.166  1.00  0.00    -0.123 Cl
HETATM   24  C19 UNL     1      20.670   2.074  25.611  1.00  0.00     0.049 C 
HETATM   25  C20 UNL     1      20.879   3.314  26.387  1.00  0.00    -0.014 C 
ENDROOT
BRANCH   1  26
HETATM   26  C2  UNL     1      21.339   8.732  26.090  1.00  0.00     0.020 C 
HETATM   27  C1  UNL     1      20.304   9.544  26.801  1.00  0.00     0.062 C 
HETATM   28 CL1  UNL     1      22.538   9.774  25.301  1.00  0.00    -0.088 Cl
ENDBRANCH   1  26
TORSDOF 1
ENDMDL
MODEL 2
REMARK VINA RESULT: -7.913641695      3.537      6.723
REMARK  1 active torsions:
REMARK  status: ('A' for Active; 'I' for Inactive)
REMARK    1  A    between atoms: C2_2  and  C3_4 
ROOT
HETATM    1  C3  UNL     1      22.779   7.798  18.394  1.00  0.00     0.009 A 
HETATM    2  C4  UNL     1      23.316   7.390  17.190  1.00  0.00     0.047 A 
HETATM    3 CL2  UNL     1      22.869   8.007  15.596  1.00  0.00    -0.083 Cl
HETATM    4  C5  UNL     1      24.270   6.402  17.225  1.00  0.00     0.036 A 
HETATM    5  C6  UNL     1      24.752   5.766  18.384  1.00  0.00    -0.038 A 
HETATM    6  C7  UNL     1      24.204   6.185  19.567  1.00  0.00     0.019 A 
HETATM    7  C8  UNL     1      23.245   7.163  19.594  1.00  0.00    -0.044 A 
HETATM    8  C9  UNL     1      22.457   7.667  20.753  1.00  0.00     0.041 C 
HETATM    9  C10 UNL     1      22.475   6.948  22.079  1.00  0.00     0.031 C 
HETATM   10  C11 UNL     1      22.004   5.518  21.875  1.00  0.00     0.169 C 
HETATM   11  O1  UNL     1      22.814   4.635  22.541  1.00  0.00    -0.380 OA
HETATM   12  C12 UNL     1      22.154   3.554  23.114  1.00  0.00     0.066 C 
HETATM   13  C13 UNL     1      21.190   2.902  22.163  1.00  0.00     0.046 C 
HETATM   14  C14 UNL     1      21.445   4.104  24.341  1.00  0.00     0.046 C 
HETATM   15  C15 UNL     1      23.192   2.587  23.609  1.00  0.00     0.177 C 
HETATM   16  S1  UNL     1      23.910   1.601  22.322  1.00  0.00     0.148 S 
HETATM   17  O2  UNL     1      25.038   0.815  22.978  1.00  0.00    -0.228 OA
HETATM   18  O3  UNL     1      22.914   0.641  21.754  1.00  0.00    -0.228 OA
HETATM   19  C16 UNL     1      24.605   2.626  21.054  1.00  0.00     0.162 C 
HETATM   20  C17 UNL     1      25.751   1.991  20.325  1.00  0.00     0.114 C 
HETATM   21 CL3  UNL     1      25.515   0.233  20.173  1.00  0.00    -0.122 Cl
HETATM   22  C18 UNL     1      25.862   2.532  18.895  1.00  0.00     0.105 C 
HETATM   23 CL4  UNL     1      26.915   1.422  18.000  1.00  0.00    -0.123 Cl
HETATM   24  C19 UNL     1      26.479   3.903  18.842  1.00  0.00     0.049 C 
HETATM   25  C20 UNL     1      25.656   4.853  18.066  1.00  0.00    -0.014 C 
ENDROOT
BRANCH   1  26
HETATM   26  C2  UNL     1      21.907   8.791  18.380  1.00  0.00     0.020 C 
HETATM   27  C1  UNL     1      22.085   9.951  17.455  1.00  0.00     0.062 C 
HETATM   28 CL1  UNL     1      20.480   9.007  19.411  1.00  0.00    -0.088 Cl
ENDBRANCH   1  26
TORSDOF 1
ENDMDL
MODEL 3
REMARK VINA RESULT: -7.911290332      3.108      7.290
REMARK  1 active torsions:
REMARK  status: ('A' for Active; 'I' for Inactive)
REMARK    1  A    between atoms: C2_2  and  C3_4 
ROOT
HETATM    1  C3  UNL     1      23.405   3.255  20.543  1.00  0.00     0.009 A 
HETATM    2  C4  UNL     1      23.780   4.545  20.224  1.00  0.00     0.047 A 
HETATM    3 CL2  UNL     1      24.989   5.003  19.020  1.00  0.00    -0.083 Cl
HETATM    4  C5  UNL     1      23.178   5.567  20.916  1.00  0.00     0.036 A 
HETATM    5  C6  UNL     1      22.209   5.418  21.924  1.00  0.00    -0.038 A 
HETATM    6  C7  UNL     1      21.854   4.131  22.226  1.00  0.00     0.019 A 
HETATM    7  C8  UNL     1      22.423   3.070  21.573  1.00  0.00    -0.044 A 
HETATM    8  C9  UNL     1      22.255   1.613  21.834  1.00  0.00     0.041 C 
HETATM    9  C10 UNL     1      21.561   1.119  23.078  1.00  0.00     0.031 C 
HETATM   10  C11 UNL     1      22.288   1.656  24.300  1.00  0.00     0.169 C 
HETATM   11  O1  UNL     1      21.401   2.138  25.226  1.00  0.00    -0.380 OA
HETATM   12  C12 UNL     1      21.749   1.896  26.550  1.00  0.00     0.066 C 
HETATM   13  C13 UNL     1      23.183   2.244  26.838  1.00  0.00     0.046 C 
HETATM   14  C14 UNL     1      21.472   0.421  26.789  1.00  0.00     0.046 C 
HETATM   15  C15 UNL     1      20.801   2.664  27.427  1.00  0.00     0.177 C 
HETATM   16  S1  UNL     1      21.180   4.393  27.533  1.00  0.00     0.148 S 
HETATM   17  O2  UNL     1      20.034   5.025  28.314  1.00  0.00    -0.228 OA
HETATM   18  O3  UNL     1      22.459   4.624  28.274  1.00  0.00    -0.228 OA
HETATM   19  C16 UNL     1      21.233   5.128  25.921  1.00  0.00     0.162 C 
HETATM   20  C17 UNL     1      20.883   6.587  25.912  1.00  0.00     0.114 C 
HETATM   21 CL3  UNL     1      21.450   7.389  27.397  1.00  0.00    -0.122 Cl
HETATM   22  C18 UNL     1      21.570   7.310  24.747  1.00  0.00     0.105 C 
HETATM   23 CL4  UNL     1      21.472   9.047  25.085  1.00  0.00    -0.123 Cl
HETATM   24  C19 UNL     1      20.893   7.053  23.428  1.00  0.00     0.049 C 
HETATM   25  C20 UNL     1      21.846   6.602  22.393  1.00  0.00    -0.014 C 
ENDROOT
BRANCH   1  26
HETATM   26  C2  UNL     1      23.930   2.265  19.842  1.00  0.00     0.020 C 
HETATM   27  C1  UNL     1      23.347   1.869  18.524  1.00  0.00     0.062 C 
HETATM   28 CL1  UNL     1      25.286   1.211  20.285  1.00  0.00    -0.088 Cl
ENDBRANCH   1  26
TORSDOF 1
ENDMDL
MODEL 4
REMARK VINA RESULT: -7.907948572      2.597      5.376
REMARK  1 active torsions:
REMARK  status: ('A' for Active; 'I' for Inactive)
REMARK    1  A    between atoms: C2_2  and  C3_4 
ROOT
HETATM    1  C3  UNL     1      21.830   7.546  21.232  1.00  0.00     0.009 A 
HETATM    2  C4  UNL     1      22.244   7.388  19.924  1.00  0.00     0.047 A 
HETATM    3 CL2  UNL     1      21.686   8.334  18.541  1.00  0.00    -0.083 Cl
HETATM    4  C5  UNL     1      23.155   6.393  19.666  1.00  0.00     0.036 A 
HETATM    5  C6  UNL     1      23.709   5.518  20.618  1.00  0.00    -0.038 A 
HETATM    6  C7  UNL     1      23.282   5.691  21.908  1.00  0.00     0.019 A 
HETATM    7  C8  UNL     1      22.371   6.664  22.226  1.00  0.00    -0.044 A 
HETATM    8  C9  UNL     1      21.708   6.931  23.532  1.00  0.00     0.041 C 
HETATM    9  C10 UNL     1      21.810   5.951  24.673  1.00  0.00     0.031 C 
HETATM   10  C11 UNL     1      21.264   4.606  24.224  1.00  0.00     0.169 C 
HETATM   11  O1  UNL     1      22.091   3.585  24.614  1.00  0.00    -0.380 OA
HETATM   12  C12 UNL     1      21.440   2.424  25.011  1.00  0.00     0.066 C 
HETATM   13  C13 UNL     1      20.371   2.007  24.039  1.00  0.00     0.046 C 
HETATM   14  C14 UNL     1      20.862   2.720  26.385  1.00  0.00     0.046 C 
HETATM   15  C15 UNL     1      22.475   1.351  25.196  1.00  0.00     0.177 C 
HETATM   16  S1  UNL     1      23.038   0.641  23.672  1.00  0.00     0.148 S 
HETATM   17  O2  UNL     1      24.185  -0.291  24.044  1.00  0.00    -0.228 OA
HETATM   18  O3  UNL     1      21.957  -0.157  23.013  1.00  0.00    -0.228 OA
HETATM   19  C16 UNL     1      23.662   1.892  22.584  1.00  0.00     0.162 C 
HETATM   20  C17 UNL     1      24.714   1.398  21.637  1.00  0.00     0.114 C 
HETATM   21 CL3  UNL     1      24.393  -0.284  21.147  1.00  0.00    -0.122 Cl
HETATM   22  C18 UNL     1      24.723   2.224  20.345  1.00  0.00     0.105 C 
HETATM   23 CL4  UNL     1      25.648   1.302  19.146  1.00  0.00    -0.123 Cl
HETATM   24  C19 UNL     1      25.390   3.561  20.519  1.00  0.00     0.049 C 
HETATM   25  C20 UNL     1      24.543   4.671  20.036  1.00  0.00    -0.014 C 
ENDROOT
BRANCH   1  26
HETATM   26  C2  UNL     1      21.002   8.539  21.504  1.00  0.00     0.020 C 
HETATM   27  C1  UNL     1      19.964   8.962  20.515  1.00  0.00     0.062 C 
HETATM   28 CL1  UNL     1      20.967   9.569  22.948  1.00  0.00    -0.088 Cl
ENDBRANCH   1  26
TORSDOF 1
ENDMDL
MODEL 5
REMARK VINA RESULT: -7.733537545      3.386      7.599
REMARK  1 active torsions:
REMARK  status: ('A' for Active; 'I' for Inactive)
REMARK    1  A    between atoms: C2_2  and  C3_4 
ROOT
HETATM    1  C3  UNL     1      23.208   2.863  21.950  1.00  0.00     0.009 A 
HETATM    2  C4  UNL     1      23.628   4.001  21.292  1.00  0.00     0.047 A 
HETATM    3 CL2  UNL     1      24.840   4.066  20.008  1.00  0.00    -0.083 Cl
HETATM    4  C5  UNL     1      23.074   5.196  21.680  1.00  0.00     0.036 A 
HETATM    5  C6  UNL     1      22.111   5.366  22.692  1.00  0.00    -0.038 A 
HETATM    6  C7  UNL     1      21.710   4.224  23.332  1.00  0.00     0.019 A 
HETATM    7  C8  UNL     1      22.231   3.003  22.992  1.00  0.00    -0.044 A 
HETATM    8  C9  UNL     1      22.011   1.680  23.639  1.00  0.00     0.041 C 
HETATM    9  C10 UNL     1      21.312   1.571  24.971  1.00  0.00     0.031 C 
HETATM   10  C11 UNL     1      22.073   2.389  26.000  1.00  0.00     0.169 C 
HETATM   11  O1  UNL     1      21.216   3.140  26.762  1.00  0.00    -0.380 OA
HETATM   12  C12 UNL     1      21.569   3.253  28.101  1.00  0.00     0.066 C 
HETATM   13  C13 UNL     1      23.019   3.608  28.283  1.00  0.00     0.046 C 
HETATM   14  C14 UNL     1      21.238   1.910  28.732  1.00  0.00     0.046 C 
HETATM   15  C15 UNL     1      20.662   4.268  28.736  1.00  0.00     0.177 C 
HETATM   16  S1  UNL     1      21.109   5.944  28.369  1.00  0.00     0.148 S 
HETATM   17  O2  UNL     1      19.997   6.809  28.949  1.00  0.00    -0.228 OA
HETATM   18  O3  UNL     1      22.404   6.316  29.018  1.00  0.00    -0.228 OA
HETATM   19  C16 UNL     1      21.171   6.211  26.618  1.00  0.00     0.162 C 
HETATM   20  C17 UNL     1      20.878   7.625  26.213  1.00  0.00     0.114 C 
HETATM   21 CL3  UNL     1      21.493   8.777  27.423  1.00  0.00    -0.122 Cl
HETATM   22  C18 UNL     1      21.579   7.977  24.895  1.00  0.00     0.105 C 
HETATM   23 CL4  UNL     1      21.551   9.743  24.748  1.00  0.00    -0.123 Cl
HETATM   24  C19 UNL     1      20.877   7.399  23.696  1.00  0.00     0.049 C 
HETATM   25  C20 UNL     1      21.800   6.646  22.822  1.00  0.00    -0.014 C 
ENDROOT
BRANCH   1  26
HETATM   26  C2  UNL     1      23.686   1.699  21.544  1.00  0.00     0.020 C 
HETATM   27  C1  UNL     1      25.026   1.222  22.003  1.00  0.00     0.062 C 
HETATM   28 CL1  UNL     1      22.955   0.555  20.403  1.00  0.00    -0.088 Cl
ENDBRANCH   1  26
TORSDOF 1
ENDMDL
