MODEL 1
REMARK VINA RESULT: -4.472856585      0.000      0.000
REMARK  4 active torsions:
REMARK  status: ('A' for Active; 'I' for Inactive)
REMARK    1  A    between atoms: N1_2  and  C3_4 
REMARK    2  A    between atoms: C6_8  and  C7_9 
REMARK    3  A    between atoms: C9_14  and  C10_15 
REMARK    4  A    between atoms: C11_22  and  N7_23 
ROOT
HETATM    1  C3  UNL     1      25.439  13.855  23.167  1.00  0.00     0.069 A 
HETATM    2  C4  UNL     1      25.792  13.702  21.812  1.00  0.00     0.074 A 
HETATM    3  N2  UNL     1      24.831  13.256  20.870  1.00  0.00    -0.100 NA
HETATM    4  C5  UNL     1      27.052  13.971  21.349  1.00  0.00     0.047 A 
HETATM    5  C6  UNL     1      27.994  14.410  22.275  1.00  0.00     0.049 A 
HETATM    6  C8  UNL     1      27.646  14.558  23.599  1.00  0.00     0.038 A 
HETATM    7  S1  UNL     1      28.761  15.090  24.774  1.00  0.00    -0.067 SA
HETATM    8  C9  UNL     1      28.107  15.194  26.340  1.00  0.00     0.117 A 
HETATM    9  N6  UNL     1      26.841  14.849  26.399  1.00  0.00    -0.334 N 
ATOM     10  H6  UNL     1      26.418  14.902  27.326  1.00  0.00     0.168 HD
HETATM   11  C11 UNL     1      26.027  14.438  25.422  1.00  0.00     0.113 A 
HETATM   12  C12 UNL     1      26.358  14.286  24.090  1.00  0.00     0.054 A 
ENDROOT
BRANCH   8  13
HETATM   13  C10 UNL     1      28.882  15.627  27.495  1.00  0.00     0.144 C 
HETATM   14  N4  UNL     1      30.131  15.875  27.339  1.00  0.00    -0.385 N 
ATOM     15  H42 UNL     1      30.541  15.763  26.412  1.00  0.00     0.157 HD
ATOM     16  H41 UNL     1      30.675  16.178  28.148  1.00  0.00     0.157 HD
HETATM   17  N5  UNL     1      28.315  15.782  28.776  1.00  0.00    -0.080 NA
ENDBRANCH   8  13
BRANCH  11  18
HETATM   18  N7  UNL     1      24.832  14.167  25.791  1.00  0.00    -0.385 N 
ATOM     19  H72 UNL     1      24.696  13.581  26.615  1.00  0.00     0.157 HD
ATOM     20  H71 UNL     1      24.098  14.574  25.211  1.00  0.00     0.157 HD
ENDBRANCH  11  18
BRANCH   5  21
HETATM   21  C7  UNL     1      29.345  14.714  21.865  1.00  0.00     0.266 C 
HETATM   22  N3  UNL     1      30.358  13.736  21.862  1.00  0.00    -0.057 NA
HETATM   23  O1  UNL     1      29.643  15.878  21.498  1.00  0.00    -0.271 OA
ENDBRANCH   5  21
BRANCH   1  24
HETATM   24  N1  UNL     1      24.104  13.529  23.445  1.00  0.00    -0.387 N 
HETATM   25  C1  UNL     1      22.966  14.428  23.387  1.00  0.00     0.149 C 
HETATM   26  C2  UNL     1      23.804  12.128  23.779  1.00  0.00     0.149 C 
ENDBRANCH   1  24
TORSDOF 4
ENDMDL
MODEL 2
REMARK VINA RESULT: -4.361770592      0.971      1.191
REMARK  4 active torsions:
REMARK  status: ('A' for Active; 'I' for Inactive)
REMARK    1  A    between atoms: N1_2  and  C3_4 
REMARK    2  A    between atoms: C6_8  and  C7_9 
REMARK    3  A    between atoms: C9_14  and  C10_15 
REMARK    4  A    between atoms: C11_22  and  N7_23 
ROOT
HETATM    1  C3  UNL     1      25.464  14.163  23.374  1.00  0.00     0.069 A 
HETATM    2  C4  UNL     1      26.003  14.083  22.075  1.00  0.00     0.074 A 
HETATM    3  N2  UNL     1      25.176  13.729  20.979  1.00  0.00    -0.100 NA
HETATM    4  C5  UNL     1      27.323  14.335  21.814  1.00  0.00     0.047 A 
HETATM    5  C6  UNL     1      28.134  14.682  22.891  1.00  0.00     0.049 A 
HETATM    6  C8  UNL     1      27.603  14.760  24.159  1.00  0.00     0.038 A 
HETATM    7  S1  UNL     1      28.552  15.179  25.513  1.00  0.00    -0.067 SA
HETATM    8  C9  UNL     1      27.683  15.210  26.973  1.00  0.00     0.117 A 
HETATM    9  N6  UNL     1      26.414  14.906  26.830  1.00  0.00    -0.334 N 
ATOM     10  H6  UNL     1      25.863  14.916  27.689  1.00  0.00     0.168 HD
HETATM   11  C11 UNL     1      25.737  14.585  25.723  1.00  0.00     0.113 A 
HETATM   12  C12 UNL     1      26.252  14.504  24.444  1.00  0.00     0.054 A 
ENDROOT
BRANCH   8  13
HETATM   13  C10 UNL     1      28.295  15.542  28.252  1.00  0.00     0.144 C 
HETATM   14  N4  UNL     1      27.534  15.876  29.231  1.00  0.00    -0.385 N 
ATOM     15  H42 UNL     1      26.526  15.896  29.082  1.00  0.00     0.157 HD
ATOM     16  H41 UNL     1      27.963  16.109  30.127  1.00  0.00     0.157 HD
HETATM   17  N5  UNL     1      29.690  15.514  28.459  1.00  0.00    -0.080 NA
ENDBRANCH   8  13
BRANCH  11  18
HETATM   18  N7  UNL     1      24.495  14.334  25.900  1.00  0.00    -0.385 N 
ATOM     19  H72 UNL     1      24.213  13.844  26.749  1.00  0.00     0.157 HD
ATOM     20  H71 UNL     1      23.878  14.656  25.154  1.00  0.00     0.157 HD
ENDBRANCH  11  18
BRANCH   5  21
HETATM   21  C7  UNL     1      29.538  14.964  22.697  1.00  0.00     0.266 C 
HETATM   22  N3  UNL     1      29.983  15.879  21.723  1.00  0.00    -0.057 NA
HETATM   23  O1  UNL     1      30.399  14.386  23.405  1.00  0.00    -0.271 OA
ENDBRANCH   5  21
BRANCH   1  24
HETATM   24  N1  UNL     1      24.095  13.869  23.438  1.00  0.00    -0.387 N 
HETATM   25  C1  UNL     1      23.001  14.809  23.287  1.00  0.00     0.149 C 
HETATM   26  C2  UNL     1      23.714  12.460  23.624  1.00  0.00     0.149 C 
ENDBRANCH   1  24
TORSDOF 4
ENDMDL
MODEL 3
REMARK VINA RESULT: -4.241174877      0.698      1.251
REMARK  4 active torsions:
REMARK  status: ('A' for Active; 'I' for Inactive)
REMARK    1  A    between atoms: N1_2  and  C3_4 
REMARK    2  A    between atoms: C6_8  and  C7_9 
REMARK    3  A    between atoms: C9_14  and  C10_15 
REMARK    4  A    between atoms: C11_22  and  N7_23 
ROOT
HETATM    1  C3  UNL     1      25.580  14.023  23.474  1.00  0.00     0.069 A 
HETATM    2  C4  UNL     1      26.049  14.012  22.145  1.00  0.00     0.074 A 
HETATM    3  N2  UNL     1      25.188  13.621  21.088  1.00  0.00    -0.100 NA
HETATM    4  C5  UNL     1      27.329  14.368  21.818  1.00  0.00     0.047 A 
HETATM    5  C6  UNL     1      28.173  14.752  22.857  1.00  0.00     0.049 A 
HETATM    6  C8  UNL     1      27.711  14.762  24.154  1.00  0.00     0.038 A 
HETATM    7  S1  UNL     1      28.702  15.221  25.464  1.00  0.00    -0.067 SA
HETATM    8  C9  UNL     1      27.918  15.155  26.971  1.00  0.00     0.117 A 
HETATM    9  N6  UNL     1      26.669  14.760  26.890  1.00  0.00    -0.334 N 
ATOM     10  H6  UNL     1      26.169  14.710  27.779  1.00  0.00     0.168 HD
HETATM   11  C11 UNL     1      25.956  14.413  25.814  1.00  0.00     0.113 A 
HETATM   12  C12 UNL     1      26.401  14.399  24.507  1.00  0.00     0.054 A 
ENDROOT
BRANCH   8  13
HETATM   13  C10 UNL     1      28.577  15.505  28.222  1.00  0.00     0.144 C 
HETATM   14  N4  UNL     1      27.873  15.554  29.295  1.00  0.00    -0.385 N 
ATOM     15  H42 UNL     1      26.877  15.346  29.237  1.00  0.00     0.157 HD
ATOM     16  H41 UNL     1      28.334  15.799  30.172  1.00  0.00     0.157 HD
HETATM   17  N5  UNL     1      29.955  15.792  28.302  1.00  0.00    -0.080 NA
ENDBRANCH   8  13
BRANCH  11  18
HETATM   18  N7  UNL     1      24.748  14.065  26.054  1.00  0.00    -0.385 N 
ATOM     19  H72 UNL     1      24.030  14.789  26.095  1.00  0.00     0.157 HD
ATOM     20  H71 UNL     1      24.605  13.064  26.187  1.00  0.00     0.157 HD
ENDBRANCH  11  18
BRANCH   5  21
HETATM   21  C7  UNL     1      29.538  15.142  22.593  1.00  0.00     0.266 C 
HETATM   22  N3  UNL     1      30.603  14.719  23.412  1.00  0.00    -0.057 NA
HETATM   23  O1  UNL     1      29.802  15.879  21.611  1.00  0.00    -0.271 OA
ENDBRANCH   5  21
BRANCH   1  24
HETATM   24  N1  UNL     1      24.242  13.625  23.607  1.00  0.00    -0.387 N 
HETATM   25  C1  UNL     1      23.763  12.284  23.882  1.00  0.00     0.149 C 
HETATM   26  C2  UNL     1      23.213  14.672  23.513  1.00  0.00     0.149 C 
ENDBRANCH   1  24
TORSDOF 4
ENDMDL
MODEL 4
REMARK VINA RESULT: -3.998168630      2.185      4.299
REMARK  4 active torsions:
REMARK  status: ('A' for Active; 'I' for Inactive)
REMARK    1  A    between atoms: N1_2  and  C3_4 
REMARK    2  A    between atoms: C6_8  and  C7_9 
REMARK    3  A    between atoms: C9_14  and  C10_15 
REMARK    4  A    between atoms: C11_22  and  N7_23 
ROOT
HETATM    1  C3  UNL     1      28.251  14.551  22.636  1.00  0.00     0.069 A 
HETATM    2  C4  UNL     1      27.063  14.245  21.943  1.00  0.00     0.074 A 
HETATM    3  N2  UNL     1      27.090  14.026  20.542  1.00  0.00    -0.100 NA
HETATM    4  C5  UNL     1      25.852  14.148  22.574  1.00  0.00     0.047 A 
HETATM    5  C6  UNL     1      25.828  14.364  23.949  1.00  0.00     0.049 A 
HETATM    6  C8  UNL     1      26.991  14.662  24.623  1.00  0.00     0.038 A 
HETATM    7  S1  UNL     1      27.016  14.937  26.306  1.00  0.00    -0.067 SA
HETATM    8  C9  UNL     1      28.563  15.289  26.917  1.00  0.00     0.117 A 
HETATM    9  N6  UNL     1      29.498  15.295  25.996  1.00  0.00    -0.334 N 
ATOM     10  H6  UNL     1      30.439  15.503  26.331  1.00  0.00     0.168 HD
HETATM   11  C11 UNL     1      29.397  15.068  24.682  1.00  0.00     0.113 A 
HETATM   12  C12 UNL     1      28.241  14.766  23.991  1.00  0.00     0.054 A 
ENDROOT
BRANCH   8  13
HETATM   13  C10 UNL     1      28.815  15.557  28.327  1.00  0.00     0.144 C 
HETATM   14  N4  UNL     1      27.823  15.553  29.141  1.00  0.00    -0.385 N 
ATOM     15  H42 UNL     1      26.890  15.361  28.776  1.00  0.00     0.157 HD
ATOM     16  H41 UNL     1      27.999  15.740  30.128  1.00  0.00     0.157 HD
HETATM   17  N5  UNL     1      30.105  15.823  28.832  1.00  0.00    -0.080 NA
ENDBRANCH   8  13
BRANCH  11  18
HETATM   18  N7  UNL     1      30.497  15.147  24.033  1.00  0.00    -0.385 N 
ATOM     19  H72 UNL     1      31.205  14.429  24.183  1.00  0.00     0.157 HD
ATOM     20  H71 UNL     1      30.569  15.946  23.403  1.00  0.00     0.157 HD
ENDBRANCH  11  18
BRANCH   5  21
HETATM   21  C7  UNL     1      24.589  14.279  24.687  1.00  0.00     0.266 C 
HETATM   22  N3  UNL     1      23.792  15.414  24.933  1.00  0.00    -0.057 NA
HETATM   23  O1  UNL     1      24.196  13.171  25.130  1.00  0.00    -0.271 OA
ENDBRANCH   5  21
BRANCH   1  24
HETATM   24  N1  UNL     1      29.387  14.606  21.816  1.00  0.00    -0.387 N 
HETATM   25  C1  UNL     1      30.296  13.514  21.524  1.00  0.00     0.149 C 
HETATM   26  C2  UNL     1      29.668  15.879  21.134  1.00  0.00     0.149 C 
ENDBRANCH   1  24
TORSDOF 4
ENDMDL
MODEL 5
REMARK VINA RESULT: -3.403653792      2.077      4.733
REMARK  4 active torsions:
REMARK  status: ('A' for Active; 'I' for Inactive)
REMARK    1  A    between atoms: N1_2  and  C3_4 
REMARK    2  A    between atoms: C6_8  and  C7_9 
REMARK    3  A    between atoms: C9_14  and  C10_15 
REMARK    4  A    between atoms: C11_22  and  N7_23 
ROOT
HETATM    1  C3  UNL     1      26.986  14.615  25.065  1.00  0.00     0.069 A 
HETATM    2  C4  UNL     1      25.656  14.234  24.804  1.00  0.00     0.074 A 
HETATM    3  N2  UNL     1      24.759  13.993  25.875  1.00  0.00    -0.100 NA
HETATM    4  C5  UNL     1      25.176  14.079  23.531  1.00  0.00     0.047 A 
HETATM    5  C6  UNL     1      26.059  14.316  22.481  1.00  0.00     0.049 A 
HETATM    6  C8  UNL     1      27.358  14.689  22.740  1.00  0.00     0.038 A 
HETATM    7  S1  UNL     1      28.480  14.989  21.492  1.00  0.00    -0.067 SA
HETATM    8  C9  UNL     1      30.022  15.434  22.051  1.00  0.00     0.117 A 
HETATM    9  N6  UNL     1      30.109  15.477  23.360  1.00  0.00    -0.334 N 
ATOM     10  H6  UNL     1      31.023  15.742  23.728  1.00  0.00     0.168 HD
HETATM   11  C11 UNL     1      29.174  15.225  24.281  1.00  0.00     0.113 A 
HETATM   12  C12 UNL     1      27.867  14.851  24.039  1.00  0.00     0.054 A 
ENDROOT
BRANCH   8  13
HETATM   13  C10 UNL     1      31.132  15.736  21.157  1.00  0.00     0.144 C 
HETATM   14  N4  UNL     1      32.305  15.878  21.659  1.00  0.00    -0.385 N 
ATOM     15  H42 UNL     1      32.423  15.774  22.666  1.00  0.00     0.157 HD
ATOM     16  H41 UNL     1      33.083  16.090  21.033  1.00  0.00     0.157 HD
HETATM   17  N5  UNL     1      30.970  15.879  19.764  1.00  0.00    -0.080 NA
ENDBRANCH   8  13
BRANCH  11  18
HETATM   18  N7  UNL     1      29.561  15.349  25.495  1.00  0.00    -0.385 N 
ATOM     19  H72 UNL     1      29.450  16.253  25.953  1.00  0.00     0.157 HD
ATOM     20  H71 UNL     1      29.959  14.506  25.909  1.00  0.00     0.157 HD
ENDBRANCH  11  18
BRANCH   5  21
HETATM   21  C7  UNL     1      25.627  14.174  21.109  1.00  0.00     0.266 C 
HETATM   22  N3  UNL     1      25.547  15.279  20.239  1.00  0.00    -0.057 NA
HETATM   23  O1  UNL     1      25.311  13.043  20.664  1.00  0.00    -0.271 OA
ENDBRANCH   5  21
BRANCH   1  24
HETATM   24  N1  UNL     1      27.288  14.720  26.431  1.00  0.00    -0.387 N 
HETATM   25  C1  UNL     1      27.063  15.875  27.279  1.00  0.00     0.149 C 
HETATM   26  C2  UNL     1      27.839  13.528  27.095  1.00  0.00     0.149 C 
ENDBRANCH   1  24
TORSDOF 4
ENDMDL
