MODEL 1
REMARK VINA RESULT: -9.607866446      0.000      0.000
REMARK  6 active torsions:
REMARK  status: ('A' for Active; 'I' for Inactive)
REMARK    1  A    between atoms: C3_5  and  N2_6 
REMARK    2  A    between atoms: C4_11  and  N4_12 
REMARK    3  A    between atoms: C5_15  and  C6_16 
REMARK    4  A    between atoms: C6_16  and  N6_20 
REMARK    5  A    between atoms: N6_20  and  N7_22 
REMARK       I    between atoms: N7_22  and  C7_24 
REMARK    6  A    between atoms: C7_24  and  C8_26 
ROOT
HETATM    1  N1  UNL     1      24.924   4.060  23.585  1.00  0.00    -0.189 NA
HETATM    2  C1  UNL     1      24.099   3.885  24.385  1.00  0.00     0.126 C 
HETATM    3  C2  UNL     1      23.021   3.656  25.334  1.00  0.00     0.176 A 
HETATM    4  O1  UNL     1      22.027   2.913  24.950  1.00  0.00    -0.267 OA
HETATM    5  C3  UNL     1      20.976   2.625  25.693  1.00  0.00     0.224 A 
HETATM    6  N3  UNL     1      20.904   3.117  26.929  1.00  0.00    -0.308 N 
ATOM      7  H3  UNL     1      20.101   2.909  27.522  1.00  0.00     0.171 HD
HETATM    8  C4  UNL     1      21.930   3.909  27.393  1.00  0.00     0.119 A 
HETATM    9  C5  UNL     1      23.051   4.212  26.592  1.00  0.00     0.097 A 
ENDROOT
BRANCH   9  10
HETATM   10  C6  UNL     1      24.161   4.966  27.115  1.00  0.00     0.131 C 
HETATM   11  N5  UNL     1      24.538   4.785  28.341  1.00  0.00    -0.384 N 
ATOM     12  H52 UNL     1      23.976   4.141  28.898  1.00  0.00     0.157 HD
ATOM     13  H51 UNL     1      25.324   5.319  28.712  1.00  0.00     0.157 HD
BRANCH  10  14
HETATM   14  N6  UNL     1      24.944   5.863  26.339  1.00  0.00    -0.282 N 
ATOM     15  H6  UNL     1      25.953   5.717  26.316  1.00  0.00     0.188 HD
BRANCH  14  16
HETATM   16  N7  UNL     1      24.423   6.926  25.609  1.00  0.00    -0.264 N 
HETATM   17  C7  UNL     1      24.978   7.538  24.488  1.00  0.00     0.270 C 
HETATM   18  O2  UNL     1      26.054   7.179  23.991  1.00  0.00    -0.266 OA
ATOM     19  H7  UNL     1      23.531   7.300  25.933  1.00  0.00     0.190 HD
BRANCH  17  20
HETATM   20  C8  UNL     1      24.248   8.669  23.849  1.00  0.00     0.033 A 
HETATM   21  C9  UNL     1      23.134   8.441  23.072  1.00  0.00     0.017 A 
HETATM   22  C10 UNL     1      22.471   9.494  22.473  1.00  0.00     0.001 A 
HETATM   23  C11 UNL     1      22.885  10.782  22.621  1.00  0.00     0.000 A 
HETATM   24  C12 UNL     1      23.999  11.049  23.394  1.00  0.00     0.001 A 
HETATM   25  C13 UNL     1      24.657   9.980  23.993  1.00  0.00     0.017 A 
ENDBRANCH  17  20
ENDBRANCH  14  16
ENDBRANCH  10  14
ENDBRANCH   9  10
BRANCH   5  26
HETATM   26  N2  UNL     1      20.089   1.878  25.160  1.00  0.00    -0.365 N 
ATOM     27  H22 UNL     1      19.777   1.953  24.192  1.00  0.00     0.159 HD
ATOM     28  H21 UNL     1      19.674   1.164  25.760  1.00  0.00     0.159 HD
ENDBRANCH   5  26
BRANCH   8  29
HETATM   29  N4  UNL     1      21.809   4.342  28.556  1.00  0.00    -0.385 N 
ATOM     30  H42 UNL     1      21.411   3.778  29.307  1.00  0.00     0.157 HD
ATOM     31  H41 UNL     1      22.133   5.295  28.719  1.00  0.00     0.157 HD
ENDBRANCH   8  29
TORSDOF 6
ENDMDL
MODEL 2
REMARK VINA RESULT: -9.267872354      1.391      2.474
REMARK  6 active torsions:
REMARK  status: ('A' for Active; 'I' for Inactive)
REMARK    1  A    between atoms: C3_5  and  N2_6 
REMARK    2  A    between atoms: C4_11  and  N4_12 
REMARK    3  A    between atoms: C5_15  and  C6_16 
REMARK    4  A    between atoms: C6_16  and  N6_20 
REMARK    5  A    between atoms: N6_20  and  N7_22 
REMARK       I    between atoms: N7_22  and  C7_24 
REMARK    6  A    between atoms: C7_24  and  C8_26 
ROOT
HETATM    1  N1  UNL     1      25.383   5.049  28.502  1.00  0.00    -0.189 NA
HETATM    2  C1  UNL     1      24.385   4.697  28.021  1.00  0.00     0.126 C 
HETATM    3  C2  UNL     1      23.117   4.233  27.482  1.00  0.00     0.176 A 
HETATM    4  O1  UNL     1      22.108   4.154  28.296  1.00  0.00    -0.267 OA
HETATM    5  C3  UNL     1      20.902   3.742  27.956  1.00  0.00     0.224 A 
HETATM    6  N3  UNL     1      20.675   3.377  26.695  1.00  0.00    -0.308 N 
ATOM      7  H3  UNL     1      19.751   3.054  26.409  1.00  0.00     0.171 HD
HETATM    8  C4  UNL     1      21.706   3.442  25.785  1.00  0.00     0.119 A 
HETATM    9  C5  UNL     1      22.993   3.884  26.157  1.00  0.00     0.097 A 
ENDROOT
BRANCH   9  10
HETATM   10  C6  UNL     1      24.041   4.036  25.181  1.00  0.00     0.131 C 
HETATM   11  N5  UNL     1      25.193   3.477  25.385  1.00  0.00    -0.384 N 
ATOM     12  H52 UNL     1      25.311   2.994  26.276  1.00  0.00     0.157 HD
ATOM     13  H51 UNL     1      25.935   3.584  24.694  1.00  0.00     0.157 HD
BRANCH  10  14
HETATM   14  N6  UNL     1      23.876   4.708  23.940  1.00  0.00    -0.282 N 
ATOM     15  H6  UNL     1      23.902   4.149  23.088  1.00  0.00     0.188 HD
BRANCH  14  16
HETATM   16  N7  UNL     1      23.683   6.080  23.813  1.00  0.00    -0.264 N 
HETATM   17  C7  UNL     1      24.621   7.038  23.436  1.00  0.00     0.270 C 
HETATM   18  O2  UNL     1      25.794   6.754  23.155  1.00  0.00    -0.266 OA
ATOM     19  H7  UNL     1      22.745   6.423  24.020  1.00  0.00     0.190 HD
BRANCH  17  20
HETATM   20  C8  UNL     1      24.202   8.465  23.359  1.00  0.00     0.033 A 
HETATM   21  C9  UNL     1      23.055   8.828  22.688  1.00  0.00     0.017 A 
HETATM   22  C10 UNL     1      22.680  10.155  22.610  1.00  0.00     0.001 A 
HETATM   23  C11 UNL     1      23.418  11.146  23.181  1.00  0.00     0.000 A 
HETATM   24  C12 UNL     1      24.576  10.819  23.862  1.00  0.00     0.001 A 
HETATM   25  C13 UNL     1      24.941   9.479  23.935  1.00  0.00     0.017 A 
ENDBRANCH  17  20
ENDBRANCH  14  16
ENDBRANCH  10  14
ENDBRANCH   9  10
BRANCH   5  26
HETATM   26  N2  UNL     1      20.023   3.727  28.882  1.00  0.00    -0.365 N 
ATOM     27  H22 UNL     1      19.912   4.459  29.584  1.00  0.00     0.159 HD
ATOM     28  H21 UNL     1      19.402   2.918  28.907  1.00  0.00     0.159 HD
ENDBRANCH   5  26
BRANCH   8  29
HETATM   29  N4  UNL     1      21.436   3.088  24.621  1.00  0.00    -0.385 N 
ATOM     30  H42 UNL     1      20.486   3.114  24.251  1.00  0.00     0.157 HD
ATOM     31  H41 UNL     1      22.221   2.769  24.053  1.00  0.00     0.157 HD
ENDBRANCH   8  29
TORSDOF 6
ENDMDL
MODEL 3
REMARK VINA RESULT: -8.252285591      2.778      4.557
REMARK  6 active torsions:
REMARK  status: ('A' for Active; 'I' for Inactive)
REMARK    1  A    between atoms: C3_5  and  N2_6 
REMARK    2  A    between atoms: C4_11  and  N4_12 
REMARK    3  A    between atoms: C5_15  and  C6_16 
REMARK    4  A    between atoms: C6_16  and  N6_20 
REMARK    5  A    between atoms: N6_20  and  N7_22 
REMARK       I    between atoms: N7_22  and  C7_24 
REMARK    6  A    between atoms: C7_24  and  C8_26 
ROOT
HETATM    1  N1  UNL     1      24.965   4.757  27.873  1.00  0.00    -0.189 NA
HETATM    2  C1  UNL     1      25.356   4.868  26.784  1.00  0.00     0.126 C 
HETATM    3  C2  UNL     1      25.910   4.995  25.445  1.00  0.00     0.176 A 
HETATM    4  O1  UNL     1      27.034   4.394  25.197  1.00  0.00    -0.267 OA
HETATM    5  C3  UNL     1      27.661   4.427  24.037  1.00  0.00     0.224 A 
HETATM    6  N3  UNL     1      27.125   5.117  23.032  1.00  0.00    -0.308 N 
ATOM      7  H3  UNL     1      27.592   5.159  22.126  1.00  0.00     0.171 HD
HETATM    8  C4  UNL     1      25.932   5.774  23.234  1.00  0.00     0.119 A 
HETATM    9  C5  UNL     1      25.267   5.733  24.478  1.00  0.00     0.097 A 
ENDROOT
BRANCH   9  10
HETATM   10  C6  UNL     1      23.976   6.346  24.655  1.00  0.00     0.131 C 
HETATM   11  N5  UNL     1      22.924   5.784  24.149  1.00  0.00    -0.384 N 
ATOM     12  H52 UNL     1      23.082   4.944  23.592  1.00  0.00     0.157 HD
ATOM     13  H51 UNL     1      22.009   6.219  24.275  1.00  0.00     0.157 HD
BRANCH  10  14
HETATM   14  N6  UNL     1      23.756   7.516  25.432  1.00  0.00    -0.282 N 
ATOM     15  H6  UNL     1      23.438   7.396  26.393  1.00  0.00     0.188 HD
BRANCH  14  16
HETATM   16  N7  UNL     1      23.946   8.812  24.965  1.00  0.00    -0.264 N 
HETATM   17  C7  UNL     1      23.686   9.300  23.687  1.00  0.00     0.270 C 
HETATM   18  O2  UNL     1      23.230   8.593  22.778  1.00  0.00    -0.266 OA
ATOM     19  H7  UNL     1      24.319   9.483  25.638  1.00  0.00     0.190 HD
BRANCH  17  20
HETATM   20  C8  UNL     1      23.960  10.735  23.394  1.00  0.00     0.033 A 
HETATM   21  C9  UNL     1      23.010  11.526  22.787  1.00  0.00     0.017 A 
HETATM   22  C10 UNL     1      23.277  12.851  22.508  1.00  0.00     0.001 A 
HETATM   23  C11 UNL     1      24.472  13.424  22.814  1.00  0.00     0.000 A 
HETATM   24  C12 UNL     1      25.450  12.662  23.424  1.00  0.00     0.001 A 
HETATM   25  C13 UNL     1      25.168  11.329  23.702  1.00  0.00     0.017 A 
ENDBRANCH  17  20
ENDBRANCH  14  16
ENDBRANCH  10  14
ENDBRANCH   9  10
BRANCH   5  26
HETATM   26  N2  UNL     1      28.757   3.778  23.964  1.00  0.00    -0.365 N 
ATOM     27  H22 UNL     1      29.153   3.226  24.724  1.00  0.00     0.159 HD
ATOM     28  H21 UNL     1      29.259   3.829  23.077  1.00  0.00     0.159 HD
ENDBRANCH   5  26
BRANCH   8  29
HETATM   29  N4  UNL     1      25.477   6.405  22.259  1.00  0.00    -0.385 N 
ATOM     30  H42 UNL     1      25.669   7.396  22.117  1.00  0.00     0.157 HD
ATOM     31  H41 UNL     1      24.901   5.873  21.606  1.00  0.00     0.157 HD
ENDBRANCH   8  29
TORSDOF 6
ENDMDL
MODEL 4
REMARK VINA RESULT: -8.028290164      2.685      4.837
REMARK  6 active torsions:
REMARK  status: ('A' for Active; 'I' for Inactive)
REMARK    1  A    between atoms: C3_5  and  N2_6 
REMARK    2  A    between atoms: C4_11  and  N4_12 
REMARK    3  A    between atoms: C5_15  and  C6_16 
REMARK    4  A    between atoms: C6_16  and  N6_20 
REMARK    5  A    between atoms: N6_20  and  N7_22 
REMARK       I    between atoms: N7_22  and  C7_24 
REMARK    6  A    between atoms: C7_24  and  C8_26 
ROOT
HETATM    1  N1  UNL     1      23.990   3.351  26.104  1.00  0.00    -0.189 NA
HETATM    2  C1  UNL     1      24.847   3.901  25.543  1.00  0.00     0.126 C 
HETATM    3  C2  UNL     1      25.965   4.545  24.871  1.00  0.00     0.176 A 
HETATM    4  O1  UNL     1      27.022   3.828  24.638  1.00  0.00    -0.267 OA
HETATM    5  C3  UNL     1      28.115   4.274  24.049  1.00  0.00     0.224 A 
HETATM    6  N3  UNL     1      28.163   5.545  23.653  1.00  0.00    -0.308 N 
ATOM      7  H3  UNL     1      28.996   5.913  23.196  1.00  0.00     0.171 HD
HETATM    8  C4  UNL     1      27.070   6.354  23.870  1.00  0.00     0.119 A 
HETATM    9  C5  UNL     1      25.905   5.869  24.501  1.00  0.00     0.097 A 
ENDROOT
BRANCH   9  10
HETATM   10  C6  UNL     1      24.733   6.694  24.644  1.00  0.00     0.131 C 
HETATM   11  N5  UNL     1      24.068   6.676  25.756  1.00  0.00    -0.384 N 
ATOM     12  H52 UNL     1      24.390   6.019  26.467  1.00  0.00     0.157 HD
ATOM     13  H51 UNL     1      23.238   7.261  25.857  1.00  0.00     0.157 HD
BRANCH  10  14
HETATM   14  N6  UNL     1      24.285   7.609  23.654  1.00  0.00    -0.282 N 
ATOM     15  H6  UNL     1      23.924   7.227  22.780  1.00  0.00     0.188 HD
BRANCH  14  16
HETATM   16  N7  UNL     1      24.307   8.992  23.800  1.00  0.00    -0.264 N 
HETATM   17  C7  UNL     1      23.472   9.923  23.185  1.00  0.00     0.270 C 
HETATM   18  O2  UNL     1      22.569   9.601  22.401  1.00  0.00    -0.266 OA
ATOM     19  H7  UNL     1      25.016   9.368  24.430  1.00  0.00     0.190 HD
BRANCH  17  20
HETATM   20  C8  UNL     1      23.663  11.370  23.484  1.00  0.00     0.033 A 
HETATM   21  C9  UNL     1      23.062  12.337  22.709  1.00  0.00     0.017 A 
HETATM   22  C10 UNL     1      23.255  13.676  22.986  1.00  0.00     0.001 A 
HETATM   23  C11 UNL     1      24.038  14.091  24.019  1.00  0.00     0.000 A 
HETATM   24  C12 UNL     1      24.658  13.149  24.818  1.00  0.00     0.001 A 
HETATM   25  C13 UNL     1      24.453  11.804  24.530  1.00  0.00     0.017 A 
ENDBRANCH  17  20
ENDBRANCH  14  16
ENDBRANCH  10  14
ENDBRANCH   9  10
BRANCH   5  26
HETATM   26  N2  UNL     1      29.063   3.434  23.896  1.00  0.00    -0.365 N 
ATOM     27  H22 UNL     1      29.129   2.772  23.123  1.00  0.00     0.159 HD
ATOM     28  H21 UNL     1      29.795   3.439  24.607  1.00  0.00     0.159 HD
ENDBRANCH   5  26
BRANCH   8  29
HETATM   29  N4  UNL     1      27.170   7.534  23.480  1.00  0.00    -0.385 N 
ATOM     30  H42 UNL     1      27.477   7.769  22.536  1.00  0.00     0.157 HD
ATOM     31  H41 UNL     1      26.926   8.255  24.158  1.00  0.00     0.157 HD
ENDBRANCH   8  29
TORSDOF 6
ENDMDL
MODEL 5
REMARK VINA RESULT: -8.019296613      2.685      4.891
REMARK  6 active torsions:
REMARK  status: ('A' for Active; 'I' for Inactive)
REMARK    1  A    between atoms: C3_5  and  N2_6 
REMARK    2  A    between atoms: C4_11  and  N4_12 
REMARK    3  A    between atoms: C5_15  and  C6_16 
REMARK    4  A    between atoms: C6_16  and  N6_20 
REMARK    5  A    between atoms: N6_20  and  N7_22 
REMARK       I    between atoms: N7_22  and  C7_24 
REMARK    6  A    between atoms: C7_24  and  C8_26 
ROOT
HETATM    1  N1  UNL     1      23.989   3.334  26.077  1.00  0.00    -0.189 NA
HETATM    2  C1  UNL     1      24.847   3.890  25.523  1.00  0.00     0.126 C 
HETATM    3  C2  UNL     1      25.965   4.542  24.860  1.00  0.00     0.176 A 
HETATM    4  O1  UNL     1      27.025   3.829  24.624  1.00  0.00    -0.267 OA
HETATM    5  C3  UNL     1      28.118   4.282  24.041  1.00  0.00     0.224 A 
HETATM    6  N3  UNL     1      28.164   5.556  23.656  1.00  0.00    -0.308 N 
ATOM      7  H3  UNL     1      28.998   5.930  23.204  1.00  0.00     0.171 HD
HETATM    8  C4  UNL     1      27.069   6.361  23.876  1.00  0.00     0.119 A 
HETATM    9  C5  UNL     1      25.903   5.868  24.500  1.00  0.00     0.097 A 
ENDROOT
BRANCH   9  10
HETATM   10  C6  UNL     1      24.729   6.690  24.646  1.00  0.00     0.131 C 
HETATM   11  N5  UNL     1      24.068   6.671  25.760  1.00  0.00    -0.384 N 
ATOM     12  H52 UNL     1      24.395   6.017  26.471  1.00  0.00     0.157 HD
ATOM     13  H51 UNL     1      23.237   7.253  25.863  1.00  0.00     0.157 HD
BRANCH  10  14
HETATM   14  N6  UNL     1      24.274   7.602  23.656  1.00  0.00    -0.282 N 
ATOM     15  H6  UNL     1      23.900   7.217  22.789  1.00  0.00     0.188 HD
BRANCH  14  16
HETATM   16  N7  UNL     1      24.306   8.986  23.793  1.00  0.00    -0.264 N 
HETATM   17  C7  UNL     1      23.468   9.918  23.185  1.00  0.00     0.270 C 
HETATM   18  O2  UNL     1      22.552   9.596  22.416  1.00  0.00    -0.266 OA
ATOM     19  H7  UNL     1      25.026   9.361  24.411  1.00  0.00     0.190 HD
BRANCH  17  20
HETATM   20  C8  UNL     1      23.672  11.365  23.473  1.00  0.00     0.033 A 
HETATM   21  C9  UNL     1      24.466  11.771  24.523  1.00  0.00     0.017 A 
HETATM   22  C10 UNL     1      24.640  13.114  24.791  1.00  0.00     0.001 A 
HETATM   23  C11 UNL     1      24.041  14.080  24.042  1.00  0.00     0.000 A 
HETATM   24  C12 UNL     1      23.237  13.711  22.981  1.00  0.00     0.001 A 
HETATM   25  C13 UNL     1      23.072  12.355  22.720  1.00  0.00     0.017 A 
ENDBRANCH  17  20
ENDBRANCH  14  16
ENDBRANCH  10  14
ENDBRANCH   9  10
BRANCH   5  26
HETATM   26  N2  UNL     1      29.069   3.445  23.885  1.00  0.00    -0.365 N 
ATOM     27  H22 UNL     1      29.621   3.051  24.646  1.00  0.00     0.159 HD
ATOM     28  H21 UNL     1      29.277   3.166  22.926  1.00  0.00     0.159 HD
ENDBRANCH   5  26
BRANCH   8  29
HETATM   29  N4  UNL     1      27.168   7.544  23.496  1.00  0.00    -0.385 N 
ATOM     30  H42 UNL     1      27.774   8.216  23.966  1.00  0.00     0.157 HD
ATOM     31  H41 UNL     1      26.609   7.806  22.684  1.00  0.00     0.157 HD
ENDBRANCH   8  29
TORSDOF 6
ENDMDL
