MODEL 1
REMARK VINA RESULT: -7.192531007      0.000      0.000
REMARK  9 active torsions:
REMARK  status: ('A' for Active; 'I' for Inactive)
REMARK       I    between atoms: C1_2  and  N1_3 
REMARK    1  A    between atoms: C1_2  and  C5_11 
REMARK    2  A    between atoms: N1_3  and  C2_5 
REMARK    3  A    between atoms: C5_11  and  N4_16 
REMARK    4  A    between atoms: N3_12  and  O2_14 
REMARK    5  A    between atoms: N4_16  and  C6_18 
REMARK    6  A    between atoms: C6_18  and  C7_19 
REMARK    7  A    between atoms: C6_18  and  C8_22 
REMARK    8  A    between atoms: C8_22  and  O5_23 
REMARK    9  A    between atoms: N5_25  and  O6_27 
ROOT
HETATM    1  C5  UNL     1      26.568   5.199  24.817  1.00  0.00     0.191 C 
HETATM    2  N3  UNL     1      27.427   4.238  24.893  1.00  0.00    -0.248 N 
ATOM      3  H3  UNL     1      27.364   3.576  25.666  1.00  0.00     0.196 HD
ENDROOT
BRANCH   1   4
HETATM    4  C1  UNL     1      26.653   6.144  23.718  1.00  0.00     0.293 C 
HETATM    5  O1  UNL     1      26.986   5.734  22.584  1.00  0.00    -0.264 OA
HETATM    6  N1  UNL     1      26.367   7.501  23.921  1.00  0.00    -0.300 N 
ATOM      7  H1  UNL     1      27.087   8.100  24.323  1.00  0.00     0.171 HD
BRANCH   6   8
HETATM    8  C2  UNL     1      25.203   8.026  23.610  1.00  0.00     0.151 A 
HETATM    9  N2  UNL     1      24.263   7.482  22.835  1.00  0.00    -0.346 N 
HETATM   10  C3  UNL     1      23.163   8.143  22.630  1.00  0.00     0.097 A 
ATOM     11  H2  UNL     1      24.405   6.565  22.411  1.00  0.00     0.167 HD
HETATM   12  C4  UNL     1      23.034   9.373  23.231  1.00  0.00     0.070 A 
HETATM   13  S1  UNL     1      24.515   9.514  24.065  1.00  0.00    -0.064 SA
ENDBRANCH   6   8
ENDBRANCH   1   4
BRANCH   1  14
HETATM   14  N4  UNL     1      25.553   5.317  25.813  1.00  0.00    -0.349 N 
ATOM     15  H4  UNL     1      25.508   6.169  26.371  1.00  0.00     0.162 HD
BRANCH  14  16
HETATM   16  C6  UNL     1      24.584   4.270  26.058  1.00  0.00     0.262 C 
BRANCH  16  17
HETATM   17  C7  UNL     1      23.474   4.330  25.075  1.00  0.00     0.205 C 
HETATM   18  O3  UNL     1      22.917   3.274  24.639  1.00  0.00    -0.646 OA
HETATM   19  O4  UNL     1      23.068   5.597  24.651  1.00  0.00    -0.646 OA
ENDBRANCH  16  17
BRANCH  16  20
HETATM   20  C8  UNL     1      23.973   4.420  27.407  1.00  0.00     0.169 C 
HETATM   21  N5  UNL     1      22.737   4.137  27.586  1.00  0.00    -0.249 N 
ATOM     22  H5  UNL     1      22.174   3.809  26.801  1.00  0.00     0.196 HD
BRANCH  20  23
HETATM   23  O5  UNL     1      24.798   4.871  28.435  1.00  0.00    -0.346 OA
ATOM     24  H5  UNL     1      24.377   5.267  29.189  1.00  0.00     0.219 HD
ENDBRANCH  20  23
BRANCH  21  25
HETATM   25  O6  UNL     1      22.165   4.272  28.830  1.00  0.00    -0.288 OA
ATOM     26  H6  UNL     1      21.255   4.035  28.969  1.00  0.00     0.244 HD
ENDBRANCH  21  25
ENDBRANCH  16  20
ENDBRANCH  14  16
ENDBRANCH   1  14
BRANCH   2  27
HETATM   27  O2  UNL     1      28.418   4.084  23.964  1.00  0.00    -0.288 OA
ATOM     28  H2  UNL     1      28.231   3.811  23.074  1.00  0.00     0.244 HD
ENDBRANCH   2  27
TORSDOF 9
ENDMDL
MODEL 2
REMARK VINA RESULT: -6.990165612      1.930      2.591
REMARK  9 active torsions:
REMARK  status: ('A' for Active; 'I' for Inactive)
REMARK       I    between atoms: C1_2  and  N1_3 
REMARK    1  A    between atoms: C1_2  and  C5_11 
REMARK    2  A    between atoms: N1_3  and  C2_5 
REMARK    3  A    between atoms: C5_11  and  N4_16 
REMARK    4  A    between atoms: N3_12  and  O2_14 
REMARK    5  A    between atoms: N4_16  and  C6_18 
REMARK    6  A    between atoms: C6_18  and  C7_19 
REMARK    7  A    between atoms: C6_18  and  C8_22 
REMARK    8  A    between atoms: C8_22  and  O5_23 
REMARK    9  A    between atoms: N5_25  and  O6_27 
ROOT
HETATM    1  C5  UNL     1      24.973   5.024  24.356  1.00  0.00     0.191 C 
HETATM    2  N3  UNL     1      25.197   4.620  23.150  1.00  0.00    -0.248 N 
ATOM      3  H3  UNL     1      24.940   3.667  22.890  1.00  0.00     0.196 HD
ENDROOT
BRANCH   1   4
HETATM    4  C1  UNL     1      25.337   6.378  24.730  1.00  0.00     0.293 C 
HETATM    5  O1  UNL     1      26.541   6.715  24.715  1.00  0.00    -0.264 OA
HETATM    6  N1  UNL     1      24.352   7.303  25.103  1.00  0.00    -0.300 N 
ATOM      7  H1  UNL     1      23.987   7.276  26.055  1.00  0.00     0.171 HD
BRANCH   6   8
HETATM    8  C2  UNL     1      23.883   8.204  24.270  1.00  0.00     0.151 A 
HETATM    9  N2  UNL     1      22.886   8.043  23.398  1.00  0.00    -0.346 N 
HETATM   10  C3  UNL     1      22.547   9.046  22.644  1.00  0.00     0.097 A 
ATOM     11  H2  UNL     1      22.398   7.150  23.325  1.00  0.00     0.167 HD
HETATM   12  C4  UNL     1      23.243  10.222  22.792  1.00  0.00     0.070 A 
HETATM   13  S1  UNL     1      24.358   9.819  24.019  1.00  0.00    -0.064 SA
ENDBRANCH   6   8
ENDBRANCH   1   4
BRANCH   1  14
HETATM   14  N4  UNL     1      24.375   4.134  25.297  1.00  0.00    -0.349 N 
ATOM     15  H4  UNL     1      24.703   3.170  25.340  1.00  0.00     0.162 HD
BRANCH  14  16
HETATM   16  C6  UNL     1      23.319   4.553  26.194  1.00  0.00     0.262 C 
BRANCH  16  17
HETATM   17  C7  UNL     1      23.796   4.588  27.599  1.00  0.00     0.205 C 
HETATM   18  O3  UNL     1      22.992   4.464  28.575  1.00  0.00    -0.646 OA
HETATM   19  O4  UNL     1      25.167   4.763  27.801  1.00  0.00    -0.646 OA
ENDBRANCH  16  17
BRANCH  16  20
HETATM   20  C8  UNL     1      22.178   3.597  26.151  1.00  0.00     0.169 C 
HETATM   21  N5  UNL     1      21.416   3.554  25.123  1.00  0.00    -0.249 N 
ATOM     22  H5  UNL     1      21.594   4.177  24.335  1.00  0.00     0.196 HD
BRANCH  20  23
HETATM   23  O5  UNL     1      21.992   2.775  27.260  1.00  0.00    -0.346 OA
ATOM     24  H5  UNL     1      22.633   2.834  27.958  1.00  0.00     0.219 HD
ENDBRANCH  20  23
BRANCH  21  25
HETATM   25  O6  UNL     1      20.360   2.674  25.075  1.00  0.00    -0.288 OA
ATOM     26  H6  UNL     1      19.487   2.981  24.862  1.00  0.00     0.244 HD
ENDBRANCH  21  25
ENDBRANCH  16  20
ENDBRANCH  14  16
ENDBRANCH   1  14
BRANCH   2  27
HETATM   27  O2  UNL     1      25.769   5.434  22.213  1.00  0.00    -0.288 OA
ATOM     28  H2  UNL     1      25.956   5.129  21.333  1.00  0.00     0.244 HD
ENDBRANCH   2  27
TORSDOF 9
ENDMDL
MODEL 3
REMARK VINA RESULT: -6.977508021      1.492      2.183
REMARK  9 active torsions:
REMARK  status: ('A' for Active; 'I' for Inactive)
REMARK       I    between atoms: C1_2  and  N1_3 
REMARK    1  A    between atoms: C1_2  and  C5_11 
REMARK    2  A    between atoms: N1_3  and  C2_5 
REMARK    3  A    between atoms: C5_11  and  N4_16 
REMARK    4  A    between atoms: N3_12  and  O2_14 
REMARK    5  A    between atoms: N4_16  and  C6_18 
REMARK    6  A    between atoms: C6_18  and  C7_19 
REMARK    7  A    between atoms: C6_18  and  C8_22 
REMARK    8  A    between atoms: C8_22  and  O5_23 
REMARK    9  A    between atoms: N5_25  and  O6_27 
ROOT
HETATM    1  C5  UNL     1      25.413   4.960  24.520  1.00  0.00     0.191 C 
HETATM    2  N3  UNL     1      26.253   4.125  25.034  1.00  0.00    -0.248 N 
ATOM      3  H3  UNL     1      25.900   3.340  25.582  1.00  0.00     0.196 HD
ENDROOT
BRANCH   1   4
HETATM    4  C1  UNL     1      25.910   6.078  23.740  1.00  0.00     0.293 C 
HETATM    5  O1  UNL     1      26.538   5.855  22.681  1.00  0.00    -0.264 OA
HETATM    6  N1  UNL     1      25.691   7.396  24.163  1.00  0.00    -0.300 N 
ATOM      7  H1  UNL     1      26.302   7.791  24.879  1.00  0.00     0.171 HD
BRANCH   6   8
HETATM    8  C2  UNL     1      24.728   8.141  23.671  1.00  0.00     0.151 A 
HETATM    9  N2  UNL     1      23.787   7.759  22.804  1.00  0.00    -0.346 N 
HETATM   10  C3  UNL     1      22.903   8.630  22.417  1.00  0.00     0.097 A 
ATOM     11  H2  UNL     1      23.763   6.802  22.451  1.00  0.00     0.167 HD
HETATM   12  C4  UNL     1      22.991   9.902  22.930  1.00  0.00     0.070 A 
HETATM   13  S1  UNL     1      24.354   9.777  23.950  1.00  0.00    -0.064 SA
ENDBRANCH   6   8
ENDBRANCH   1   4
BRANCH   1  14
HETATM   14  N4  UNL     1      24.014   4.771  24.729  1.00  0.00    -0.349 N 
ATOM     15  H4  UNL     1      23.408   4.649  23.919  1.00  0.00     0.162 HD
BRANCH  14  16
HETATM   16  C6  UNL     1      23.426   4.747  26.051  1.00  0.00     0.262 C 
BRANCH  16  17
HETATM   17  C7  UNL     1      24.390   4.229  27.054  1.00  0.00     0.205 C 
HETATM   18  O3  UNL     1      24.982   5.006  27.867  1.00  0.00    -0.646 OA
HETATM   19  O4  UNL     1      24.616   2.852  27.065  1.00  0.00    -0.646 OA
ENDBRANCH  16  17
BRANCH  16  20
HETATM   20  C8  UNL     1      22.242   3.846  26.087  1.00  0.00     0.169 C 
HETATM   21  N5  UNL     1      21.538   3.669  25.033  1.00  0.00    -0.249 N 
ATOM     22  H5  UNL     1      21.791   4.148  24.168  1.00  0.00     0.196 HD
BRANCH  20  23
HETATM   23  O5  UNL     1      21.950   3.223  27.299  1.00  0.00    -0.346 OA
ATOM     24  H5  UNL     1      21.571   3.760  27.984  1.00  0.00     0.219 HD
ENDBRANCH  20  23
BRANCH  21  25
HETATM   25  O6  UNL     1      20.442   2.838  25.057  1.00  0.00    -0.288 OA
ATOM     26  H6  UNL     1      20.359   2.132  24.426  1.00  0.00     0.244 HD
ENDBRANCH  21  25
ENDBRANCH  16  20
ENDBRANCH  14  16
ENDBRANCH   1  14
BRANCH   2  27
HETATM   27  O2  UNL     1      27.602   4.264  24.863  1.00  0.00    -0.288 OA
ATOM     28  H2  UNL     1      28.222   3.950  25.509  1.00  0.00     0.244 HD
ENDBRANCH   2  27
TORSDOF 9
ENDMDL
MODEL 4
REMARK VINA RESULT: -6.939741197      1.437      1.691
REMARK  9 active torsions:
REMARK  status: ('A' for Active; 'I' for Inactive)
REMARK       I    between atoms: C1_2  and  N1_3 
REMARK    1  A    between atoms: C1_2  and  C5_11 
REMARK    2  A    between atoms: N1_3  and  C2_5 
REMARK    3  A    between atoms: C5_11  and  N4_16 
REMARK    4  A    between atoms: N3_12  and  O2_14 
REMARK    5  A    between atoms: N4_16  and  C6_18 
REMARK    6  A    between atoms: C6_18  and  C7_19 
REMARK    7  A    between atoms: C6_18  and  C8_22 
REMARK    8  A    between atoms: C8_22  and  O5_23 
REMARK    9  A    between atoms: N5_25  and  O6_27 
ROOT
HETATM    1  C5  UNL     1      24.961   4.938  25.148  1.00  0.00     0.191 C 
HETATM    2  N3  UNL     1      25.910   4.263  25.705  1.00  0.00    -0.248 N 
ATOM      3  H3  UNL     1      25.733   3.803  26.599  1.00  0.00     0.196 HD
ENDROOT
BRANCH   1   4
HETATM    4  C1  UNL     1      25.209   5.593  23.876  1.00  0.00     0.293 C 
HETATM    5  O1  UNL     1      25.163   4.922  22.822  1.00  0.00    -0.264 OA
HETATM    6  N1  UNL     1      25.494   6.965  23.825  1.00  0.00    -0.300 N 
ATOM      7  H1  UNL     1      26.445   7.277  24.024  1.00  0.00     0.171 HD
BRANCH   6   8
HETATM    8  C2  UNL     1      24.581   7.861  23.529  1.00  0.00     0.151 A 
HETATM    9  N2  UNL     1      23.454   7.657  22.844  1.00  0.00    -0.346 N 
HETATM   10  C3  UNL     1      22.656   8.662  22.641  1.00  0.00     0.097 A 
ATOM     11  H2  UNL     1      23.223   6.730  22.488  1.00  0.00     0.167 HD
HETATM   12  C4  UNL     1      23.025   9.885  23.148  1.00  0.00     0.070 A 
HETATM   13  S1  UNL     1      24.514   9.521  23.897  1.00  0.00    -0.064 SA
ENDBRANCH   6   8
ENDBRANCH   1   4
BRANCH   1  14
HETATM   14  N4  UNL     1      23.690   5.030  25.789  1.00  0.00    -0.349 N 
ATOM     15  H4  UNL     1      23.299   5.953  25.975  1.00  0.00     0.162 HD
BRANCH  14  16
HETATM   16  C6  UNL     1      22.938   3.859  26.186  1.00  0.00     0.262 C 
BRANCH  16  17
HETATM   17  C7  UNL     1      21.806   3.613  25.257  1.00  0.00     0.205 C 
HETATM   18  O3  UNL     1      21.407   4.507  24.447  1.00  0.00    -0.646 OA
HETATM   19  O4  UNL     1      21.200   2.357  25.313  1.00  0.00    -0.646 OA
ENDBRANCH  16  17
BRANCH  16  20
HETATM   20  C8  UNL     1      22.350   4.042  27.541  1.00  0.00     0.169 C 
HETATM   21  N5  UNL     1      21.097   3.859  27.727  1.00  0.00    -0.249 N 
ATOM     22  H5  UNL     1      20.503   3.588  26.943  1.00  0.00     0.196 HD
BRANCH  20  23
HETATM   23  O5  UNL     1      23.216   4.411  28.568  1.00  0.00    -0.346 OA
ATOM     24  H5  UNL     1      23.623   3.713  29.067  1.00  0.00     0.219 HD
ENDBRANCH  20  23
BRANCH  21  25
HETATM   25  O6  UNL     1      20.546   4.025  28.977  1.00  0.00    -0.288 OA
ATOM     26  H6  UNL     1      19.611   4.162  29.076  1.00  0.00     0.244 HD
ENDBRANCH  21  25
ENDBRANCH  16  20
ENDBRANCH  14  16
ENDBRANCH   1  14
BRANCH   2  27
HETATM   27  O2  UNL     1      27.145   4.147  25.131  1.00  0.00    -0.288 OA
ATOM     28  H2  UNL     1      27.780   3.510  25.435  1.00  0.00     0.244 HD
ENDBRANCH   2  27
TORSDOF 9
ENDMDL
MODEL 5
REMARK VINA RESULT: -6.682228999      1.293      1.694
REMARK  9 active torsions:
REMARK  status: ('A' for Active; 'I' for Inactive)
REMARK       I    between atoms: C1_2  and  N1_3 
REMARK    1  A    between atoms: C1_2  and  C5_11 
REMARK    2  A    between atoms: N1_3  and  C2_5 
REMARK    3  A    between atoms: C5_11  and  N4_16 
REMARK    4  A    between atoms: N3_12  and  O2_14 
REMARK    5  A    between atoms: N4_16  and  C6_18 
REMARK    6  A    between atoms: C6_18  and  C7_19 
REMARK    7  A    between atoms: C6_18  and  C8_22 
REMARK    8  A    between atoms: C8_22  and  O5_23 
REMARK    9  A    between atoms: N5_25  and  O6_27 
ROOT
HETATM    1  C5  UNL     1      25.201   4.758  24.327  1.00  0.00     0.191 C 
HETATM    2  N3  UNL     1      25.933   3.719  24.551  1.00  0.00    -0.248 N 
ATOM      3  H3  UNL     1      25.515   2.905  25.001  1.00  0.00     0.196 HD
ENDROOT
BRANCH   1   4
HETATM    4  C1  UNL     1      25.792   5.919  23.687  1.00  0.00     0.293 C 
HETATM    5  O1  UNL     1      26.498   5.763  22.666  1.00  0.00    -0.264 OA
HETATM    6  N1  UNL     1      25.576   7.205  24.202  1.00  0.00    -0.300 N 
ATOM      7  H1  UNL     1      26.137   7.517  24.995  1.00  0.00     0.171 HD
BRANCH   6   8
HETATM    8  C2  UNL     1      24.678   8.021  23.699  1.00  0.00     0.151 A 
HETATM    9  N2  UNL     1      23.751   7.723  22.786  1.00  0.00    -0.346 N 
HETATM   10  C3  UNL     1      22.935   8.657  22.397  1.00  0.00     0.097 A 
ATOM     11  H2  UNL     1      23.684   6.781  22.401  1.00  0.00     0.167 HD
HETATM   12  C4  UNL     1      23.078   9.905  22.955  1.00  0.00     0.070 A 
HETATM   13  S1  UNL     1      24.390   9.667  24.019  1.00  0.00    -0.064 SA
ENDBRANCH   6   8
ENDBRANCH   1   4
BRANCH   1  14
HETATM   14  N4  UNL     1      23.827   4.749  24.713  1.00  0.00    -0.349 N 
ATOM     15  H4  UNL     1      23.231   5.525  24.427  1.00  0.00     0.162 HD
BRANCH  14  16
HETATM   16  C6  UNL     1      23.252   3.678  25.497  1.00  0.00     0.262 C 
BRANCH  16  17
HETATM   17  C7  UNL     1      21.802   3.530  25.215  1.00  0.00     0.205 C 
HETATM   18  O3  UNL     1      21.132   4.468  24.680  1.00  0.00    -0.646 OA
HETATM   19  O4  UNL     1      21.208   2.315  25.562  1.00  0.00    -0.646 OA
ENDBRANCH  16  17
BRANCH  16  20
HETATM   20  C8  UNL     1      23.381   3.959  26.953  1.00  0.00     0.169 C 
HETATM   21  N5  UNL     1      24.330   4.705  27.381  1.00  0.00    -0.249 N 
ATOM     22  H5  UNL     1      24.997   5.104  26.721  1.00  0.00     0.196 HD
BRANCH  20  23
HETATM   23  O5  UNL     1      22.437   3.384  27.801  1.00  0.00    -0.346 OA
ATOM     24  H5  UNL     1      22.271   3.820  28.628  1.00  0.00     0.219 HD
ENDBRANCH  20  23
BRANCH  21  25
HETATM   25  O6  UNL     1      24.455   4.970  28.725  1.00  0.00    -0.288 OA
ATOM     26  H6  UNL     1      25.113   5.583  29.035  1.00  0.00     0.244 HD
ENDBRANCH  21  25
ENDBRANCH  16  20
ENDBRANCH  14  16
ENDBRANCH   1  14
BRANCH   2  27
HETATM   27  O2  UNL     1      27.254   3.680  24.200  1.00  0.00    -0.288 OA
ATOM     28  H2  UNL     1      27.815   2.955  24.447  1.00  0.00     0.244 HD
ENDBRANCH   2  27
TORSDOF 9
ENDMDL
