MODEL 1
REMARK VINA RESULT: -7.631108370      0.000      0.000
REMARK  6 active torsions:
REMARK  status: ('A' for Active; 'I' for Inactive)
REMARK    1  A    between atoms: S1_2  and  C2_3 
REMARK    2  A    between atoms: C2_3  and  N2_7 
REMARK    3  A    between atoms: N3_9  and  N4_11 
REMARK    4  A    between atoms: N4_11  and  N5_13 
REMARK       I    between atoms: N5_13  and  C3_15 
REMARK       I    between atoms: C3_15  and  N6_17 
REMARK    5  A    between atoms: N6_17  and  N7_19 
REMARK       I    between atoms: N7_19  and  C4_21 
REMARK    6  A    between atoms: C4_21  and  C5_23 
ROOT
HETATM    1  N5  UNL     1      24.464   5.295  23.680  1.00  0.00    -0.234 N 
ATOM      2  H5  UNL     1      24.491   5.045  22.692  1.00  0.00     0.193 HD
HETATM    3  C3  UNL     1      24.523   6.661  24.058  1.00  0.00     0.354 C 
HETATM    4  O1  UNL     1      24.491   6.921  25.301  1.00  0.00    -0.244 OA
HETATM    5  N6  UNL     1      24.617   7.703  23.097  1.00  0.00    -0.247 N 
ATOM      6  H6  UNL     1      24.643   7.460  22.107  1.00  0.00     0.192 HD
ENDROOT
BRANCH   1   7
HETATM    7  N4  UNL     1      24.369   4.292  24.640  1.00  0.00    -0.224 N 
ATOM      8  H4  UNL     1      23.546   3.692  24.705  1.00  0.00     0.210 HD
BRANCH   7   9
HETATM    9  N3  UNL     1      25.448   4.144  25.507  1.00  0.00    -0.226 N 
HETATM   10  N2  UNL     1      25.269   4.251  26.744  1.00  0.00    -0.265 N 
ATOM     11  H2  UNL     1      26.082   4.136  27.350  1.00  0.00     0.190 HD
ATOM     12  H3  UNL     1      26.379   3.951  25.138  1.00  0.00     0.210 HD
BRANCH  10  13
HETATM   13  C2  UNL     1      24.034   4.517  27.361  1.00  0.00     0.153 C 
HETATM   14  N1  UNL     1      23.976   5.453  28.241  1.00  0.00    -0.379 N 
ATOM     15  H12 UNL     1      23.080   5.646  28.688  1.00  0.00     0.158 HD
ATOM     16  H11 UNL     1      24.793   6.005  28.504  1.00  0.00     0.158 HD
BRANCH  13  17
HETATM   17  S1  UNL     1      22.610   3.555  26.903  1.00  0.00    -0.098 SA
HETATM   18  C1  UNL     1      21.283   3.935  28.081  1.00  0.00     0.099 C 
ENDBRANCH  13  17
ENDBRANCH  10  13
ENDBRANCH   7   9
ENDBRANCH   1   7
BRANCH   5  19
HETATM   19  N7  UNL     1      24.676   9.046  23.462  1.00  0.00    -0.262 N 
HETATM   20  C4  UNL     1      23.674   9.972  23.086  1.00  0.00     0.270 C 
HETATM   21  O2  UNL     1      22.710   9.561  22.404  1.00  0.00    -0.266 OA
ATOM     22  H7  UNL     1      25.467   9.373  24.018  1.00  0.00     0.190 HD
BRANCH  20  23
HETATM   23  C5  UNL     1      23.779  11.356  23.490  1.00  0.00     0.036 A 
HETATM   24  C6  UNL     1      23.084  12.292  22.764  1.00  0.00     0.034 A 
HETATM   25  C7  UNL     1      23.165  13.616  23.127  1.00  0.00     0.088 A 
HETATM   26  N8  UNL     1      23.918  13.974  24.179  1.00  0.00    -0.375 N 
HETATM   27  C8  UNL     1      24.609  13.091  24.911  1.00  0.00     0.088 A 
ATOM     28  H8  UNL     1      23.966  14.960  24.431  1.00  0.00     0.164 HD
HETATM   29  C9  UNL     1      24.537  11.753  24.556  1.00  0.00     0.034 A 
ENDBRANCH  20  23
ENDBRANCH   5  19
TORSDOF 6
ENDMDL
MODEL 2
REMARK VINA RESULT: -7.578724661      0.102      1.060
REMARK  6 active torsions:
REMARK  status: ('A' for Active; 'I' for Inactive)
REMARK    1  A    between atoms: S1_2  and  C2_3 
REMARK    2  A    between atoms: C2_3  and  N2_7 
REMARK    3  A    between atoms: N3_9  and  N4_11 
REMARK    4  A    between atoms: N4_11  and  N5_13 
REMARK       I    between atoms: N5_13  and  C3_15 
REMARK       I    between atoms: C3_15  and  N6_17 
REMARK    5  A    between atoms: N6_17  and  N7_19 
REMARK       I    between atoms: N7_19  and  C4_21 
REMARK    6  A    between atoms: C4_21  and  C5_23 
ROOT
HETATM    1  N5  UNL     1      24.547   5.251  23.691  1.00  0.00    -0.234 N 
ATOM      2  H5  UNL     1      24.581   4.979  22.709  1.00  0.00     0.193 HD
HETATM    3  C3  UNL     1      24.579   6.626  24.037  1.00  0.00     0.354 C 
HETATM    4  O1  UNL     1      24.538   6.914  25.273  1.00  0.00    -0.244 OA
HETATM    5  N6  UNL     1      24.655   7.647  23.052  1.00  0.00    -0.247 N 
ATOM      6  H6  UNL     1      24.688   7.381  22.067  1.00  0.00     0.192 HD
ENDROOT
BRANCH   1   7
HETATM    7  N4  UNL     1      24.468   4.269  24.674  1.00  0.00    -0.224 N 
ATOM      8  H4  UNL     1      23.673   3.633  24.731  1.00  0.00     0.210 HD
BRANCH   7   9
HETATM    9  N3  UNL     1      25.527   4.194  25.575  1.00  0.00    -0.226 N 
HETATM   10  N2  UNL     1      25.306   4.330  26.803  1.00  0.00    -0.265 N 
ATOM     11  H2  UNL     1      26.104   4.268  27.435  1.00  0.00     0.190 HD
ATOM     12  H3  UNL     1      26.476   4.029  25.239  1.00  0.00     0.210 HD
BRANCH  10  13
HETATM   13  C2  UNL     1      24.043   4.562  27.375  1.00  0.00     0.153 C 
HETATM   14  N1  UNL     1      23.918   5.526  28.218  1.00  0.00    -0.379 N 
ATOM     15  H12 UNL     1      23.002   5.694  28.633  1.00  0.00     0.158 HD
ATOM     16  H11 UNL     1      24.702   6.122  28.483  1.00  0.00     0.158 HD
BRANCH  13  17
HETATM   17  S1  UNL     1      22.676   3.522  26.914  1.00  0.00    -0.098 SA
HETATM   18  C1  UNL     1      21.309   3.863  28.057  1.00  0.00     0.099 C 
ENDBRANCH  13  17
ENDBRANCH  10  13
ENDBRANCH   7   9
ENDBRANCH   1   7
BRANCH   5  19
HETATM   19  N7  UNL     1      24.688   8.999  23.385  1.00  0.00    -0.262 N 
HETATM   20  C4  UNL     1      23.646   9.888  23.026  1.00  0.00     0.270 C 
HETATM   21  O2  UNL     1      22.670   9.433  22.387  1.00  0.00    -0.266 OA
ATOM     22  H7  UNL     1      25.488   9.361  23.905  1.00  0.00     0.190 HD
BRANCH  20  23
HETATM   23  C5  UNL     1      23.724  11.282  23.396  1.00  0.00     0.036 A 
HETATM   24  C6  UNL     1      24.516  11.620  24.467  1.00  0.00     0.034 A 
HETATM   25  C7  UNL     1      24.608  12.940  24.840  1.00  0.00     0.088 A 
HETATM   26  N8  UNL     1      23.929  13.875  24.158  1.00  0.00    -0.375 N 
HETATM   27  C8  UNL     1      23.148  13.586  23.110  1.00  0.00     0.088 A 
ATOM     28  H8  UNL     1      24.011  14.848  24.452  1.00  0.00     0.164 HD
HETATM   29  C9  UNL     1      23.044  12.259  22.723  1.00  0.00     0.034 A 
ENDBRANCH  20  23
ENDBRANCH   5  19
TORSDOF 6
ENDMDL
MODEL 3
REMARK VINA RESULT: -7.439854296      1.140      1.662
REMARK  6 active torsions:
REMARK  status: ('A' for Active; 'I' for Inactive)
REMARK    1  A    between atoms: S1_2  and  C2_3 
REMARK    2  A    between atoms: C2_3  and  N2_7 
REMARK    3  A    between atoms: N3_9  and  N4_11 
REMARK    4  A    between atoms: N4_11  and  N5_13 
REMARK       I    between atoms: N5_13  and  C3_15 
REMARK       I    between atoms: C3_15  and  N6_17 
REMARK    5  A    between atoms: N6_17  and  N7_19 
REMARK       I    between atoms: N7_19  and  C4_21 
REMARK    6  A    between atoms: C4_21  and  C5_23 
ROOT
HETATM    1  N5  UNL     1      24.338   6.552  24.091  1.00  0.00    -0.234 N 
ATOM      2  H5  UNL     1      24.804   6.243  23.238  1.00  0.00     0.193 HD
HETATM    3  C3  UNL     1      24.297   7.935  24.403  1.00  0.00     0.354 C 
HETATM    4  O1  UNL     1      23.709   8.270  25.478  1.00  0.00    -0.244 OA
HETATM    5  N6  UNL     1      24.886   8.914  23.558  1.00  0.00    -0.247 N 
ATOM      6  H6  UNL     1      25.351   8.611  22.702  1.00  0.00     0.192 HD
ENDROOT
BRANCH   1   7
HETATM    7  N4  UNL     1      23.751   5.612  24.933  1.00  0.00    -0.224 N 
ATOM      8  H4  UNL     1      22.877   5.805  25.421  1.00  0.00     0.210 HD
BRANCH   7   9
HETATM    9  N3  UNL     1      24.414   4.396  25.078  1.00  0.00    -0.226 N 
HETATM   10  N2  UNL     1      24.327   3.768  26.161  1.00  0.00    -0.265 N 
ATOM     11  H2  UNL     1      24.824   2.880  26.232  1.00  0.00     0.190 HD
ATOM     12  H3  UNL     1      24.966   4.018  24.308  1.00  0.00     0.210 HD
BRANCH  10  13
HETATM   13  C2  UNL     1      23.598   4.195  27.285  1.00  0.00     0.153 C 
HETATM   14  N1  UNL     1      24.197   4.912  28.170  1.00  0.00    -0.379 N 
ATOM     15  H12 UNL     1      23.668   5.221  28.985  1.00  0.00     0.158 HD
ATOM     16  H11 UNL     1      25.178   5.178  28.081  1.00  0.00     0.158 HD
BRANCH  13  17
HETATM   17  S1  UNL     1      21.888   3.730  27.439  1.00  0.00    -0.098 SA
HETATM   18  C1  UNL     1      21.338   3.104  25.827  1.00  0.00     0.099 C 
ENDBRANCH  13  17
ENDBRANCH  10  13
ENDBRANCH   7   9
ENDBRANCH   1   7
BRANCH   5  19
HETATM   19  N7  UNL     1      24.848  10.274  23.859  1.00  0.00    -0.262 N 
HETATM   20  C4  UNL     1      23.811  11.118  23.397  1.00  0.00     0.270 C 
HETATM   21  O2  UNL     1      22.903  10.617  22.696  1.00  0.00    -0.266 OA
ATOM     22  H7  UNL     1      25.593  10.674  24.430  1.00  0.00     0.190 HD
BRANCH  20  23
HETATM   23  C5  UNL     1      23.815  12.522  23.737  1.00  0.00     0.036 A 
HETATM   24  C6  UNL     1      24.534  12.915  24.839  1.00  0.00     0.034 A 
HETATM   25  C7  UNL     1      24.556  14.246  25.185  1.00  0.00     0.088 A 
HETATM   26  N8  UNL     1      23.877  15.138  24.446  1.00  0.00    -0.375 N 
HETATM   27  C8  UNL     1      23.165  14.794  23.365  1.00  0.00     0.088 A 
ATOM     28  H8  UNL     1      23.906  16.119  24.719  1.00  0.00     0.164 HD
HETATM   29  C9  UNL     1      23.134  13.456  23.006  1.00  0.00     0.034 A 
ENDBRANCH  20  23
ENDBRANCH   5  19
TORSDOF 6
ENDMDL
MODEL 4
REMARK VINA RESULT: -7.347974436      1.511      2.042
REMARK  6 active torsions:
REMARK  status: ('A' for Active; 'I' for Inactive)
REMARK    1  A    between atoms: S1_2  and  C2_3 
REMARK    2  A    between atoms: C2_3  and  N2_7 
REMARK    3  A    between atoms: N3_9  and  N4_11 
REMARK    4  A    between atoms: N4_11  and  N5_13 
REMARK       I    between atoms: N5_13  and  C3_15 
REMARK       I    between atoms: C3_15  and  N6_17 
REMARK    5  A    between atoms: N6_17  and  N7_19 
REMARK       I    between atoms: N7_19  and  C4_21 
REMARK    6  A    between atoms: C4_21  and  C5_23 
ROOT
HETATM    1  N5  UNL     1      24.119   7.040  23.788  1.00  0.00    -0.234 N 
ATOM      2  H5  UNL     1      24.267   6.727  22.829  1.00  0.00     0.193 HD
HETATM    3  C3  UNL     1      23.808   8.400  24.040  1.00  0.00     0.354 C 
HETATM    4  O1  UNL     1      23.637   8.741  25.252  1.00  0.00    -0.244 OA
HETATM    5  N6  UNL     1      23.691   9.351  22.991  1.00  0.00    -0.247 N 
ATOM      6  H6  UNL     1      23.836   9.044  22.029  1.00  0.00     0.192 HD
ENDROOT
BRANCH   1   7
HETATM    7  N4  UNL     1      24.225   6.126  24.832  1.00  0.00    -0.224 N 
ATOM      8  H4  UNL     1      23.424   5.888  25.417  1.00  0.00     0.210 HD
BRANCH   7   9
HETATM    9  N3  UNL     1      25.475   5.550  25.042  1.00  0.00    -0.226 N 
HETATM   10  N2  UNL     1      25.667   4.834  26.054  1.00  0.00    -0.265 N 
ATOM     11  H2  UNL     1      26.594   4.427  26.175  1.00  0.00     0.190 HD
ATOM     12  H3  UNL     1      26.231   5.711  24.376  1.00  0.00     0.210 HD
BRANCH  10  13
HETATM   13  C2  UNL     1      24.700   4.548  27.035  1.00  0.00     0.153 C 
HETATM   14  N1  UNL     1      24.880   5.002  28.225  1.00  0.00    -0.379 N 
ATOM     15  H12 UNL     1      24.179   4.795  28.936  1.00  0.00     0.158 HD
ATOM     16  H11 UNL     1      25.697   5.560  28.477  1.00  0.00     0.158 HD
BRANCH  13  17
HETATM   17  S1  UNL     1      23.277   3.577  26.595  1.00  0.00    -0.098 SA
HETATM   18  C1  UNL     1      21.974   3.922  27.809  1.00  0.00     0.099 C 
ENDBRANCH  13  17
ENDBRANCH  10  13
ENDBRANCH   7   9
ENDBRANCH   1   7
BRANCH   5  19
HETATM   19  N7  UNL     1      23.386  10.689  23.233  1.00  0.00    -0.262 N 
HETATM   20  C4  UNL     1      24.370  11.624  23.634  1.00  0.00     0.270 C 
HETATM   21  O2  UNL     1      25.547  11.226  23.774  1.00  0.00    -0.266 OA
ATOM     22  H7  UNL     1      22.423  11.005  23.117  1.00  0.00     0.190 HD
BRANCH  20  23
HETATM   23  C5  UNL     1      24.004  13.002  23.871  1.00  0.00     0.036 A 
HETATM   24  C6  UNL     1      24.524  13.624  24.980  1.00  0.00     0.034 A 
HETATM   25  C7  UNL     1      24.194  14.934  25.230  1.00  0.00     0.088 A 
HETATM   26  N8  UNL     1      23.372  15.586  24.392  1.00  0.00    -0.375 N 
HETATM   27  C8  UNL     1      22.846  15.015  23.301  1.00  0.00     0.088 A 
ATOM     28  H8  UNL     1      23.139  16.557  24.595  1.00  0.00     0.164 HD
HETATM   29  C9  UNL     1      23.170  13.694  23.038  1.00  0.00     0.034 A 
ENDBRANCH  20  23
ENDBRANCH   5  19
TORSDOF 6
ENDMDL
MODEL 5
REMARK VINA RESULT: -7.040279000      2.132      2.948
REMARK  6 active torsions:
REMARK  status: ('A' for Active; 'I' for Inactive)
REMARK    1  A    between atoms: S1_2  and  C2_3 
REMARK    2  A    between atoms: C2_3  and  N2_7 
REMARK    3  A    between atoms: N3_9  and  N4_11 
REMARK    4  A    between atoms: N4_11  and  N5_13 
REMARK       I    between atoms: N5_13  and  C3_15 
REMARK       I    between atoms: C3_15  and  N6_17 
REMARK    5  A    between atoms: N6_17  and  N7_19 
REMARK       I    between atoms: N7_19  and  C4_21 
REMARK    6  A    between atoms: C4_21  and  C5_23 
ROOT
HETATM    1  N5  UNL     1      24.226   7.498  22.798  1.00  0.00    -0.234 N 
ATOM      2  H5  UNL     1      23.997   7.475  21.804  1.00  0.00     0.193 HD
HETATM    3  C3  UNL     1      24.144   8.723  23.507  1.00  0.00     0.354 C 
HETATM    4  O1  UNL     1      24.443   8.701  24.741  1.00  0.00    -0.244 OA
HETATM    5  N6  UNL     1      23.747   9.932  22.874  1.00  0.00    -0.247 N 
ATOM      6  H6  UNL     1      23.515   9.916  21.881  1.00  0.00     0.192 HD
ENDROOT
BRANCH   1   7
HETATM    7  N4  UNL     1      24.614   6.326  23.440  1.00  0.00    -0.224 N 
ATOM      8  H4  UNL     1      24.481   6.198  24.443  1.00  0.00     0.210 HD
BRANCH   7   9
HETATM    9  N3  UNL     1      25.192   5.336  22.649  1.00  0.00    -0.226 N 
HETATM   10  N2  UNL     1      25.844   4.411  23.192  1.00  0.00    -0.265 N 
ATOM     11  H2  UNL     1      26.253   3.702  22.583  1.00  0.00     0.190 HD
ATOM     12  H3  UNL     1      25.086   5.363  21.635  1.00  0.00     0.210 HD
BRANCH  10  13
HETATM   13  C2  UNL     1      26.055   4.276  24.576  1.00  0.00     0.153 C 
HETATM   14  N1  UNL     1      27.232   4.503  25.042  1.00  0.00    -0.379 N 
ATOM     15  H12 UNL     1      27.385   4.405  26.046  1.00  0.00     0.158 HD
ATOM     16  H11 UNL     1      28.012   4.775  24.443  1.00  0.00     0.158 HD
BRANCH  13  17
HETATM   17  S1  UNL     1      24.696   3.802  25.619  1.00  0.00    -0.098 SA
HETATM   18  C1  UNL     1      24.738   4.854  27.097  1.00  0.00     0.099 C 
ENDBRANCH  13  17
ENDBRANCH  10  13
ENDBRANCH   7   9
ENDBRANCH   1   7
BRANCH   5  19
HETATM   19  N7  UNL     1      23.664  11.139  23.565  1.00  0.00    -0.262 N 
HETATM   20  C4  UNL     1      23.773  12.389  22.910  1.00  0.00     0.270 C 
HETATM   21  O2  UNL     1      23.950  12.399  21.672  1.00  0.00    -0.266 OA
ATOM     22  H7  UNL     1      23.521  11.122  24.575  1.00  0.00     0.190 HD
BRANCH  20  23
HETATM   23  C5  UNL     1      23.680  13.615  23.670  1.00  0.00     0.036 A 
HETATM   24  C6  UNL     1      24.422  13.716  24.822  1.00  0.00     0.034 A 
HETATM   25  C7  UNL     1      24.353  14.871  25.564  1.00  0.00     0.088 A 
HETATM   26  N8  UNL     1      23.565  15.879  25.156  1.00  0.00    -0.375 N 
HETATM   27  C8  UNL     1      22.827  15.818  24.041  1.00  0.00     0.088 A 
ATOM     28  H8  UNL     1      23.527  16.727  25.721  1.00  0.00     0.164 HD
HETATM   29  C9  UNL     1      22.887  14.659  23.284  1.00  0.00     0.034 A 
ENDBRANCH  20  23
ENDBRANCH   5  19
TORSDOF 6
ENDMDL
