MODEL 1
REMARK VINA RESULT: -8.529110677      0.000      0.000
REMARK  16 active torsions:
REMARK  status: ('A' for Active; 'I' for Inactive)
REMARK    1  A    between atoms: C2_2  and  C3_3 
REMARK    2  A    between atoms: C3_3  and  C5_5 
REMARK    3  A    between atoms: C11_16  and  C12_17 
REMARK    4  A    between atoms: C12_17  and  C13_18 
REMARK    5  A    between atoms: C14_19  and  C16_21 
REMARK    6  A    between atoms: C20_27  and  C21_28 
REMARK    7  A    between atoms: C21_28  and  C24_31 
REMARK    8  A    between atoms: C24_31  and  N2_32 
REMARK    9  A    between atoms: N2_32  and  C25_35 
REMARK   10  A    between atoms: C25_35  and  C26_36 
REMARK   11  A    between atoms: C26_36  and  C27_37 
REMARK   12  A    between atoms: C27_37  and  C28_38 
REMARK   13  A    between atoms: C28_38  and  C29_39 
REMARK   14  A    between atoms: C29_39  and  N3_40 
REMARK       I    between atoms: N3_40  and  C30_42 
REMARK   15  A    between atoms: C30_42  and  O7_44 
REMARK   16  A    between atoms: O7_44  and  C31_45 
ROOT
HETATM    1  C16 UNL     1     -10.557  15.336  27.001  1.00  0.00     0.183 C 
HETATM    2  O4  UNL     1     -10.534  14.834  25.670  1.00  0.00    -0.344 OA
HETATM    3  C17 UNL     1      -9.359  15.254  25.103  1.00  0.00     0.158 C 
HETATM    4  C18 UNL     1      -9.592  15.644  23.654  1.00  0.00     0.078 C 
HETATM    5  C19 UNL     1      -8.276  14.194  25.107  1.00  0.00     0.078 C 
HETATM    6  O5  UNL     1      -8.963  16.394  25.786  1.00  0.00    -0.347 OA
HETATM    7  C20 UNL     1      -9.365  16.155  27.140  1.00  0.00     0.168 C 
ENDROOT
BRANCH   1   8
HETATM    8  C14 UNL     1     -10.907  14.250  27.902  1.00  0.00    -0.056 C 
HETATM    9  C13 UNL     1     -10.710  13.983  29.131  1.00  0.00    -0.019 C 
HETATM   10  C15 UNL     1     -11.716  13.161  27.133  1.00  0.00     0.046 C 
BRANCH   9  11
HETATM   11  C12 UNL     1     -10.053  14.609  30.270  1.00  0.00     0.068 C 
BRANCH  11  12
HETATM   12  C11 UNL     1     -11.047  15.387  31.150  1.00  0.00     0.213 C 
HETATM   13  C10 UNL     1     -10.226  16.020  32.209  1.00  0.00     0.225 C 
HETATM   14  C9  UNL     1     -10.488  16.083  33.610  1.00  0.00     0.210 C 
HETATM   15  O3  UNL     1      -9.148  16.574  31.781  1.00  0.00    -0.286 OA
HETATM   16  C7  UNL     1     -10.884  14.974  34.511  1.00  0.00     0.151 C 
HETATM   17  O2  UNL     1     -10.374  17.220  34.193  1.00  0.00    -0.288 OA
HETATM   18  C6  UNL     1     -10.765  13.638  33.903  1.00  0.00     0.229 C 
HETATM   19  C8  UNL     1     -10.059  15.009  35.797  1.00  0.00     0.028 C 
HETATM   20  N1  UNL     1     -11.870  12.812  33.576  1.00  0.00    -0.346 N 
HETATM   21  O1  UNL     1      -9.620  13.185  33.651  1.00  0.00    -0.273 OA
HETATM   22  C5  UNL     1     -13.156  13.331  33.285  1.00  0.00     0.188 C 
ATOM     23  H1  UNL     1     -11.733  11.802  33.548  1.00  0.00     0.163 HD
HETATM   24  C35 UNL     1     -13.081  14.602  32.459  1.00  0.00     0.282 C 
HETATM   25  O8  UNL     1     -12.137  14.680  31.526  1.00  0.00    -0.306 OA
HETATM   26  O9  UNL     1     -13.977  15.422  32.811  1.00  0.00    -0.263 OA
BRANCH  22  27
HETATM   27  C3  UNL     1     -14.125  12.411  32.646  1.00  0.00     0.014 C 
HETATM   28  C4  UNL     1     -14.935  11.604  33.672  1.00  0.00     0.012 C 
BRANCH  27  29
HETATM   29  C2  UNL     1     -13.625  11.467  31.621  1.00  0.00     0.002 C 
HETATM   30  C1  UNL     1     -13.846  11.865  30.187  1.00  0.00     0.005 C 
ENDBRANCH  27  29
ENDBRANCH  22  27
ENDBRANCH  11  12
ENDBRANCH   9  11
ENDBRANCH   1   8
BRANCH   7  31
HETATM   31  C21 UNL     1      -9.654  17.579  27.641  1.00  0.00     0.005 C 
HETATM   32  C22 UNL     1      -9.653  18.546  26.468  1.00  0.00     0.019 C 
HETATM   33  C23 UNL     1     -10.997  17.659  28.274  1.00  0.00     0.019 C 
BRANCH  31  34
HETATM   34  C24 UNL     1      -8.545  18.002  28.569  1.00  0.00     0.243 C 
BRANCH  34  35
HETATM   35  N2  UNL     1      -7.368  18.432  27.861  1.00  0.00    -0.074 N 
ATOM     36  H22 UNL     1      -7.532  18.420  26.854  1.00  0.00     0.277 HD
ATOM     37  H21 UNL     1      -7.212  19.431  27.998  1.00  0.00     0.277 HD
BRANCH  35  38
HETATM   38  C25 UNL     1      -6.186  17.685  28.191  1.00  0.00     0.232 C 
BRANCH  38  39
HETATM   39  C26 UNL     1      -5.844  16.605  27.205  1.00  0.00     0.027 C 
BRANCH  39  40
HETATM   40  C27 UNL     1      -4.767  16.966  26.239  1.00  0.00     0.003 C 
BRANCH  40  41
HETATM   41  C28 UNL     1      -5.221  17.116  24.818  1.00  0.00     0.020 C 
BRANCH  41  42
HETATM   42  C29 UNL     1      -6.140  18.285  24.590  1.00  0.00     0.125 C 
BRANCH  42  43
HETATM   43  N3  UNL     1      -7.131  17.996  23.567  1.00  0.00    -0.337 N 
HETATM   44  C30 UNL     1      -7.017  18.481  22.245  1.00  0.00     0.361 C 
HETATM   45  O6  UNL     1      -6.065  19.193  21.837  1.00  0.00    -0.238 OA
ATOM     46  H3  UNL     1      -7.939  17.424  23.813  1.00  0.00     0.164 HD
BRANCH  44  47
HETATM   47  O7  UNL     1      -8.006  18.161  21.330  1.00  0.00    -0.294 OA
BRANCH  47  48
HETATM   48  C31 UNL     1      -7.811  17.187  20.352  1.00  0.00     0.061 C 
HETATM   49  C32 UNL     1      -7.023  15.989  20.859  1.00  0.00     0.046 C 
HETATM   50  C33 UNL     1      -9.178  16.673  19.939  1.00  0.00     0.046 C 
HETATM   51  C34 UNL     1      -7.103  17.805  19.158  1.00  0.00     0.046 C 
ENDBRANCH  47  48
ENDBRANCH  44  47
ENDBRANCH  42  43
ENDBRANCH  41  42
ENDBRANCH  40  41
ENDBRANCH  39  40
ENDBRANCH  38  39
ENDBRANCH  35  38
ENDBRANCH  34  35
ENDBRANCH  31  34
ENDBRANCH   7  31
TORSDOF 16
ENDMDL
MODEL 2
REMARK VINA RESULT: -8.323197241      1.980     11.050
REMARK  16 active torsions:
REMARK  status: ('A' for Active; 'I' for Inactive)
REMARK    1  A    between atoms: C2_2  and  C3_3 
REMARK    2  A    between atoms: C3_3  and  C5_5 
REMARK    3  A    between atoms: C11_16  and  C12_17 
REMARK    4  A    between atoms: C12_17  and  C13_18 
REMARK    5  A    between atoms: C14_19  and  C16_21 
REMARK    6  A    between atoms: C20_27  and  C21_28 
REMARK    7  A    between atoms: C21_28  and  C24_31 
REMARK    8  A    between atoms: C24_31  and  N2_32 
REMARK    9  A    between atoms: N2_32  and  C25_35 
REMARK   10  A    between atoms: C25_35  and  C26_36 
REMARK   11  A    between atoms: C26_36  and  C27_37 
REMARK   12  A    between atoms: C27_37  and  C28_38 
REMARK   13  A    between atoms: C28_38  and  C29_39 
REMARK   14  A    between atoms: C29_39  and  N3_40 
REMARK       I    between atoms: N3_40  and  C30_42 
REMARK   15  A    between atoms: C30_42  and  O7_44 
REMARK   16  A    between atoms: O7_44  and  C31_45 
ROOT
HETATM    1  C16 UNL     1      -9.002  16.713  26.570  1.00  0.00     0.183 C 
HETATM    2  O4  UNL     1      -7.944  17.595  26.212  1.00  0.00    -0.344 OA
HETATM    3  C17 UNL     1      -7.118  17.695  27.300  1.00  0.00     0.158 C 
HETATM    4  C18 UNL     1      -6.626  19.123  27.449  1.00  0.00     0.078 C 
HETATM    5  C19 UNL     1      -5.891  16.811  27.209  1.00  0.00     0.078 C 
HETATM    6  O5  UNL     1      -7.883  17.396  28.419  1.00  0.00    -0.347 OA
HETATM    7  C20 UNL     1      -8.790  16.383  27.969  1.00  0.00     0.168 C 
ENDROOT
BRANCH   1   8
HETATM    8  C14 UNL     1      -9.161  15.724  25.517  1.00  0.00    -0.056 C 
HETATM    9  C13 UNL     1      -8.542  15.423  24.446  1.00  0.00    -0.019 C 
HETATM   10  C15 UNL     1     -10.414  14.840  25.800  1.00  0.00     0.046 C 
BRANCH   9  11
HETATM   11  C12 UNL     1      -7.366  15.888  23.722  1.00  0.00     0.068 C 
BRANCH  11  12
HETATM   12  C11 UNL     1      -7.621  17.228  23.011  1.00  0.00     0.213 C 
HETATM   13  C10 UNL     1      -8.121  16.870  21.663  1.00  0.00     0.225 C 
HETATM   14  C9  UNL     1      -7.742  17.424  20.404  1.00  0.00     0.210 C 
HETATM   15  O3  UNL     1      -9.008  15.940  21.658  1.00  0.00    -0.286 OA
HETATM   16  C7  UNL     1      -6.370  17.654  19.889  1.00  0.00     0.151 C 
HETATM   17  O2  UNL     1      -8.674  17.776  19.596  1.00  0.00    -0.288 OA
HETATM   18  C6  UNL     1      -5.315  17.021  20.697  1.00  0.00     0.229 C 
HETATM   19  C8  UNL     1      -6.252  17.163  18.447  1.00  0.00     0.028 C 
HETATM   20  N1  UNL     1      -4.370  17.738  21.474  1.00  0.00    -0.346 N 
HETATM   21  O1  UNL     1      -5.229  15.767  20.712  1.00  0.00    -0.273 OA
HETATM   22  C5  UNL     1      -4.629  19.030  21.995  1.00  0.00     0.188 C 
ATOM     23  H1  UNL     1      -3.466  17.306  21.666  1.00  0.00     0.163 HD
HETATM   24  C35 UNL     1      -6.056  19.164  22.496  1.00  0.00     0.282 C 
HETATM   25  O8  UNL     1      -6.602  18.113  23.099  1.00  0.00    -0.306 OA
HETATM   26  O9  UNL     1      -6.516  20.316  22.245  1.00  0.00    -0.263 OA
BRANCH  22  27
HETATM   27  C3  UNL     1      -3.713  19.528  23.047  1.00  0.00     0.014 C 
HETATM   28  C4  UNL     1      -2.234  19.374  22.661  1.00  0.00     0.012 C 
BRANCH  27  29
HETATM   29  C2  UNL     1      -3.878  19.010  24.424  1.00  0.00     0.002 C 
HETATM   30  C1  UNL     1      -3.146  17.735  24.746  1.00  0.00     0.005 C 
ENDBRANCH  27  29
ENDBRANCH  22  27
ENDBRANCH  11  12
ENDBRANCH   9  11
ENDBRANCH   1   8
BRANCH   7  31
HETATM   31  C21 UNL     1     -10.019  16.644  28.854  1.00  0.00     0.005 C 
HETATM   32  C22 UNL     1      -9.576  17.179  30.206  1.00  0.00     0.019 C 
HETATM   33  C23 UNL     1     -10.906  17.671  28.245  1.00  0.00     0.019 C 
BRANCH  31  34
HETATM   34  C24 UNL     1     -10.726  15.335  29.101  1.00  0.00     0.243 C 
BRANCH  34  35
HETATM   35  N2  UNL     1     -12.155  15.487  29.173  1.00  0.00    -0.074 N 
ATOM     36  H22 UNL     1     -12.449  15.667  30.133  1.00  0.00     0.277 HD
ATOM     37  H21 UNL     1     -12.445  16.363  28.738  1.00  0.00     0.277 HD
BRANCH  35  38
HETATM   38  C25 UNL     1     -12.886  14.381  28.619  1.00  0.00     0.232 C 
BRANCH  38  39
HETATM   39  C26 UNL     1     -12.130  13.083  28.616  1.00  0.00     0.027 C 
BRANCH  39  40
HETATM   40  C27 UNL     1     -12.631  12.072  29.592  1.00  0.00     0.003 C 
BRANCH  40  41
HETATM   41  C28 UNL     1     -13.767  12.538  30.453  1.00  0.00     0.020 C 
BRANCH  41  42
HETATM   42  C29 UNL     1     -13.411  12.681  31.907  1.00  0.00     0.125 C 
BRANCH  42  43
HETATM   43  N3  UNL     1     -12.234  13.514  32.093  1.00  0.00    -0.337 N 
HETATM   44  C30 UNL     1     -12.297  14.790  32.696  1.00  0.00     0.361 C 
HETATM   45  O6  UNL     1     -13.357  15.314  33.121  1.00  0.00    -0.238 OA
ATOM     46  H3  UNL     1     -11.329  13.164  31.775  1.00  0.00     0.164 HD
BRANCH  44  47
HETATM   47  O7  UNL     1     -11.129  15.520  32.835  1.00  0.00    -0.294 OA
BRANCH  47  48
HETATM   48  C31 UNL     1     -10.130  15.140  33.729  1.00  0.00     0.061 C 
HETATM   49  C32 UNL     1     -10.547  13.984  34.624  1.00  0.00     0.046 C 
HETATM   50  C33 UNL     1      -8.943  14.662  32.914  1.00  0.00     0.046 C 
HETATM   51  C34 UNL     1      -9.732  16.335  34.579  1.00  0.00     0.046 C 
ENDBRANCH  47  48
ENDBRANCH  44  47
ENDBRANCH  42  43
ENDBRANCH  41  42
ENDBRANCH  40  41
ENDBRANCH  39  40
ENDBRANCH  38  39
ENDBRANCH  35  38
ENDBRANCH  34  35
ENDBRANCH  31  34
ENDBRANCH   7  31
TORSDOF 16
ENDMDL
MODEL 3
REMARK VINA RESULT: -8.283111942      1.473      2.346
REMARK  16 active torsions:
REMARK  status: ('A' for Active; 'I' for Inactive)
REMARK    1  A    between atoms: C2_2  and  C3_3 
REMARK    2  A    between atoms: C3_3  and  C5_5 
REMARK    3  A    between atoms: C11_16  and  C12_17 
REMARK    4  A    between atoms: C12_17  and  C13_18 
REMARK    5  A    between atoms: C14_19  and  C16_21 
REMARK    6  A    between atoms: C20_27  and  C21_28 
REMARK    7  A    between atoms: C21_28  and  C24_31 
REMARK    8  A    between atoms: C24_31  and  N2_32 
REMARK    9  A    between atoms: N2_32  and  C25_35 
REMARK   10  A    between atoms: C25_35  and  C26_36 
REMARK   11  A    between atoms: C26_36  and  C27_37 
REMARK   12  A    between atoms: C27_37  and  C28_38 
REMARK   13  A    between atoms: C28_38  and  C29_39 
REMARK   14  A    between atoms: C29_39  and  N3_40 
REMARK       I    between atoms: N3_40  and  C30_42 
REMARK   15  A    between atoms: C30_42  and  O7_44 
REMARK   16  A    between atoms: O7_44  and  C31_45 
ROOT
HETATM    1  C16 UNL     1      -9.750  16.226  28.123  1.00  0.00     0.183 C 
HETATM    2  O4  UNL     1     -11.011  15.771  28.600  1.00  0.00    -0.344 OA
HETATM    3  C17 UNL     1     -11.602  15.078  27.576  1.00  0.00     0.158 C 
HETATM    4  C18 UNL     1     -13.091  15.372  27.542  1.00  0.00     0.078 C 
HETATM    5  C19 UNL     1     -11.450  13.576  27.699  1.00  0.00     0.078 C 
HETATM    6  O5  UNL     1     -11.053  15.554  26.394  1.00  0.00    -0.347 OA
HETATM    7  C20 UNL     1      -9.688  15.836  26.725  1.00  0.00     0.168 C 
ENDROOT
BRANCH   1   8
HETATM    8  C14 UNL     1      -8.733  15.893  29.107  1.00  0.00    -0.056 C 
HETATM    9  C13 UNL     1      -8.692  15.217  30.185  1.00  0.00    -0.019 C 
HETATM   10  C15 UNL     1      -7.375  16.550  28.712  1.00  0.00     0.046 C 
BRANCH   9  11
HETATM   11  C12 UNL     1      -9.614  14.427  30.989  1.00  0.00     0.068 C 
BRANCH  11  12
HETATM   12  C11 UNL     1     -10.638  15.309  31.723  1.00  0.00     0.213 C 
HETATM   13  C10 UNL     1     -10.040  15.588  33.050  1.00  0.00     0.225 C 
HETATM   14  C9  UNL     1     -10.670  15.541  34.330  1.00  0.00     0.210 C 
HETATM   15  O3  UNL     1      -8.797  15.910  33.013  1.00  0.00    -0.286 OA
HETATM   16  C7  UNL     1     -11.521  14.460  34.884  1.00  0.00     0.151 C 
HETATM   17  O2  UNL     1     -10.499  16.535  35.122  1.00  0.00    -0.288 OA
HETATM   18  C6  UNL     1     -11.506  13.221  34.088  1.00  0.00     0.229 C 
HETATM   19  C8  UNL     1     -11.105  14.134  36.318  1.00  0.00     0.028 C 
HETATM   20  N1  UNL     1     -12.616  12.735  33.351  1.00  0.00    -0.346 N 
HETATM   21  O1  UNL     1     -10.453  12.536  34.049  1.00  0.00    -0.273 OA
HETATM   22  C5  UNL     1     -13.634  13.584  32.852  1.00  0.00     0.188 C 
ATOM     23  H1  UNL     1     -12.684  11.734  33.172  1.00  0.00     0.163 HD
HETATM   24  C35 UNL     1     -13.074  14.890  32.318  1.00  0.00     0.282 C 
HETATM   25  O8  UNL     1     -11.909  14.849  31.680  1.00  0.00    -0.306 OA
HETATM   26  O9  UNL     1     -13.848  15.855  32.583  1.00  0.00    -0.263 OA
BRANCH  22  27
HETATM   27  C3  UNL     1     -14.548  13.015  31.834  1.00  0.00     0.014 C 
HETATM   28  C4  UNL     1     -15.418  11.879  32.394  1.00  0.00     0.012 C 
BRANCH  27  29
HETATM   29  C2  UNL     1     -13.968  12.551  30.553  1.00  0.00     0.002 C 
HETATM   30  C1  UNL     1     -14.348  11.162  30.116  1.00  0.00     0.005 C 
ENDBRANCH  27  29
ENDBRANCH  22  27
ENDBRANCH  11  12
ENDBRANCH   9  11
ENDBRANCH   1   8
BRANCH   7  31
HETATM   31  C21 UNL     1      -9.367  17.002  25.777  1.00  0.00     0.005 C 
HETATM   32  C22 UNL     1     -10.167  16.856  24.493  1.00  0.00     0.019 C 
HETATM   33  C23 UNL     1      -9.748  18.304  26.385  1.00  0.00     0.019 C 
BRANCH  31  34
HETATM   34  C24 UNL     1      -7.908  16.938  25.404  1.00  0.00     0.243 C 
BRANCH  34  35
HETATM   35  N2  UNL     1      -7.352  18.236  25.128  1.00  0.00    -0.074 N 
ATOM     36  H22 UNL     1      -7.380  18.433  24.127  1.00  0.00     0.277 HD
ATOM     37  H21 UNL     1      -7.974  18.971  25.465  1.00  0.00     0.277 HD
BRANCH  35  38
HETATM   38  C25 UNL     1      -6.024  18.421  25.644  1.00  0.00     0.232 C 
BRANCH  38  39
HETATM   39  C26 UNL     1      -5.295  19.598  25.062  1.00  0.00     0.027 C 
BRANCH  39  40
HETATM   40  C27 UNL     1      -4.035  19.252  24.343  1.00  0.00     0.003 C 
BRANCH  40  41
HETATM   41  C28 UNL     1      -4.039  19.574  22.878  1.00  0.00     0.020 C 
BRANCH  41  42
HETATM   42  C29 UNL     1      -4.103  18.363  21.988  1.00  0.00     0.125 C 
BRANCH  42  43
HETATM   43  N3  UNL     1      -5.282  17.557  22.261  1.00  0.00    -0.337 N 
HETATM   44  C30 UNL     1      -6.570  17.928  21.815  1.00  0.00     0.361 C 
HETATM   45  O6  UNL     1      -6.813  18.968  21.153  1.00  0.00    -0.238 OA
ATOM     46  H3  UNL     1      -5.175  16.694  22.793  1.00  0.00     0.164 HD
BRANCH  44  47
HETATM   47  O7  UNL     1      -7.642  17.105  22.117  1.00  0.00    -0.294 OA
BRANCH  47  48
HETATM   48  C31 UNL     1      -8.104  16.144  21.218  1.00  0.00     0.061 C 
HETATM   49  C32 UNL     1      -7.122  15.870  20.090  1.00  0.00     0.046 C 
HETATM   50  C33 UNL     1      -8.272  14.845  21.984  1.00  0.00     0.046 C 
HETATM   51  C34 UNL     1      -9.439  16.590  20.646  1.00  0.00     0.046 C 
ENDBRANCH  47  48
ENDBRANCH  44  47
ENDBRANCH  42  43
ENDBRANCH  41  42
ENDBRANCH  40  41
ENDBRANCH  39  40
ENDBRANCH  38  39
ENDBRANCH  35  38
ENDBRANCH  34  35
ENDBRANCH  31  34
ENDBRANCH   7  31
TORSDOF 16
ENDMDL
MODEL 4
REMARK VINA RESULT: -8.256826103      2.657      5.256
REMARK  16 active torsions:
REMARK  status: ('A' for Active; 'I' for Inactive)
REMARK    1  A    between atoms: C2_2  and  C3_3 
REMARK    2  A    between atoms: C3_3  and  C5_5 
REMARK    3  A    between atoms: C11_16  and  C12_17 
REMARK    4  A    between atoms: C12_17  and  C13_18 
REMARK    5  A    between atoms: C14_19  and  C16_21 
REMARK    6  A    between atoms: C20_27  and  C21_28 
REMARK    7  A    between atoms: C21_28  and  C24_31 
REMARK    8  A    between atoms: C24_31  and  N2_32 
REMARK    9  A    between atoms: N2_32  and  C25_35 
REMARK   10  A    between atoms: C25_35  and  C26_36 
REMARK   11  A    between atoms: C26_36  and  C27_37 
REMARK   12  A    between atoms: C27_37  and  C28_38 
REMARK   13  A    between atoms: C28_38  and  C29_39 
REMARK   14  A    between atoms: C29_39  and  N3_40 
REMARK       I    between atoms: N3_40  and  C30_42 
REMARK   15  A    between atoms: C30_42  and  O7_44 
REMARK   16  A    between atoms: O7_44  and  C31_45 
ROOT
HETATM    1  C16 UNL     1     -12.293  13.752  29.939  1.00  0.00     0.183 C 
HETATM    2  O4  UNL     1     -11.224  13.595  30.866  1.00  0.00    -0.344 OA
HETATM    3  C17 UNL     1     -10.510  14.764  30.858  1.00  0.00     0.158 C 
HETATM    4  C18 UNL     1      -9.025  14.467  30.958  1.00  0.00     0.078 C 
HETATM    5  C19 UNL     1     -10.855  15.689  32.007  1.00  0.00     0.078 C 
HETATM    6  O5  UNL     1     -10.735  15.368  29.629  1.00  0.00    -0.347 OA
HETATM    7  C20 UNL     1     -12.098  15.052  29.321  1.00  0.00     0.168 C 
ENDROOT
BRANCH   1   8
HETATM    8  C14 UNL     1     -13.529  13.333  30.580  1.00  0.00    -0.056 C 
HETATM    9  C13 UNL     1     -14.192  12.249  30.664  1.00  0.00    -0.019 C 
HETATM   10  C15 UNL     1     -14.175  14.538  31.330  1.00  0.00     0.046 C 
BRANCH   9  11
HETATM   11  C12 UNL     1     -14.068  10.879  30.187  1.00  0.00     0.068 C 
BRANCH  11  12
HETATM   12  C11 UNL     1     -13.623   9.919  31.305  1.00  0.00     0.213 C 
HETATM   13  C10 UNL     1     -14.792   9.045  31.564  1.00  0.00     0.225 C 
HETATM   14  C9  UNL     1     -15.337   8.650  32.822  1.00  0.00     0.210 C 
HETATM   15  O3  UNL     1     -15.367   8.603  30.503  1.00  0.00    -0.286 OA
HETATM   16  C7  UNL     1     -15.661   9.513  33.983  1.00  0.00     0.151 C 
HETATM   17  O2  UNL     1     -15.590   7.405  33.004  1.00  0.00    -0.288 OA
HETATM   18  C6  UNL     1     -15.614  10.955  33.687  1.00  0.00     0.229 C 
HETATM   19  C8  UNL     1     -17.042   9.166  34.538  1.00  0.00     0.028 C 
HETATM   20  N1  UNL     1     -14.641  11.843  34.212  1.00  0.00    -0.346 N 
HETATM   21  O1  UNL     1     -16.483  11.448  32.924  1.00  0.00    -0.273 OA
HETATM   22  C5  UNL     1     -13.349  11.417  34.608  1.00  0.00     0.188 C 
ATOM     23  H1  UNL     1     -14.881  12.830  34.308  1.00  0.00     0.163 HD
HETATM   24  C35 UNL     1     -12.777  10.381  33.657  1.00  0.00     0.282 C 
HETATM   25  O8  UNL     1     -13.031  10.523  32.360  1.00  0.00    -0.306 OA
HETATM   26  O9  UNL     1     -12.117   9.506  34.288  1.00  0.00    -0.263 OA
BRANCH  22  27
HETATM   27  C3  UNL     1     -12.329  12.470  34.824  1.00  0.00     0.014 C 
HETATM   28  C4  UNL     1     -11.637  12.347  36.190  1.00  0.00     0.012 C 
BRANCH  27  29
HETATM   29  C2  UNL     1     -12.732  13.883  34.646  1.00  0.00     0.002 C 
HETATM   30  C1  UNL     1     -11.986  14.896  35.473  1.00  0.00     0.005 C 
ENDBRANCH  27  29
ENDBRANCH  22  27
ENDBRANCH  11  12
ENDBRANCH   9  11
ENDBRANCH   1   8
BRANCH   7  31
HETATM   31  C21 UNL     1     -12.072  15.003  27.785  1.00  0.00     0.005 C 
HETATM   32  C22 UNL     1     -11.882  13.567  27.320  1.00  0.00     0.019 C 
HETATM   33  C23 UNL     1     -13.357  15.483  27.214  1.00  0.00     0.019 C 
BRANCH  31  34
HETATM   34  C24 UNL     1     -10.884  15.791  27.294  1.00  0.00     0.243 C 
BRANCH  34  35
HETATM   35  N2  UNL     1      -9.951  14.979  26.559  1.00  0.00    -0.074 N 
ATOM     36  H22 UNL     1     -10.278  14.015  26.507  1.00  0.00     0.277 HD
ATOM     37  H21 UNL     1      -9.969  15.220  25.568  1.00  0.00     0.277 HD
BRANCH  35  38
HETATM   38  C25 UNL     1      -8.608  15.032  27.069  1.00  0.00     0.232 C 
BRANCH  38  39
HETATM   39  C26 UNL     1      -8.247  16.334  27.723  1.00  0.00     0.027 C 
BRANCH  39  40
HETATM   40  C27 UNL     1      -6.785  16.535  27.937  1.00  0.00     0.003 C 
BRANCH  40  41
HETATM   41  C28 UNL     1      -6.065  17.184  26.793  1.00  0.00     0.020 C 
BRANCH  41  42
HETATM   42  C29 UNL     1      -6.884  18.212  26.061  1.00  0.00     0.125 C 
BRANCH  42  43
HETATM   43  N3  UNL     1      -7.025  17.882  24.653  1.00  0.00    -0.337 N 
HETATM   44  C30 UNL     1      -8.277  17.588  24.067  1.00  0.00     0.361 C 
HETATM   45  O6  UNL     1      -9.364  17.584  24.697  1.00  0.00    -0.238 OA
ATOM     46  H3  UNL     1      -6.191  17.863  24.067  1.00  0.00     0.164 HD
BRANCH  44  47
HETATM   47  O7  UNL     1      -8.326  17.283  22.717  1.00  0.00    -0.294 OA
BRANCH  47  48
HETATM   48  C31 UNL     1      -8.426  15.967  22.267  1.00  0.00     0.061 C 
HETATM   49  C32 UNL     1      -8.087  14.947  23.343  1.00  0.00     0.046 C 
HETATM   50  C33 UNL     1      -9.871  15.728  21.872  1.00  0.00     0.046 C 
HETATM   51  C34 UNL     1      -7.517  15.775  21.065  1.00  0.00     0.046 C 
ENDBRANCH  47  48
ENDBRANCH  44  47
ENDBRANCH  42  43
ENDBRANCH  41  42
ENDBRANCH  40  41
ENDBRANCH  39  40
ENDBRANCH  38  39
ENDBRANCH  35  38
ENDBRANCH  34  35
ENDBRANCH  31  34
ENDBRANCH   7  31
TORSDOF 16
ENDMDL
MODEL 5
REMARK VINA RESULT: -8.246407962      1.996     10.702
REMARK  16 active torsions:
REMARK  status: ('A' for Active; 'I' for Inactive)
REMARK    1  A    between atoms: C2_2  and  C3_3 
REMARK    2  A    between atoms: C3_3  and  C5_5 
REMARK    3  A    between atoms: C11_16  and  C12_17 
REMARK    4  A    between atoms: C12_17  and  C13_18 
REMARK    5  A    between atoms: C14_19  and  C16_21 
REMARK    6  A    between atoms: C20_27  and  C21_28 
REMARK    7  A    between atoms: C21_28  and  C24_31 
REMARK    8  A    between atoms: C24_31  and  N2_32 
REMARK    9  A    between atoms: N2_32  and  C25_35 
REMARK   10  A    between atoms: C25_35  and  C26_36 
REMARK   11  A    between atoms: C26_36  and  C27_37 
REMARK   12  A    between atoms: C27_37  and  C28_38 
REMARK   13  A    between atoms: C28_38  and  C29_39 
REMARK   14  A    between atoms: C29_39  and  N3_40 
REMARK       I    between atoms: N3_40  and  C30_42 
REMARK   15  A    between atoms: C30_42  and  O7_44 
REMARK   16  A    between atoms: O7_44  and  C31_45 
ROOT
HETATM    1  C16 UNL     1      -9.148  16.344  26.969  1.00  0.00     0.183 C 
HETATM    2  O4  UNL     1      -8.377  17.437  26.483  1.00  0.00    -0.344 OA
HETATM    3  C17 UNL     1      -7.272  17.539  27.287  1.00  0.00     0.158 C 
HETATM    4  C18 UNL     1      -6.945  19.000  27.538  1.00  0.00     0.078 C 
HETATM    5  C19 UNL     1      -6.032  16.904  26.691  1.00  0.00     0.078 C 
HETATM    6  O5  UNL     1      -7.604  16.968  28.507  1.00  0.00    -0.347 OA
HETATM    7  C20 UNL     1      -8.468  15.877  28.166  1.00  0.00     0.168 C 
ENDROOT
BRANCH   1   8
HETATM    8  C14 UNL     1      -9.500  15.488  25.849  1.00  0.00    -0.056 C 
HETATM    9  C13 UNL     1      -8.990  15.211  24.715  1.00  0.00    -0.019 C 
HETATM   10  C15 UNL     1     -10.843  14.752  26.142  1.00  0.00     0.046 C 
BRANCH   9  11
HETATM   11  C12 UNL     1      -7.805  15.585  23.954  1.00  0.00     0.068 C 
BRANCH  11  12
HETATM   12  C11 UNL     1      -7.979  16.941  23.250  1.00  0.00     0.213 C 
HETATM   13  C10 UNL     1      -8.629  16.633  21.954  1.00  0.00     0.225 C 
HETATM   14  C9  UNL     1      -8.304  17.140  20.661  1.00  0.00     0.210 C 
HETATM   15  O3  UNL     1      -9.606  15.802  22.037  1.00  0.00    -0.286 OA
HETATM   16  C7  UNL     1      -6.965  17.221  20.027  1.00  0.00     0.151 C 
HETATM   17  O2  UNL     1      -9.260  17.586  19.931  1.00  0.00    -0.288 OA
HETATM   18  C6  UNL     1      -5.916  16.484  20.750  1.00  0.00     0.229 C 
HETATM   19  C8  UNL     1      -7.025  16.715  18.586  1.00  0.00     0.028 C 
HETATM   20  N1  UNL     1      -4.838  17.100  21.434  1.00  0.00    -0.346 N 
HETATM   21  O1  UNL     1      -5.962  15.227  20.773  1.00  0.00    -0.273 OA
HETATM   22  C5  UNL     1      -4.914  18.413  21.959  1.00  0.00     0.188 C 
ATOM     23  H1  UNL     1      -3.971  16.575  21.553  1.00  0.00     0.163 HD
HETATM   24  C35 UNL     1      -6.270  18.699  22.578  1.00  0.00     0.282 C 
HETATM   25  O8  UNL     1      -6.869  17.714  23.239  1.00  0.00    -0.306 OA
HETATM   26  O9  UNL     1      -6.626  19.892  22.353  1.00  0.00    -0.263 OA
BRANCH  22  27
HETATM   27  C3  UNL     1      -3.863  18.816  22.922  1.00  0.00     0.014 C 
HETATM   28  C4  UNL     1      -2.575  19.283  22.226  1.00  0.00     0.012 C 
BRANCH  27  29
HETATM   29  C2  UNL     1      -3.481  17.858  23.984  1.00  0.00     0.002 C 
HETATM   30  C1  UNL     1      -2.117  18.048  24.592  1.00  0.00     0.005 C 
ENDBRANCH  27  29
ENDBRANCH  22  27
ENDBRANCH  11  12
ENDBRANCH   9  11
ENDBRANCH   1   8
BRANCH   7  31
HETATM   31  C21 UNL     1      -9.382  15.801  29.399  1.00  0.00     0.005 C 
HETATM   32  C22 UNL     1     -10.533  16.783  29.248  1.00  0.00     0.019 C 
HETATM   33  C23 UNL     1      -9.978  14.446  29.539  1.00  0.00     0.019 C 
BRANCH  31  34
HETATM   34  C24 UNL     1      -8.595  16.220  30.614  1.00  0.00     0.243 C 
BRANCH  34  35
HETATM   35  N2  UNL     1      -9.440  16.568  31.725  1.00  0.00    -0.074 N 
ATOM     36  H22 UNL     1      -9.541  17.580  31.796  1.00  0.00     0.277 HD
ATOM     37  H21 UNL     1     -10.409  16.312  31.532  1.00  0.00     0.277 HD
BRANCH  35  38
HETATM   38  C25 UNL     1      -9.010  16.013  32.979  1.00  0.00     0.232 C 
BRANCH  38  39
HETATM   39  C26 UNL     1      -9.780  16.508  34.169  1.00  0.00     0.027 C 
BRANCH  39  40
HETATM   40  C27 UNL     1     -10.126  15.453  35.165  1.00  0.00     0.003 C 
BRANCH  40  41
HETATM   41  C28 UNL     1     -10.173  14.059  34.614  1.00  0.00     0.020 C 
BRANCH  41  42
HETATM   42  C29 UNL     1     -11.557  13.589  34.260  1.00  0.00     0.125 C 
BRANCH  42  43
HETATM   43  N3  UNL     1     -11.832  13.748  32.841  1.00  0.00    -0.337 N 
HETATM   44  C30 UNL     1     -12.656  14.781  32.342  1.00  0.00     0.361 C 
HETATM   45  O6  UNL     1     -13.218  15.643  33.063  1.00  0.00    -0.238 OA
ATOM     46  H3  UNL     1     -11.414  13.090  32.183  1.00  0.00     0.164 HD
BRANCH  44  47
HETATM   47  O7  UNL     1     -12.867  14.863  30.976  1.00  0.00    -0.294 OA
BRANCH  47  48
HETATM   48  C31 UNL     1     -13.796  14.050  30.328  1.00  0.00     0.061 C 
HETATM   49  C32 UNL     1     -15.131  13.985  31.054  1.00  0.00     0.046 C 
HETATM   50  C33 UNL     1     -14.064  14.657  28.964  1.00  0.00     0.046 C 
HETATM   51  C34 UNL     1     -13.222  12.652  30.175  1.00  0.00     0.046 C 
ENDBRANCH  47  48
ENDBRANCH  44  47
ENDBRANCH  42  43
ENDBRANCH  41  42
ENDBRANCH  40  41
ENDBRANCH  39  40
ENDBRANCH  38  39
ENDBRANCH  35  38
ENDBRANCH  34  35
ENDBRANCH  31  34
ENDBRANCH   7  31
TORSDOF 16
ENDMDL
