MODEL 1
REMARK VINA RESULT: -8.602235663      0.000      0.000
REMARK  17 active torsions:
REMARK  status: ('A' for Active; 'I' for Inactive)
REMARK    1  A    between atoms: C3_3  and  C4_4 
REMARK    2  A    between atoms: C9_10  and  O2_11 
REMARK    3  A    between atoms: C13_17  and  C14_18 
REMARK    4  A    between atoms: C14_18  and  C15_19 
REMARK    5  A    between atoms: C15_19  and  C16_21 
REMARK    6  A    between atoms: C16_21  and  C17_22 
REMARK    7  A    between atoms: C17_22  and  C18_23 
REMARK    8  A    between atoms: C18_23  and  C19_25 
REMARK    9  A    between atoms: C19_25  and  C20_26 
REMARK   10  A    between atoms: C20_26  and  C21_27 
REMARK   11  A    between atoms: C21_27  and  C22_28 
REMARK   12  A    between atoms: C22_28  and  C23_29 
REMARK   13  A    between atoms: C23_29  and  C24_30 
REMARK   14  A    between atoms: C24_30  and  C25_32 
REMARK   15  A    between atoms: C25_32  and  C26_33 
REMARK   16  A    between atoms: C26_33  and  O7_34 
REMARK   17  A    between atoms: C26_33  and  C27_36 
ROOT
HETATM    1  C4  UNL     1     -11.205  14.908  30.431  1.00  0.00     0.085 C 
HETATM    2  C5  UNL     1     -11.210  15.958  31.538  1.00  0.00     0.037 C 
HETATM    3  C6  UNL     1      -9.807  16.133  32.068  1.00  0.00     0.056 C 
HETATM    4  C7  UNL     1      -9.830  16.378  33.598  1.00  0.00     0.018 C 
HETATM    5  C8  UNL     1      -9.233  14.838  31.814  1.00  0.00     0.167 C 
HETATM    6  O1  UNL     1      -8.502  14.135  32.478  1.00  0.00    -0.294 OA
HETATM    7  C9  UNL     1      -9.778  14.501  30.422  1.00  0.00     0.151 C 
HETATM    8  C10 UNL     1      -8.959  15.361  29.517  1.00  0.00     0.068 C 
HETATM    9  C11 UNL     1      -7.695  15.988  30.053  1.00  0.00     0.028 C 
HETATM   10  C12 UNL     1      -8.591  14.868  28.165  1.00  0.00     0.144 C 
HETATM   11  O3  UNL     1      -7.930  13.947  27.759  1.00  0.00    -0.297 OA
HETATM   12  C13 UNL     1      -9.378  15.981  27.584  1.00  0.00     0.075 C 
HETATM   13  C31 UNL     1      -9.973  16.299  28.915  1.00  0.00     0.087 C 
HETATM   14  C32 UNL     1     -11.317  15.758  29.221  1.00  0.00     0.149 C 
HETATM   15  O9  UNL     1     -12.274  16.004  28.573  1.00  0.00    -0.296 OA
ENDROOT
BRANCH  12  16
HETATM   16  C14 UNL     1      -8.559  17.064  26.955  1.00  0.00     0.091 C 
BRANCH  16  17
HETATM   17  C15 UNL     1      -9.341  17.832  25.935  1.00  0.00     0.128 C 
HETATM   18  O4  UNL     1     -10.033  18.729  26.372  1.00  0.00    -0.298 OA
BRANCH  17  19
HETATM   19  C16 UNL     1      -9.281  17.531  24.498  1.00  0.00     0.085 C 
BRANCH  19  20
HETATM   20  C17 UNL     1      -9.708  16.161  24.104  1.00  0.00     0.085 C 
BRANCH  20  21
HETATM   21  C18 UNL     1      -8.649  15.225  23.730  1.00  0.00     0.127 C 
HETATM   22  O5  UNL     1      -8.091  14.420  24.454  1.00  0.00    -0.298 OA
BRANCH  21  23
HETATM   23  C19 UNL     1      -8.195  15.255  22.287  1.00  0.00     0.078 C 
BRANCH  23  24
HETATM   24  C20 UNL     1      -9.420  15.516  21.454  1.00  0.00     0.007 C 
BRANCH  24  25
HETATM   25  C21 UNL     1      -9.304  16.657  20.504  1.00  0.00     0.001 C 
BRANCH  25  26
HETATM   26  C22 UNL     1      -8.186  16.544  19.509  1.00  0.00     0.007 C 
BRANCH  26  27
HETATM   27  C23 UNL     1      -7.349  17.805  19.460  1.00  0.00     0.078 C 
BRANCH  27  28
HETATM   28  C24 UNL     1      -6.320  17.726  20.515  1.00  0.00     0.129 C 
HETATM   29  O6  UNL     1      -5.413  16.953  20.438  1.00  0.00    -0.298 OA
BRANCH  28  30
HETATM   30  C25 UNL     1      -6.452  18.652  21.689  1.00  0.00     0.112 C 
BRANCH  30  31
HETATM   31  C26 UNL     1      -5.172  19.373  21.982  1.00  0.00     0.158 C 
BRANCH  31  32
HETATM   32  O7  UNL     1      -4.228  19.319  20.990  1.00  0.00    -0.393 OA
ATOM     33  H7  UNL     1      -3.633  20.059  20.954  1.00  0.00     0.210 HD
ENDBRANCH  31  32
BRANCH  31  34
HETATM   34  C27 UNL     1      -4.601  18.770  23.264  1.00  0.00     0.238 C 
HETATM   35  C28 UNL     1      -5.757  18.345  24.137  1.00  0.00     0.203 C 
HETATM   36  O8  UNL     1      -5.472  17.053  24.575  1.00  0.00    -0.387 OA
HETATM   37  C29 UNL     1      -4.198  17.067  25.129  1.00  0.00     0.195 C 
HETATM   38  C30 UNL     1      -3.175  17.078  24.010  1.00  0.00     0.259 C 
HETATM   39  N1  UNL     1      -3.819  17.604  22.839  1.00  0.00    -0.064 N 
ATOM     40  H12 UNL     1      -4.375  16.909  22.343  1.00  0.00     0.277 HD
ATOM     41  H11 UNL     1      -3.166  17.815  22.084  1.00  0.00     0.277 HD
ENDBRANCH  31  34
ENDBRANCH  30  31
ENDBRANCH  28  30
ENDBRANCH  27  28
ENDBRANCH  26  27
ENDBRANCH  25  26
ENDBRANCH  24  25
ENDBRANCH  23  24
ENDBRANCH  21  23
ENDBRANCH  20  21
ENDBRANCH  19  20
ENDBRANCH  17  19
ENDBRANCH  16  17
ENDBRANCH  12  16
BRANCH   7  42
HETATM   42  O2  UNL     1      -9.447  13.204  30.200  1.00  0.00    -0.379 OA
ATOM     43  H2  UNL     1      -9.459  12.858  29.316  1.00  0.00     0.211 HD
ENDBRANCH   7  42
BRANCH   1  44
HETATM   44  C3  UNL     1     -12.264  13.875  30.620  1.00  0.00    -0.051 C 
HETATM   45  C2  UNL     1     -12.538  13.030  29.651  1.00  0.00    -0.079 C 
HETATM   46  C1  UNL     1     -11.919  12.967  28.318  1.00  0.00     0.043 C 
HETATM   47  C38 UNL     1     -13.539  11.849  29.795  1.00  0.00     0.034 C 
HETATM   48  C37 UNL     1     -13.724  11.535  31.249  1.00  0.00     0.005 C 
HETATM   49  C36 UNL     1     -14.252  12.848  31.733  1.00  0.00     0.013 C 
HETATM   50  C33 UNL     1     -13.111  13.833  31.886  1.00  0.00    -0.023 C 
HETATM   51  C34 UNL     1     -12.390  13.313  33.092  1.00  0.00     0.019 C 
HETATM   52  C35 UNL     1     -13.901  15.110  32.114  1.00  0.00     0.019 C 
ENDBRANCH   1  44
TORSDOF 17
ENDMDL
MODEL 2
REMARK VINA RESULT: -8.571581050      2.666     10.714
REMARK  17 active torsions:
REMARK  status: ('A' for Active; 'I' for Inactive)
REMARK    1  A    between atoms: C3_3  and  C4_4 
REMARK    2  A    between atoms: C9_10  and  O2_11 
REMARK    3  A    between atoms: C13_17  and  C14_18 
REMARK    4  A    between atoms: C14_18  and  C15_19 
REMARK    5  A    between atoms: C15_19  and  C16_21 
REMARK    6  A    between atoms: C16_21  and  C17_22 
REMARK    7  A    between atoms: C17_22  and  C18_23 
REMARK    8  A    between atoms: C18_23  and  C19_25 
REMARK    9  A    between atoms: C19_25  and  C20_26 
REMARK   10  A    between atoms: C20_26  and  C21_27 
REMARK   11  A    between atoms: C21_27  and  C22_28 
REMARK   12  A    between atoms: C22_28  and  C23_29 
REMARK   13  A    between atoms: C23_29  and  C24_30 
REMARK   14  A    between atoms: C24_30  and  C25_32 
REMARK   15  A    between atoms: C25_32  and  C26_33 
REMARK   16  A    between atoms: C26_33  and  O7_34 
REMARK   17  A    between atoms: C26_33  and  C27_36 
ROOT
HETATM    1  C4  UNL     1      -7.150  17.352  24.167  1.00  0.00     0.085 C 
HETATM    2  C5  UNL     1      -7.837  18.051  22.997  1.00  0.00     0.037 C 
HETATM    3  C6  UNL     1      -8.743  17.072  22.290  1.00  0.00     0.056 C 
HETATM    4  C7  UNL     1      -8.726  17.321  20.761  1.00  0.00     0.018 C 
HETATM    5  C8  UNL     1      -8.091  15.818  22.563  1.00  0.00     0.167 C 
HETATM    6  O1  UNL     1      -7.883  14.848  21.867  1.00  0.00    -0.294 OA
HETATM    7  C9  UNL     1      -7.678  15.972  24.031  1.00  0.00     0.151 C 
HETATM    8  C10 UNL     1      -8.964  15.793  24.768  1.00  0.00     0.068 C 
HETATM    9  C11 UNL     1     -10.146  15.198  24.041  1.00  0.00     0.028 C 
HETATM   10  C12 UNL     1      -8.967  15.129  26.097  1.00  0.00     0.144 C 
HETATM   11  O3  UNL     1      -8.683  14.025  26.484  1.00  0.00    -0.297 OA
HETATM   12  C13 UNL     1      -9.455  16.397  26.689  1.00  0.00     0.075 C 
HETATM   13  C31 UNL     1      -9.181  17.134  25.421  1.00  0.00     0.087 C 
HETATM   14  C32 UNL     1      -7.913  17.890  25.319  1.00  0.00     0.149 C 
HETATM   15  O9  UNL     1      -7.621  18.764  26.058  1.00  0.00    -0.296 OA
ENDROOT
BRANCH  12  16
HETATM   16  C14 UNL     1     -10.883  16.368  27.138  1.00  0.00     0.091 C 
BRANCH  16  17
HETATM   17  C15 UNL     1     -11.005  16.022  28.589  1.00  0.00     0.128 C 
HETATM   18  O4  UNL     1     -11.551  14.965  28.831  1.00  0.00    -0.298 OA
BRANCH  17  19
HETATM   19  C16 UNL     1     -10.500  16.894  29.658  1.00  0.00     0.085 C 
BRANCH  19  20
HETATM   20  C17 UNL     1      -9.082  16.678  30.057  1.00  0.00     0.085 C 
BRANCH  20  21
HETATM   21  C18 UNL     1      -8.698  15.309  30.398  1.00  0.00     0.127 C 
HETATM   22  O5  UNL     1      -8.142  14.501  29.675  1.00  0.00    -0.298 OA
BRANCH  21  23
HETATM   23  C19 UNL     1      -9.021  14.842  31.800  1.00  0.00     0.078 C 
BRANCH  23  24
HETATM   24  C20 UNL     1      -8.527  15.911  32.736  1.00  0.00     0.007 C 
BRANCH  24  25
HETATM   25  C21 UNL     1      -9.559  16.473  33.650  1.00  0.00     0.001 C 
BRANCH  25  26
HETATM   26  C22 UNL     1      -9.535  15.925  35.048  1.00  0.00     0.007 C 
BRANCH  26  27
HETATM   27  C23 UNL     1     -10.224  14.580  35.135  1.00  0.00     0.078 C 
BRANCH  27  28
HETATM   28  C24 UNL     1     -11.668  14.776  34.907  1.00  0.00     0.129 C 
HETATM   29  O6  UNL     1     -12.287  15.590  35.521  1.00  0.00    -0.298 OA
BRANCH  28  30
HETATM   30  C25 UNL     1     -12.333  13.914  33.872  1.00  0.00     0.112 C 
BRANCH  30  31
HETATM   31  C26 UNL     1     -12.468  14.620  32.557  1.00  0.00     0.158 C 
BRANCH  31  32
HETATM   32  O7  UNL     1     -12.873  15.927  32.632  1.00  0.00    -0.393 OA
ATOM     33  H7  UNL     1     -12.464  16.441  33.319  1.00  0.00     0.210 HD
ENDBRANCH  31  32
BRANCH  31  34
HETATM   34  C27 UNL     1     -13.465  13.822  31.720  1.00  0.00     0.238 C 
HETATM   35  C28 UNL     1     -14.524  13.275  32.647  1.00  0.00     0.203 C 
HETATM   36  O8  UNL     1     -15.755  13.553  32.055  1.00  0.00    -0.387 OA
HETATM   37  C29 UNL     1     -15.711  13.076  30.751  1.00  0.00     0.195 C 
HETATM   38  C30 UNL     1     -14.911  14.043  29.899  1.00  0.00     0.259 C 
HETATM   39  N1  UNL     1     -14.049  14.783  30.778  1.00  0.00    -0.064 N 
ATOM     40  H12 UNL     1     -14.522  15.559  31.241  1.00  0.00     0.277 HD
ATOM     41  H11 UNL     1     -13.348  15.333  30.282  1.00  0.00     0.277 HD
ENDBRANCH  31  34
ENDBRANCH  30  31
ENDBRANCH  28  30
ENDBRANCH  27  28
ENDBRANCH  26  27
ENDBRANCH  25  26
ENDBRANCH  24  25
ENDBRANCH  23  24
ENDBRANCH  21  23
ENDBRANCH  20  21
ENDBRANCH  19  20
ENDBRANCH  17  19
ENDBRANCH  16  17
ENDBRANCH  12  16
BRANCH   7  42
HETATM   42  O2  UNL     1      -6.876  14.912  24.302  1.00  0.00    -0.379 OA
ATOM     43  H2  UNL     1      -6.526  14.390  23.590  1.00  0.00     0.211 HD
ENDBRANCH   7  42
BRANCH   1  44
HETATM   44  C3  UNL     1      -5.675  17.578  24.180  1.00  0.00    -0.051 C 
HETATM   45  C2  UNL     1      -4.968  17.235  25.232  1.00  0.00    -0.079 C 
HETATM   46  C1  UNL     1      -5.458  16.636  26.483  1.00  0.00     0.043 C 
HETATM   47  C38 UNL     1      -3.417  17.322  25.294  1.00  0.00     0.034 C 
HETATM   48  C37 UNL     1      -2.870  17.354  23.898  1.00  0.00     0.005 C 
HETATM   49  C36 UNL     1      -3.533  18.593  23.387  1.00  0.00     0.013 C 
HETATM   50  C33 UNL     1      -4.975  18.290  23.030  1.00  0.00    -0.023 C 
HETATM   51  C34 UNL     1      -4.836  17.465  21.787  1.00  0.00     0.019 C 
HETATM   52  C35 UNL     1      -5.487  19.702  22.806  1.00  0.00     0.019 C 
ENDBRANCH   1  44
TORSDOF 17
ENDMDL
MODEL 3
REMARK VINA RESULT: -8.512126885      2.598     10.655
REMARK  17 active torsions:
REMARK  status: ('A' for Active; 'I' for Inactive)
REMARK    1  A    between atoms: C3_3  and  C4_4 
REMARK    2  A    between atoms: C9_10  and  O2_11 
REMARK    3  A    between atoms: C13_17  and  C14_18 
REMARK    4  A    between atoms: C14_18  and  C15_19 
REMARK    5  A    between atoms: C15_19  and  C16_21 
REMARK    6  A    between atoms: C16_21  and  C17_22 
REMARK    7  A    between atoms: C17_22  and  C18_23 
REMARK    8  A    between atoms: C18_23  and  C19_25 
REMARK    9  A    between atoms: C19_25  and  C20_26 
REMARK   10  A    between atoms: C20_26  and  C21_27 
REMARK   11  A    between atoms: C21_27  and  C22_28 
REMARK   12  A    between atoms: C22_28  and  C23_29 
REMARK   13  A    between atoms: C23_29  and  C24_30 
REMARK   14  A    between atoms: C24_30  and  C25_32 
REMARK   15  A    between atoms: C25_32  and  C26_33 
REMARK   16  A    between atoms: C26_33  and  O7_34 
REMARK   17  A    between atoms: C26_33  and  C27_36 
ROOT
HETATM    1  C4  UNL     1      -7.151  17.221  24.202  1.00  0.00     0.085 C 
HETATM    2  C5  UNL     1      -8.093  17.767  23.132  1.00  0.00     0.037 C 
HETATM    3  C6  UNL     1      -9.040  16.676  22.694  1.00  0.00     0.056 C 
HETATM    4  C7  UNL     1      -9.325  16.779  21.175  1.00  0.00     0.018 C 
HETATM    5  C8  UNL     1      -8.259  15.492  22.940  1.00  0.00     0.167 C 
HETATM    6  O1  UNL     1      -8.114  14.473  22.299  1.00  0.00    -0.294 OA
HETATM    7  C9  UNL     1      -7.593  15.807  24.284  1.00  0.00     0.151 C 
HETATM    8  C10 UNL     1      -8.704  15.627  25.266  1.00  0.00     0.068 C 
HETATM    9  C11 UNL     1      -9.954  14.900  24.829  1.00  0.00     0.028 C 
HETATM   10  C12 UNL     1      -8.413  15.092  26.621  1.00  0.00     0.144 C 
HETATM   11  O3  UNL     1      -7.982  14.048  27.036  1.00  0.00    -0.297 OA
HETATM   12  C13 UNL     1      -8.874  16.381  27.189  1.00  0.00     0.075 C 
HETATM   13  C31 UNL     1      -8.894  17.009  25.835  1.00  0.00     0.087 C 
HETATM   14  C32 UNL     1      -7.726  17.822  25.431  1.00  0.00     0.149 C 
HETATM   15  O9  UNL     1      -7.366  18.777  26.026  1.00  0.00    -0.296 OA
ENDROOT
BRANCH  12  16
HETATM   16  C14 UNL     1     -10.188  16.315  27.902  1.00  0.00     0.091 C 
BRANCH  16  17
HETATM   17  C15 UNL     1     -10.158  17.068  29.196  1.00  0.00     0.128 C 
HETATM   18  O4  UNL     1     -11.134  17.754  29.425  1.00  0.00    -0.298 OA
BRANCH  17  19
HETATM   19  C16 UNL     1      -9.030  16.989  30.134  1.00  0.00     0.085 C 
BRANCH  19  20
HETATM   20  C17 UNL     1      -9.340  16.422  31.475  1.00  0.00     0.085 C 
BRANCH  20  21
HETATM   21  C18 UNL     1      -9.000  15.016  31.688  1.00  0.00     0.127 C 
HETATM   22  O5  UNL     1      -8.682  14.201  30.840  1.00  0.00    -0.298 OA
BRANCH  21  23
HETATM   23  C19 UNL     1      -9.043  14.516  33.115  1.00  0.00     0.078 C 
BRANCH  23  24
HETATM   24  C20 UNL     1      -9.369  15.703  33.980  1.00  0.00     0.007 C 
BRANCH  24  25
HETATM   25  C21 UNL     1      -9.694  15.379  35.396  1.00  0.00     0.001 C 
BRANCH  25  26
HETATM   26  C22 UNL     1     -10.788  14.367  35.581  1.00  0.00     0.007 C 
BRANCH  26  27
HETATM   27  C23 UNL     1     -12.137  14.916  35.168  1.00  0.00     0.078 C 
BRANCH  27  28
HETATM   28  C24 UNL     1     -12.983  13.794  34.719  1.00  0.00     0.129 C 
HETATM   29  O6  UNL     1     -13.336  12.943  35.478  1.00  0.00    -0.298 OA
BRANCH  28  30
HETATM   30  C25 UNL     1     -13.386  13.760  33.273  1.00  0.00     0.112 C 
BRANCH  30  31
HETATM   31  C26 UNL     1     -13.135  15.070  32.590  1.00  0.00     0.158 C 
BRANCH  31  32
HETATM   32  O7  UNL     1     -14.204  15.926  32.553  1.00  0.00    -0.393 OA
ATOM     33  H7  UNL     1     -14.098  16.731  33.047  1.00  0.00     0.210 HD
ENDBRANCH  31  32
BRANCH  31  34
HETATM   34  C27 UNL     1     -12.683  14.754  31.166  1.00  0.00     0.238 C 
HETATM   35  C28 UNL     1     -12.209  13.321  31.131  1.00  0.00     0.203 C 
HETATM   36  O8  UNL     1     -12.805  12.730  30.018  1.00  0.00    -0.387 OA
HETATM   37  C29 UNL     1     -12.539  13.538  28.920  1.00  0.00     0.195 C 
HETATM   38  C30 UNL     1     -13.459  14.745  28.963  1.00  0.00     0.259 C 
HETATM   39  N1  UNL     1     -13.873  14.924  30.326  1.00  0.00    -0.064 N 
ATOM     40  H12 UNL     1     -14.643  14.311  30.594  1.00  0.00     0.277 HD
ATOM     41  H11 UNL     1     -14.351  15.811  30.485  1.00  0.00     0.277 HD
ENDBRANCH  31  34
ENDBRANCH  30  31
ENDBRANCH  28  30
ENDBRANCH  27  28
ENDBRANCH  26  27
ENDBRANCH  25  26
ENDBRANCH  24  25
ENDBRANCH  23  24
ENDBRANCH  21  23
ENDBRANCH  20  21
ENDBRANCH  19  20
ENDBRANCH  17  19
ENDBRANCH  16  17
ENDBRANCH  12  16
BRANCH   7  42
HETATM   42  O2  UNL     1      -6.680  14.824  24.483  1.00  0.00    -0.379 OA
ATOM     43  H2  UNL     1      -6.961  13.918  24.525  1.00  0.00     0.211 HD
ENDBRANCH   7  42
BRANCH   1  44
HETATM   44  C3  UNL     1      -5.721  17.529  23.915  1.00  0.00    -0.051 C 
HETATM   45  C2  UNL     1      -4.807  17.326  24.836  1.00  0.00    -0.079 C 
HETATM   46  C1  UNL     1      -5.012  16.819  26.202  1.00  0.00     0.043 C 
HETATM   47  C38 UNL     1      -3.282  17.505  24.593  1.00  0.00     0.034 C 
HETATM   48  C37 UNL     1      -3.007  17.439  23.121  1.00  0.00     0.005 C 
HETATM   49  C36 UNL     1      -3.842  18.585  22.648  1.00  0.00     0.013 C 
HETATM   50  C33 UNL     1      -5.300  18.171  22.598  1.00  0.00    -0.023 C 
HETATM   51  C34 UNL     1      -5.334  17.243  21.423  1.00  0.00     0.019 C 
HETATM   52  C35 UNL     1      -5.945  19.524  22.364  1.00  0.00     0.019 C 
ENDBRANCH   1  44
TORSDOF 17
ENDMDL
MODEL 4
REMARK VINA RESULT: -8.474422180      2.461     10.397
REMARK  17 active torsions:
REMARK  status: ('A' for Active; 'I' for Inactive)
REMARK    1  A    between atoms: C3_3  and  C4_4 
REMARK    2  A    between atoms: C9_10  and  O2_11 
REMARK    3  A    between atoms: C13_17  and  C14_18 
REMARK    4  A    between atoms: C14_18  and  C15_19 
REMARK    5  A    between atoms: C15_19  and  C16_21 
REMARK    6  A    between atoms: C16_21  and  C17_22 
REMARK    7  A    between atoms: C17_22  and  C18_23 
REMARK    8  A    between atoms: C18_23  and  C19_25 
REMARK    9  A    between atoms: C19_25  and  C20_26 
REMARK   10  A    between atoms: C20_26  and  C21_27 
REMARK   11  A    between atoms: C21_27  and  C22_28 
REMARK   12  A    between atoms: C22_28  and  C23_29 
REMARK   13  A    between atoms: C23_29  and  C24_30 
REMARK   14  A    between atoms: C24_30  and  C25_32 
REMARK   15  A    between atoms: C25_32  and  C26_33 
REMARK   16  A    between atoms: C26_33  and  O7_34 
REMARK   17  A    between atoms: C26_33  and  C27_36 
ROOT
HETATM    1  C4  UNL     1      -6.657  17.503  23.924  1.00  0.00     0.085 C 
HETATM    2  C5  UNL     1      -7.458  18.167  22.807  1.00  0.00     0.037 C 
HETATM    3  C6  UNL     1      -8.532  17.220  22.330  1.00  0.00     0.056 C 
HETATM    4  C7  UNL     1      -8.728  17.345  20.798  1.00  0.00     0.018 C 
HETATM    5  C8  UNL     1      -7.944  15.938  22.619  1.00  0.00     0.167 C 
HETATM    6  O1  UNL     1      -7.919  14.901  21.991  1.00  0.00    -0.294 OA
HETATM    7  C9  UNL     1      -7.304  16.169  23.992  1.00  0.00     0.151 C 
HETATM    8  C10 UNL     1      -8.473  16.164  24.920  1.00  0.00     0.068 C 
HETATM    9  C11 UNL     1      -9.794  15.621  24.427  1.00  0.00     0.028 C 
HETATM   10  C12 UNL     1      -8.326  15.610  26.290  1.00  0.00     0.144 C 
HETATM   11  O3  UNL     1      -8.072  14.518  26.731  1.00  0.00    -0.297 OA
HETATM   12  C13 UNL     1      -8.621  16.958  26.829  1.00  0.00     0.075 C 
HETATM   13  C31 UNL     1      -8.486  17.566  25.473  1.00  0.00     0.087 C 
HETATM   14  C32 UNL     1      -7.194  18.196  25.120  1.00  0.00     0.149 C 
HETATM   15  O9  UNL     1      -6.728  19.095  25.727  1.00  0.00    -0.296 OA
ENDROOT
BRANCH  12  16
HETATM   16  C14 UNL     1      -9.962  17.093  27.479  1.00  0.00     0.091 C 
BRANCH  16  17
HETATM   17  C15 UNL     1      -9.854  17.167  28.970  1.00  0.00     0.128 C 
HETATM   18  O4  UNL     1     -10.797  17.678  29.539  1.00  0.00    -0.298 OA
BRANCH  17  19
HETATM   19  C16 UNL     1      -8.690  16.657  29.707  1.00  0.00     0.085 C 
BRANCH  19  20
HETATM   20  C17 UNL     1      -8.915  16.354  31.148  1.00  0.00     0.085 C 
BRANCH  20  21
HETATM   21  C18 UNL     1      -8.921  14.942  31.528  1.00  0.00     0.127 C 
HETATM   22  O5  UNL     1      -8.923  13.980  30.780  1.00  0.00    -0.298 OA
BRANCH  21  23
HETATM   23  C19 UNL     1      -8.922  14.639  33.010  1.00  0.00     0.078 C 
BRANCH  23  24
HETATM   24  C20 UNL     1      -9.191  15.939  33.717  1.00  0.00     0.007 C 
BRANCH  24  25
HETATM   25  C21 UNL     1      -9.932  15.814  35.002  1.00  0.00     0.001 C 
BRANCH  25  26
HETATM   26  C22 UNL     1     -10.922  14.687  35.059  1.00  0.00     0.007 C 
BRANCH  26  27
HETATM   27  C23 UNL     1     -12.267  15.091  34.492  1.00  0.00     0.078 C 
BRANCH  27  28
HETATM   28  C24 UNL     1     -12.550  14.253  33.311  1.00  0.00     0.129 C 
HETATM   29  O6  UNL     1     -12.828  13.097  33.425  1.00  0.00    -0.298 OA
BRANCH  28  30
HETATM   30  C25 UNL     1     -12.477  14.904  31.960  1.00  0.00     0.112 C 
BRANCH  30  31
HETATM   31  C26 UNL     1     -12.707  13.922  30.852  1.00  0.00     0.158 C 
BRANCH  31  32
HETATM   32  O7  UNL     1     -11.915  12.805  30.884  1.00  0.00    -0.393 OA
ATOM     33  H7  UNL     1     -11.340  12.692  30.135  1.00  0.00     0.210 HD
ENDBRANCH  31  32
BRANCH  31  34
HETATM   34  C27 UNL     1     -12.486  14.669  29.539  1.00  0.00     0.238 C 
HETATM   35  C28 UNL     1     -11.639  13.799  28.641  1.00  0.00     0.203 C 
HETATM   36  O8  UNL     1     -12.256  13.794  27.391  1.00  0.00    -0.387 OA
HETATM   37  C29 UNL     1     -12.465  15.117  27.020  1.00  0.00     0.195 C 
HETATM   38  C30 UNL     1     -13.662  15.658  27.779  1.00  0.00     0.259 C 
HETATM   39  N1  UNL     1     -13.821  14.859  28.962  1.00  0.00    -0.064 N 
ATOM     40  H12 UNL     1     -14.310  13.981  28.788  1.00  0.00     0.277 HD
ATOM     41  H11 UNL     1     -14.490  15.253  29.624  1.00  0.00     0.277 HD
ENDBRANCH  31  34
ENDBRANCH  30  31
ENDBRANCH  28  30
ENDBRANCH  27  28
ENDBRANCH  26  27
ENDBRANCH  25  26
ENDBRANCH  24  25
ENDBRANCH  23  24
ENDBRANCH  21  23
ENDBRANCH  20  21
ENDBRANCH  19  20
ENDBRANCH  17  19
ENDBRANCH  16  17
ENDBRANCH  12  16
BRANCH   7  42
HETATM   42  O2  UNL     1      -6.553  15.067  24.239  1.00  0.00    -0.379 OA
ATOM     43  H2  UNL     1      -6.032  14.684  23.543  1.00  0.00     0.211 HD
ENDBRANCH   7  42
BRANCH   1  44
HETATM   44  C3  UNL     1      -5.185  17.597  23.704  1.00  0.00    -0.051 C 
HETATM   45  C2  UNL     1      -4.354  17.261  24.664  1.00  0.00    -0.079 C 
HETATM   46  C1  UNL     1      -4.694  16.790  26.016  1.00  0.00     0.043 C 
HETATM   47  C38 UNL     1      -2.810  17.213  24.492  1.00  0.00     0.034 C 
HETATM   48  C37 UNL     1      -2.481  17.107  23.033  1.00  0.00     0.005 C 
HETATM   49  C36 UNL     1      -3.115  18.364  22.531  1.00  0.00     0.013 C 
HETATM   50  C33 UNL     1      -4.614  18.169  22.412  1.00  0.00    -0.023 C 
HETATM   51  C34 UNL     1      -4.731  17.256  21.230  1.00  0.00     0.019 C 
HETATM   52  C35 UNL     1      -5.042  19.603  22.157  1.00  0.00     0.019 C 
ENDBRANCH   1  44
TORSDOF 17
ENDMDL
MODEL 5
REMARK VINA RESULT: -8.291343338      3.210      6.750
REMARK  17 active torsions:
REMARK  status: ('A' for Active; 'I' for Inactive)
REMARK    1  A    between atoms: C3_3  and  C4_4 
REMARK    2  A    between atoms: C9_10  and  O2_11 
REMARK    3  A    between atoms: C13_17  and  C14_18 
REMARK    4  A    between atoms: C14_18  and  C15_19 
REMARK    5  A    between atoms: C15_19  and  C16_21 
REMARK    6  A    between atoms: C16_21  and  C17_22 
REMARK    7  A    between atoms: C17_22  and  C18_23 
REMARK    8  A    between atoms: C18_23  and  C19_25 
REMARK    9  A    between atoms: C19_25  and  C20_26 
REMARK   10  A    between atoms: C20_26  and  C21_27 
REMARK   11  A    between atoms: C21_27  and  C22_28 
REMARK   12  A    between atoms: C22_28  and  C23_29 
REMARK   13  A    between atoms: C23_29  and  C24_30 
REMARK   14  A    between atoms: C24_30  and  C25_32 
REMARK   15  A    between atoms: C25_32  and  C26_33 
REMARK   16  A    between atoms: C26_33  and  O7_34 
REMARK   17  A    between atoms: C26_33  and  C27_36 
ROOT
HETATM    1  C4  UNL     1     -14.217  10.898  31.845  1.00  0.00     0.085 C 
HETATM    2  C5  UNL     1     -14.739   9.768  30.962  1.00  0.00     0.037 C 
HETATM    3  C6  UNL     1     -16.199  10.004  30.658  1.00  0.00     0.056 C 
HETATM    4  C7  UNL     1     -16.972   8.661  30.624  1.00  0.00     0.018 C 
HETATM    5  C8  UNL     1     -16.622  10.754  31.811  1.00  0.00     0.167 C 
HETATM    6  O1  UNL     1     -17.631  10.701  32.483  1.00  0.00    -0.294 OA
HETATM    7  C9  UNL     1     -15.445  11.709  32.037  1.00  0.00     0.151 C 
HETATM    8  C10 UNL     1     -15.617  12.724  30.955  1.00  0.00     0.068 C 
HETATM    9  C11 UNL     1     -16.938  12.799  30.228  1.00  0.00     0.028 C 
HETATM   10  C12 UNL     1     -15.244  14.140  31.206  1.00  0.00     0.144 C 
HETATM   11  O3  UNL     1     -15.640  14.991  31.959  1.00  0.00    -0.297 OA
HETATM   12  C13 UNL     1     -14.210  14.017  30.151  1.00  0.00     0.075 C 
HETATM   13  C31 UNL     1     -14.388  12.536  30.102  1.00  0.00     0.087 C 
HETATM   14  C32 UNL     1     -13.439  11.697  30.867  1.00  0.00     0.149 C 
HETATM   15  O9  UNL     1     -12.273  11.707  30.679  1.00  0.00    -0.296 OA
ENDROOT
BRANCH  12  16
HETATM   16  C14 UNL     1     -14.514  14.758  28.887  1.00  0.00     0.091 C 
BRANCH  16  17
HETATM   17  C15 UNL     1     -13.273  15.069  28.111  1.00  0.00     0.128 C 
HETATM   18  O4  UNL     1     -13.253  16.156  27.570  1.00  0.00    -0.298 OA
BRANCH  17  19
HETATM   19  C16 UNL     1     -12.148  14.130  28.003  1.00  0.00     0.085 C 
BRANCH  19  20
HETATM   20  C17 UNL     1     -11.612  13.914  26.632  1.00  0.00     0.085 C 
BRANCH  20  21
HETATM   21  C18 UNL     1     -10.249  14.378  26.379  1.00  0.00     0.127 C 
HETATM   22  O5  UNL     1      -9.213  13.840  26.729  1.00  0.00    -0.298 OA
BRANCH  21  23
HETATM   23  C19 UNL     1     -10.104  15.665  25.597  1.00  0.00     0.078 C 
BRANCH  23  24
HETATM   24  C20 UNL     1      -9.220  15.358  24.419  1.00  0.00     0.007 C 
BRANCH  24  25
HETATM   25  C21 UNL     1      -7.888  16.022  24.443  1.00  0.00     0.001 C 
BRANCH  25  26
HETATM   26  C22 UNL     1      -7.892  17.438  24.944  1.00  0.00     0.007 C 
BRANCH  26  27
HETATM   27  C23 UNL     1      -6.742  17.700  25.894  1.00  0.00     0.078 C 
BRANCH  27  28
HETATM   28  C24 UNL     1      -7.286  18.259  27.146  1.00  0.00     0.129 C 
HETATM   29  O6  UNL     1      -6.955  19.338  27.538  1.00  0.00    -0.298 OA
BRANCH  28  30
HETATM   30  C25 UNL     1      -8.272  17.425  27.912  1.00  0.00     0.112 C 
BRANCH  30  31
HETATM   31  C26 UNL     1      -7.593  16.386  28.752  1.00  0.00     0.158 C 
BRANCH  31  32
HETATM   32  O7  UNL     1      -7.311  15.207  28.114  1.00  0.00    -0.393 OA
ATOM     33  H7  UNL     1      -8.007  14.560  28.129  1.00  0.00     0.210 HD
ENDBRANCH  31  32
BRANCH  31  34
HETATM   34  C27 UNL     1      -8.500  16.116  29.950  1.00  0.00     0.238 C 
HETATM   35  C28 UNL     1      -9.575  17.175  29.974  1.00  0.00     0.203 C 
HETATM   36  O8  UNL     1     -10.787  16.512  30.160  1.00  0.00    -0.387 OA
HETATM   37  C29 UNL     1     -10.649  15.689  31.271  1.00  0.00     0.195 C 
HETATM   38  C30 UNL     1      -9.859  14.456  30.875  1.00  0.00     0.259 C 
HETATM   39  N1  UNL     1      -9.086  14.792  29.713  1.00  0.00    -0.064 N 
ATOM     40  H12 UNL     1      -9.623  14.743  28.847  1.00  0.00     0.277 HD
ATOM     41  H11 UNL     1      -8.391  14.084  29.476  1.00  0.00     0.277 HD
ENDBRANCH  31  34
ENDBRANCH  30  31
ENDBRANCH  28  30
ENDBRANCH  27  28
ENDBRANCH  26  27
ENDBRANCH  25  26
ENDBRANCH  24  25
ENDBRANCH  23  24
ENDBRANCH  21  23
ENDBRANCH  20  21
ENDBRANCH  19  20
ENDBRANCH  17  19
ENDBRANCH  16  17
ENDBRANCH  12  16
BRANCH   7  42
HETATM   42  O2  UNL     1     -15.679  12.308  33.231  1.00  0.00    -0.379 OA
ATOM     43  H2  UNL     1     -16.439  12.867  33.338  1.00  0.00     0.211 HD
ENDBRANCH   7  42
BRANCH   1  44
HETATM   44  C3  UNL     1     -13.474  10.395  33.036  1.00  0.00    -0.051 C 
HETATM   45  C2  UNL     1     -12.862  11.241  33.834  1.00  0.00    -0.079 C 
HETATM   46  C1  UNL     1     -12.790  12.704  33.701  1.00  0.00     0.043 C 
HETATM   47  C38 UNL     1     -12.164  10.825  35.159  1.00  0.00     0.034 C 
HETATM   48  C37 UNL     1     -12.710   9.503  35.610  1.00  0.00     0.005 C 
HETATM   49  C36 UNL     1     -12.345   8.656  34.433  1.00  0.00     0.013 C 
HETATM   50  C33 UNL     1     -13.325   8.902  33.302  1.00  0.00    -0.023 C 
HETATM   51  C34 UNL     1     -14.571   8.238  33.801  1.00  0.00     0.019 C 
HETATM   52  C35 UNL     1     -12.614   8.168  32.180  1.00  0.00     0.019 C 
ENDBRANCH   1  44
TORSDOF 17
ENDMDL
