MODEL 1
REMARK VINA RESULT: -6.572491730      0.000      0.000
REMARK  17 active torsions:
REMARK  status: ('A' for Active; 'I' for Inactive)
REMARK    1  A    between atoms: C2_2  and  C3_3 
REMARK    2  A    between atoms: C3_3  and  C4_4 
REMARK    3  A    between atoms: C4_4  and  C5_5 
REMARK    4  A    between atoms: C5_5  and  C6_6 
REMARK    5  A    between atoms: C6_6  and  C8_8 
REMARK    6  A    between atoms: C10_12  and  C11_13 
REMARK    7  A    between atoms: C11_13  and  C12_14 
REMARK    8  A    between atoms: C12_14  and  C13_15 
REMARK    9  A    between atoms: C25_30  and  O4_31 
REMARK   10  A    between atoms: O4_31  and  C26_32 
REMARK   11  A    between atoms: C27_36  and  O5_37 
REMARK   12  A    between atoms: C28_39  and  O6_40 
REMARK   13  A    between atoms: C29_42  and  O7_43 
REMARK   14  A    between atoms: O7_43  and  C30_44 
REMARK   15  A    between atoms: C30_44  and  C31_46 
REMARK   16  A    between atoms: C31_46  and  C32_47 
REMARK   17  A    between atoms: C32_47  and  C33_48 
ROOT
HETATM    1  C8  UNL     1     -13.565  10.123  34.247  1.00  0.00     0.159 C 
HETATM    2  C9  UNL     1     -13.678   8.666  34.099  1.00  0.00     0.271 C 
HETATM    3  O1  UNL     1     -12.658   8.065  33.624  1.00  0.00    -0.264 OA
HETATM    4  O2  UNL     1     -14.743   7.935  34.412  1.00  0.00    -0.315 OA
HETATM    5  C10 UNL     1     -15.958   8.133  35.013  1.00  0.00     0.132 C 
HETATM    6  C15 UNL     1     -17.043   7.661  34.070  1.00  0.00     0.033 C 
HETATM    7  C16 UNL     1     -16.421   6.924  32.926  1.00  0.00     0.006 C 
HETATM    8  C17 UNL     1     -17.176   6.925  31.654  1.00  0.00     0.027 C 
HETATM    9  C18 UNL     1     -17.990   8.120  31.346  1.00  0.00    -0.030 C 
HETATM   10  C19 UNL     1     -17.636   9.352  31.176  1.00  0.00    -0.026 C 
HETATM   11  C20 UNL     1     -16.275   9.973  31.237  1.00  0.00     0.004 C 
HETATM   12  C21 UNL     1     -15.892  10.292  29.823  1.00  0.00     0.014 C 
HETATM   13  C22 UNL     1     -16.360  11.087  32.183  1.00  0.00     0.023 C 
HETATM   14  C23 UNL     1     -15.420  12.193  32.214  1.00  0.00     0.090 C 
HETATM   15  C24 UNL     1     -15.701  13.138  31.064  1.00  0.00     0.224 C 
HETATM   16  O3  UNL     1     -16.869  13.123  30.596  1.00  0.00    -0.273 OA
HETATM   17  N1  UNL     1     -14.736  14.021  30.502  1.00  0.00    -0.332 N 
ATOM     18  H1  UNL     1     -14.905  14.289  29.533  1.00  0.00     0.165 HD
HETATM   19  C25 UNL     1     -13.538  14.603  31.109  1.00  0.00     0.255 C 
HETATM   20  C29 UNL     1     -13.682  14.505  32.599  1.00  0.00     0.181 C 
HETATM   21  C35 UNL     1     -13.414  13.180  33.206  1.00  0.00     0.050 C 
HETATM   22  C36 UNL     1     -13.982  11.993  32.408  1.00  0.00     0.072 C 
HETATM   23  C37 UNL     1     -13.445  10.738  32.871  1.00  0.00     0.146 C 
HETATM   24  O9  UNL     1     -12.783   9.999  32.115  1.00  0.00    -0.297 OA
ENDROOT
BRANCH  19  25
HETATM   25  O4  UNL     1     -12.363  14.168  30.585  1.00  0.00    -0.329 OA
BRANCH  25  26
HETATM   26  C26 UNL     1     -11.549  15.098  29.999  1.00  0.00     0.359 C 
HETATM   27  N2  UNL     1     -10.248  14.475  29.700  1.00  0.00    -0.017 N 
HETATM   28  C27 UNL     1     -10.849  13.963  28.483  1.00  0.00     0.355 C 
ATOM     29  H22 UNL     1      -9.392  15.028  29.674  1.00  0.00     0.283 HD
ATOM     30  H21 UNL     1      -9.796  13.850  30.369  1.00  0.00     0.283 HD
HETATM   31  C28 UNL     1     -11.789  15.163  28.511  1.00  0.00     0.230 C 
BRANCH  28  32
HETATM   32  O5  UNL     1      -9.979  13.934  27.397  1.00  0.00    -0.368 OA
ATOM     33  H5  UNL     1     -10.252  13.345  26.703  1.00  0.00     0.212 HD
ENDBRANCH  28  32
BRANCH  31  34
HETATM   34  O6  UNL     1     -13.082  14.831  28.107  1.00  0.00    -0.387 OA
ATOM     35  H6  UNL     1     -13.132  14.286  27.332  1.00  0.00     0.210 HD
ENDBRANCH  31  34
ENDBRANCH  25  26
ENDBRANCH  19  25
BRANCH  20  36
HETATM   36  O7  UNL     1     -12.912  15.474  33.245  1.00  0.00    -0.311 OA
BRANCH  36  37
HETATM   37  C30 UNL     1     -11.983  15.175  34.211  1.00  0.00     0.259 C 
HETATM   38  O8  UNL     1     -12.297  15.494  35.408  1.00  0.00    -0.265 OA
BRANCH  37  39
HETATM   39  C31 UNL     1     -10.697  14.526  33.893  1.00  0.00     0.111 C 
BRANCH  39  40
HETATM   40  C32 UNL     1      -9.530  15.267  34.534  1.00  0.00     0.009 C 
BRANCH  40  41
HETATM   41  C33 UNL     1      -9.341  16.589  33.863  1.00  0.00    -0.004 C 
HETATM   42  C34 UNL     1      -8.897  16.371  32.416  1.00  0.00     0.005 C 
ENDBRANCH  40  41
ENDBRANCH  39  40
ENDBRANCH  37  39
ENDBRANCH  36  37
ENDBRANCH  20  36
BRANCH   1  43
HETATM   43  C6  UNL     1     -12.477  10.504  35.148  1.00  0.00     0.002 C 
HETATM   44  C7  UNL     1     -11.927   9.451  36.072  1.00  0.00     0.011 C 
BRANCH  43  45
HETATM   45  C5  UNL     1     -12.610  11.820  35.802  1.00  0.00     0.006 C 
BRANCH  45  46
HETATM   46  C4  UNL     1     -11.604  12.269  36.780  1.00  0.00     0.004 C 
BRANCH  46  47
HETATM   47  C3  UNL     1     -12.289  12.618  38.130  1.00  0.00     0.026 C 
BRANCH  47  48
HETATM   48  C2  UNL     1     -13.562  13.327  37.849  1.00  0.00    -0.037 C 
HETATM   49  C1  UNL     1     -14.196  14.098  38.718  1.00  0.00     0.007 C 
ENDBRANCH  47  48
ENDBRANCH  46  47
ENDBRANCH  45  46
ENDBRANCH  43  45
ENDBRANCH   1  43
BRANCH   5  50
HETATM   50  C11 UNL     1     -15.979   7.318  36.294  1.00  0.00     0.032 C 
BRANCH  50  51
HETATM   51  C12 UNL     1     -15.150   7.890  37.386  1.00  0.00     0.002 C 
BRANCH  51  52
HETATM   52  C13 UNL     1     -15.340   9.382  37.559  1.00  0.00    -0.004 C 
HETATM   53  C14 UNL     1     -14.647   9.872  38.817  1.00  0.00     0.005 C 
ENDBRANCH  51  52
ENDBRANCH  50  51
ENDBRANCH   5  50
TORSDOF 17
ENDMDL
MODEL 2
REMARK VINA RESULT: -6.522329073      3.270      8.197
REMARK  17 active torsions:
REMARK  status: ('A' for Active; 'I' for Inactive)
REMARK    1  A    between atoms: C2_2  and  C3_3 
REMARK    2  A    between atoms: C3_3  and  C4_4 
REMARK    3  A    between atoms: C4_4  and  C5_5 
REMARK    4  A    between atoms: C5_5  and  C6_6 
REMARK    5  A    between atoms: C6_6  and  C8_8 
REMARK    6  A    between atoms: C10_12  and  C11_13 
REMARK    7  A    between atoms: C11_13  and  C12_14 
REMARK    8  A    between atoms: C12_14  and  C13_15 
REMARK    9  A    between atoms: C25_30  and  O4_31 
REMARK   10  A    between atoms: O4_31  and  C26_32 
REMARK   11  A    between atoms: C27_36  and  O5_37 
REMARK   12  A    between atoms: C28_39  and  O6_40 
REMARK   13  A    between atoms: C29_42  and  O7_43 
REMARK   14  A    between atoms: O7_43  and  C30_44 
REMARK   15  A    between atoms: C30_44  and  C31_46 
REMARK   16  A    between atoms: C31_46  and  C32_47 
REMARK   17  A    between atoms: C32_47  and  C33_48 
ROOT
HETATM    1  C8  UNL     1     -12.195  12.550  34.082  1.00  0.00     0.159 C 
HETATM    2  C9  UNL     1     -12.823  13.670  33.369  1.00  0.00     0.271 C 
HETATM    3  O1  UNL     1     -13.294  14.608  34.092  1.00  0.00    -0.264 OA
HETATM    4  O2  UNL     1     -12.940  13.781  32.049  1.00  0.00    -0.315 OA
HETATM    5  C10 UNL     1     -12.513  13.099  30.941  1.00  0.00     0.132 C 
HETATM    6  C15 UNL     1     -13.720  12.738  30.104  1.00  0.00     0.033 C 
HETATM    7  C16 UNL     1     -14.924  13.450  30.636  1.00  0.00     0.006 C 
HETATM    8  C17 UNL     1     -16.233  12.804  30.390  1.00  0.00     0.027 C 
HETATM    9  C18 UNL     1     -16.266  11.327  30.347  1.00  0.00    -0.030 C 
HETATM   10  C19 UNL     1     -15.969  10.457  31.257  1.00  0.00    -0.026 C 
HETATM   11  C20 UNL     1     -15.490  10.666  32.661  1.00  0.00     0.004 C 
HETATM   12  C21 UNL     1     -16.643  10.324  33.556  1.00  0.00     0.014 C 
HETATM   13  C22 UNL     1     -14.262   9.883  32.809  1.00  0.00     0.023 C 
HETATM   14  C23 UNL     1     -13.724   9.464  34.091  1.00  0.00     0.090 C 
HETATM   15  C24 UNL     1     -14.536   8.307  34.636  1.00  0.00     0.224 C 
HETATM   16  O3  UNL     1     -15.168   7.617  33.794  1.00  0.00    -0.273 OA
HETATM   17  N1  UNL     1     -14.618   7.969  36.016  1.00  0.00    -0.332 N 
ATOM     18  H1  UNL     1     -15.463   7.469  36.291  1.00  0.00     0.165 HD
HETATM   19  C25 UNL     1     -13.670   8.232  37.100  1.00  0.00     0.255 C 
HETATM   20  C29 UNL     1     -12.336   8.530  36.482  1.00  0.00     0.181 C 
HETATM   21  C35 UNL     1     -12.155   9.888  35.918  1.00  0.00     0.050 C 
HETATM   22  C36 UNL     1     -13.375  10.420  35.144  1.00  0.00     0.072 C 
HETATM   23  C37 UNL     1     -13.260  11.833  34.881  1.00  0.00     0.146 C 
HETATM   24  O9  UNL     1     -14.096  12.643  35.327  1.00  0.00    -0.297 OA
ENDROOT
BRANCH  19  25
HETATM   25  O4  UNL     1     -14.109   9.105  38.044  1.00  0.00    -0.329 OA
BRANCH  25  26
HETATM   26  C26 UNL     1     -15.381   9.588  37.916  1.00  0.00     0.359 C 
HETATM   27  N2  UNL     1     -16.155   9.222  39.114  1.00  0.00    -0.017 N 
HETATM   28  C27 UNL     1     -15.580  10.386  39.760  1.00  0.00     0.355 C 
ATOM     29  H22 UNL     1     -17.166   9.089  39.069  1.00  0.00     0.283 HD
ATOM     30  H21 UNL     1     -16.076   8.294  39.530  1.00  0.00     0.283 HD
HETATM   31  C28 UNL     1     -15.462  11.022  38.379  1.00  0.00     0.230 C 
BRANCH  28  32
HETATM   32  O5  UNL     1     -16.454  11.038  40.624  1.00  0.00    -0.368 OA
ATOM     33  H5  UNL     1     -16.216  11.941  40.801  1.00  0.00     0.212 HD
ENDBRANCH  28  32
BRANCH  31  34
HETATM   34  O6  UNL     1     -14.285  11.756  38.234  1.00  0.00    -0.387 OA
ATOM     35  H6  UNL     1     -14.312  12.428  37.564  1.00  0.00     0.210 HD
ENDBRANCH  31  34
ENDBRANCH  25  26
ENDBRANCH  19  25
BRANCH  20  36
HETATM   36  O7  UNL     1     -11.296   8.256  37.373  1.00  0.00    -0.311 OA
BRANCH  36  37
HETATM   37  C30 UNL     1     -11.303   7.183  38.228  1.00  0.00     0.259 C 
HETATM   38  O8  UNL     1     -11.345   7.460  39.475  1.00  0.00    -0.265 OA
BRANCH  37  39
HETATM   39  C31 UNL     1     -11.263   5.790  37.744  1.00  0.00     0.111 C 
BRANCH  39  40
HETATM   40  C32 UNL     1      -9.990   5.083  38.196  1.00  0.00     0.009 C 
BRANCH  40  41
HETATM   41  C33 UNL     1      -9.768   3.860  37.366  1.00  0.00    -0.004 C 
HETATM   42  C34 UNL     1      -8.268   3.590  37.242  1.00  0.00     0.005 C 
ENDBRANCH  40  41
ENDBRANCH  39  40
ENDBRANCH  37  39
ENDBRANCH  36  37
ENDBRANCH  20  36
BRANCH   1  43
HETATM   43  C6  UNL     1     -11.056  12.979  34.893  1.00  0.00     0.002 C 
HETATM   44  C7  UNL     1     -11.303  13.291  36.344  1.00  0.00     0.011 C 
BRANCH  43  45
HETATM   45  C5  UNL     1     -10.134  13.938  34.256  1.00  0.00     0.006 C 
BRANCH  45  46
HETATM   46  C4  UNL     1      -9.807  15.211  34.923  1.00  0.00     0.004 C 
BRANCH  46  47
HETATM   47  C3  UNL     1     -10.021  16.398  33.944  1.00  0.00     0.026 C 
BRANCH  47  48
HETATM   48  C2  UNL     1      -8.964  16.356  32.905  1.00  0.00    -0.037 C 
HETATM   49  C1  UNL     1      -9.191  16.441  31.603  1.00  0.00     0.007 C 
ENDBRANCH  47  48
ENDBRANCH  46  47
ENDBRANCH  45  46
ENDBRANCH  43  45
ENDBRANCH   1  43
BRANCH   5  50
HETATM   50  C11 UNL     1     -11.585  14.015  30.162  1.00  0.00     0.032 C 
BRANCH  50  51
HETATM   51  C12 UNL     1     -11.860  14.051  28.702  1.00  0.00     0.002 C 
BRANCH  51  52
HETATM   52  C13 UNL     1     -12.104  15.449  28.176  1.00  0.00    -0.004 C 
HETATM   53  C14 UNL     1     -13.459  15.541  27.499  1.00  0.00     0.005 C 
ENDBRANCH  51  52
ENDBRANCH  50  51
ENDBRANCH   5  50
TORSDOF 17
ENDMDL
MODEL 3
REMARK VINA RESULT: -6.452180474      0.991      1.325
REMARK  17 active torsions:
REMARK  status: ('A' for Active; 'I' for Inactive)
REMARK    1  A    between atoms: C2_2  and  C3_3 
REMARK    2  A    between atoms: C3_3  and  C4_4 
REMARK    3  A    between atoms: C4_4  and  C5_5 
REMARK    4  A    between atoms: C5_5  and  C6_6 
REMARK    5  A    between atoms: C6_6  and  C8_8 
REMARK    6  A    between atoms: C10_12  and  C11_13 
REMARK    7  A    between atoms: C11_13  and  C12_14 
REMARK    8  A    between atoms: C12_14  and  C13_15 
REMARK    9  A    between atoms: C25_30  and  O4_31 
REMARK   10  A    between atoms: O4_31  and  C26_32 
REMARK   11  A    between atoms: C27_36  and  O5_37 
REMARK   12  A    between atoms: C28_39  and  O6_40 
REMARK   13  A    between atoms: C29_42  and  O7_43 
REMARK   14  A    between atoms: O7_43  and  C30_44 
REMARK   15  A    between atoms: C30_44  and  C31_46 
REMARK   16  A    between atoms: C31_46  and  C32_47 
REMARK   17  A    between atoms: C32_47  and  C33_48 
ROOT
HETATM    1  C8  UNL     1     -13.653  10.129  34.364  1.00  0.00     0.159 C 
HETATM    2  C9  UNL     1     -13.778   8.673  34.220  1.00  0.00     0.271 C 
HETATM    3  O1  UNL     1     -12.743   8.054  33.807  1.00  0.00    -0.264 OA
HETATM    4  O2  UNL     1     -14.869   7.959  34.478  1.00  0.00    -0.315 OA
HETATM    5  C10 UNL     1     -16.113   8.179  35.008  1.00  0.00     0.132 C 
HETATM    6  C15 UNL     1     -17.150   7.716  34.010  1.00  0.00     0.033 C 
HETATM    7  C16 UNL     1     -16.476   6.961  32.908  1.00  0.00     0.006 C 
HETATM    8  C17 UNL     1     -17.159   6.962  31.595  1.00  0.00     0.027 C 
HETATM    9  C18 UNL     1     -17.937   8.166  31.234  1.00  0.00    -0.030 C 
HETATM   10  C19 UNL     1     -17.556   9.391  31.076  1.00  0.00    -0.026 C 
HETATM   11  C20 UNL     1     -16.192   9.994  31.208  1.00  0.00     0.004 C 
HETATM   12  C21 UNL     1     -15.725  10.296  29.816  1.00  0.00     0.014 C 
HETATM   13  C22 UNL     1     -16.314  11.116  32.140  1.00  0.00     0.023 C 
HETATM   14  C23 UNL     1     -15.361  12.209  32.215  1.00  0.00     0.090 C 
HETATM   15  C24 UNL     1     -15.563  13.149  31.045  1.00  0.00     0.224 C 
HETATM   16  O3  UNL     1     -16.703  13.146  30.512  1.00  0.00    -0.273 OA
HETATM   17  N1  UNL     1     -14.555  14.014  30.532  1.00  0.00    -0.332 N 
ATOM     18  H1  UNL     1     -14.665  14.276  29.553  1.00  0.00     0.165 HD
HETATM   19  C25 UNL     1     -13.385  14.583  31.200  1.00  0.00     0.255 C 
HETATM   20  C29 UNL     1     -13.614  14.499  32.681  1.00  0.00     0.181 C 
HETATM   21  C35 UNL     1     -13.400  13.176  33.311  1.00  0.00     0.050 C 
HETATM   22  C36 UNL     1     -13.939  11.990  32.491  1.00  0.00     0.072 C 
HETATM   23  C37 UNL     1     -13.447  10.731  32.993  1.00  0.00     0.146 C 
HETATM   24  O9  UNL     1     -12.754   9.977  32.280  1.00  0.00    -0.297 OA
ENDROOT
BRANCH  19  25
HETATM   25  O4  UNL     1     -12.189  14.128  30.746  1.00  0.00    -0.329 OA
BRANCH  25  26
HETATM   26  C26 UNL     1     -11.812  14.491  29.483  1.00  0.00     0.359 C 
HETATM   27  N2  UNL     1     -12.132  15.914  29.278  1.00  0.00    -0.017 N 
HETATM   28  C27 UNL     1     -10.879  16.222  29.941  1.00  0.00     0.355 C 
ATOM     29  H22 UNL     1     -12.342  16.279  28.349  1.00  0.00     0.283 HD
ATOM     30  H21 UNL     1     -13.014  16.309  29.606  1.00  0.00     0.283 HD
HETATM   31  C28 UNL     1     -10.354  14.879  29.447  1.00  0.00     0.230 C 
BRANCH  28  32
HETATM   32  O5  UNL     1     -10.223  17.330  29.412  1.00  0.00    -0.368 OA
ATOM     33  H5  UNL     1     -10.568  17.616  28.574  1.00  0.00     0.212 HD
ENDBRANCH  28  32
BRANCH  31  34
HETATM   34  O6  UNL     1      -9.551  14.244  30.394  1.00  0.00    -0.387 OA
ATOM     35  H6  UNL     1      -9.440  14.719  31.208  1.00  0.00     0.210 HD
ENDBRANCH  31  34
ENDBRANCH  25  26
ENDBRANCH  19  25
BRANCH  20  36
HETATM   36  O7  UNL     1     -12.866  15.463  33.362  1.00  0.00    -0.311 OA
BRANCH  36  37
HETATM   37  C30 UNL     1     -11.979  15.156  34.363  1.00  0.00     0.259 C 
HETATM   38  O8  UNL     1     -12.341  15.468  35.548  1.00  0.00    -0.265 OA
BRANCH  37  39
HETATM   39  C31 UNL     1     -10.682  14.506  34.093  1.00  0.00     0.111 C 
BRANCH  39  40
HETATM   40  C32 UNL     1      -9.534  15.271  34.740  1.00  0.00     0.009 C 
BRANCH  40  41
HETATM   41  C33 UNL     1      -9.426  16.632  34.131  1.00  0.00    -0.004 C 
HETATM   42  C34 UNL     1      -8.731  16.531  32.772  1.00  0.00     0.005 C 
ENDBRANCH  40  41
ENDBRANCH  39  40
ENDBRANCH  37  39
ENDBRANCH  36  37
ENDBRANCH  20  36
BRANCH   1  43
HETATM   43  C6  UNL     1     -12.611  10.502  35.322  1.00  0.00     0.002 C 
HETATM   44  C7  UNL     1     -12.004   9.411  36.162  1.00  0.00     0.011 C 
BRANCH  43  45
HETATM   45  C5  UNL     1     -12.850  11.741  36.087  1.00  0.00     0.006 C 
BRANCH  45  46
HETATM   46  C4  UNL     1     -11.764  12.347  36.877  1.00  0.00     0.004 C 
BRANCH  46  47
HETATM   47  C3  UNL     1     -12.149  12.372  38.382  1.00  0.00     0.026 C 
BRANCH  47  48
HETATM   48  C2  UNL     1     -11.200  11.513  39.131  1.00  0.00    -0.037 C 
HETATM   49  C1  UNL     1     -11.556  10.485  39.886  1.00  0.00     0.007 C 
ENDBRANCH  47  48
ENDBRANCH  46  47
ENDBRANCH  45  46
ENDBRANCH  43  45
ENDBRANCH   1  43
BRANCH   5  50
HETATM   50  C11 UNL     1     -16.218   7.375  36.293  1.00  0.00     0.032 C 
BRANCH  50  51
HETATM   51  C12 UNL     1     -15.560   8.016  37.460  1.00  0.00     0.002 C 
BRANCH  51  52
HETATM   52  C13 UNL     1     -15.736   9.519  37.492  1.00  0.00    -0.004 C 
HETATM   53  C14 UNL     1     -15.070  10.114  38.719  1.00  0.00     0.005 C 
ENDBRANCH  51  52
ENDBRANCH  50  51
ENDBRANCH   5  50
TORSDOF 17
ENDMDL
MODEL 4
REMARK VINA RESULT: -6.451441106      2.495      7.185
REMARK  17 active torsions:
REMARK  status: ('A' for Active; 'I' for Inactive)
REMARK    1  A    between atoms: C2_2  and  C3_3 
REMARK    2  A    between atoms: C3_3  and  C4_4 
REMARK    3  A    between atoms: C4_4  and  C5_5 
REMARK    4  A    between atoms: C5_5  and  C6_6 
REMARK    5  A    between atoms: C6_6  and  C8_8 
REMARK    6  A    between atoms: C10_12  and  C11_13 
REMARK    7  A    between atoms: C11_13  and  C12_14 
REMARK    8  A    between atoms: C12_14  and  C13_15 
REMARK    9  A    between atoms: C25_30  and  O4_31 
REMARK   10  A    between atoms: O4_31  and  C26_32 
REMARK   11  A    between atoms: C27_36  and  O5_37 
REMARK   12  A    between atoms: C28_39  and  O6_40 
REMARK   13  A    between atoms: C29_42  and  O7_43 
REMARK   14  A    between atoms: O7_43  and  C30_44 
REMARK   15  A    between atoms: C30_44  and  C31_46 
REMARK   16  A    between atoms: C31_46  and  C32_47 
REMARK   17  A    between atoms: C32_47  and  C33_48 
ROOT
HETATM    1  C8  UNL     1     -12.528  13.229  33.897  1.00  0.00     0.159 C 
HETATM    2  C9  UNL     1     -12.612  14.465  33.108  1.00  0.00     0.271 C 
HETATM    3  O1  UNL     1     -13.570  15.255  33.395  1.00  0.00    -0.264 OA
HETATM    4  O2  UNL     1     -11.783  14.819  32.131  1.00  0.00    -0.315 OA
HETATM    5  C10 UNL     1     -10.619  14.353  31.581  1.00  0.00     0.132 C 
HETATM    6  C15 UNL     1     -10.832  14.159  30.096  1.00  0.00     0.033 C 
HETATM    7  C16 UNL     1     -12.141  14.765  29.699  1.00  0.00     0.006 C 
HETATM    8  C17 UNL     1     -12.803  14.183  28.511  1.00  0.00     0.027 C 
HETATM    9  C18 UNL     1     -12.606  12.740  28.261  1.00  0.00    -0.030 C 
HETATM   10  C19 UNL     1     -12.923  11.715  28.982  1.00  0.00    -0.026 C 
HETATM   11  C20 UNL     1     -13.599  11.657  30.318  1.00  0.00     0.004 C 
HETATM   12  C21 UNL     1     -14.991  11.161  30.067  1.00  0.00     0.014 C 
HETATM   13  C22 UNL     1     -12.741  10.855  31.191  1.00  0.00     0.023 C 
HETATM   14  C23 UNL     1     -13.208  10.202  32.402  1.00  0.00     0.090 C 
HETATM   15  C24 UNL     1     -14.011   8.969  32.043  1.00  0.00     0.224 C 
HETATM   16  O3  UNL     1     -13.775   8.450  30.921  1.00  0.00    -0.273 OA
HETATM   17  N1  UNL     1     -14.993   8.381  32.890  1.00  0.00    -0.332 N 
ATOM     18  H1  UNL     1     -15.714   7.843  32.410  1.00  0.00     0.165 HD
HETATM   19  C25 UNL     1     -15.122   8.434  34.347  1.00  0.00     0.255 C 
HETATM   20  C29 UNL     1     -13.791   8.835  34.912  1.00  0.00     0.181 C 
HETATM   21  C35 UNL     1     -13.444  10.273  34.834  1.00  0.00     0.050 C 
HETATM   22  C36 UNL     1     -13.825  10.945  33.503  1.00  0.00     0.072 C 
HETATM   23  C37 UNL     1     -13.742  12.382  33.592  1.00  0.00     0.146 C 
HETATM   24  O9  UNL     1     -14.746  13.099  33.411  1.00  0.00    -0.297 OA
ENDROOT
BRANCH  19  25
HETATM   25  O4  UNL     1     -16.203   9.118  34.800  1.00  0.00    -0.329 OA
BRANCH  25  26
HETATM   26  C26 UNL     1     -17.413   8.844  34.225  1.00  0.00     0.359 C 
HETATM   27  N2  UNL     1     -18.474   9.024  35.230  1.00  0.00    -0.017 N 
HETATM   28  C27 UNL     1     -18.438  10.439  34.917  1.00  0.00     0.355 C 
ATOM     29  H22 UNL     1     -19.344   8.494  35.180  1.00  0.00     0.283 HD
ATOM     30  H21 UNL     1     -18.355   8.692  36.188  1.00  0.00     0.283 HD
HETATM   31  C28 UNL     1     -17.962  10.059  33.519  1.00  0.00     0.230 C 
BRANCH  28  32
HETATM   32  O5  UNL     1     -19.686  11.055  34.956  1.00  0.00    -0.368 OA
ATOM     33  H5  UNL     1     -20.372  10.506  35.318  1.00  0.00     0.212 HD
ENDBRANCH  28  32
BRANCH  31  34
HETATM   34  O6  UNL     1     -17.000  10.942  33.029  1.00  0.00    -0.387 OA
ATOM     35  H6  UNL     1     -17.321  11.577  32.401  1.00  0.00     0.210 HD
ENDBRANCH  31  34
ENDBRANCH  25  26
ENDBRANCH  19  25
BRANCH  20  36
HETATM   36  O7  UNL     1     -13.651   8.395  36.231  1.00  0.00    -0.311 OA
BRANCH  36  37
HETATM   37  C30 UNL     1     -12.655   7.541  36.636  1.00  0.00     0.259 C 
HETATM   38  O8  UNL     1     -12.731   6.344  36.197  1.00  0.00    -0.265 OA
BRANCH  37  39
HETATM   39  C31 UNL     1     -11.561   7.974  37.526  1.00  0.00     0.111 C 
BRANCH  39  40
HETATM   40  C32 UNL     1     -12.067   8.932  38.598  1.00  0.00     0.009 C 
BRANCH  40  41
HETATM   41  C33 UNL     1     -11.735  10.338  38.216  1.00  0.00    -0.004 C 
HETATM   42  C34 UNL     1     -11.473  11.164  39.477  1.00  0.00     0.005 C 
ENDBRANCH  40  41
ENDBRANCH  39  40
ENDBRANCH  37  39
ENDBRANCH  36  37
ENDBRANCH  20  36
BRANCH   1  43
HETATM   43  C6  UNL     1     -12.353  13.495  35.325  1.00  0.00     0.002 C 
HETATM   44  C7  UNL     1     -11.123  12.947  35.997  1.00  0.00     0.011 C 
BRANCH  43  45
HETATM   45  C5  UNL     1     -13.562  13.364  36.160  1.00  0.00     0.006 C 
BRANCH  45  46
HETATM   46  C4  UNL     1     -13.492  13.604  37.612  1.00  0.00     0.004 C 
BRANCH  46  47
HETATM   47  C3  UNL     1     -14.727  12.978  38.316  1.00  0.00     0.026 C 
BRANCH  47  48
HETATM   48  C2  UNL     1     -15.247  11.873  37.475  1.00  0.00    -0.037 C 
HETATM   49  C1  UNL     1     -15.593  10.681  37.935  1.00  0.00     0.007 C 
ENDBRANCH  47  48
ENDBRANCH  46  47
ENDBRANCH  45  46
ENDBRANCH  43  45
ENDBRANCH   1  43
BRANCH   5  50
HETATM   50  C11 UNL     1      -9.539  15.393  31.829  1.00  0.00     0.032 C 
BRANCH  50  51
HETATM   51  C12 UNL     1      -8.944  15.330  33.189  1.00  0.00     0.002 C 
BRANCH  51  52
HETATM   52  C13 UNL     1      -9.473  16.398  34.121  1.00  0.00    -0.004 C 
HETATM   53  C14 UNL     1      -9.543  15.883  35.547  1.00  0.00     0.005 C 
ENDBRANCH  51  52
ENDBRANCH  50  51
ENDBRANCH   5  50
TORSDOF 17
ENDMDL
MODEL 5
REMARK VINA RESULT: -6.437591175      3.027      6.603
REMARK  17 active torsions:
REMARK  status: ('A' for Active; 'I' for Inactive)
REMARK    1  A    between atoms: C2_2  and  C3_3 
REMARK    2  A    between atoms: C3_3  and  C4_4 
REMARK    3  A    between atoms: C4_4  and  C5_5 
REMARK    4  A    between atoms: C5_5  and  C6_6 
REMARK    5  A    between atoms: C6_6  and  C8_8 
REMARK    6  A    between atoms: C10_12  and  C11_13 
REMARK    7  A    between atoms: C11_13  and  C12_14 
REMARK    8  A    between atoms: C12_14  and  C13_15 
REMARK    9  A    between atoms: C25_30  and  O4_31 
REMARK   10  A    between atoms: O4_31  and  C26_32 
REMARK   11  A    between atoms: C27_36  and  O5_37 
REMARK   12  A    between atoms: C28_39  and  O6_40 
REMARK   13  A    between atoms: C29_42  and  O7_43 
REMARK   14  A    between atoms: O7_43  and  C30_44 
REMARK   15  A    between atoms: C30_44  and  C31_46 
REMARK   16  A    between atoms: C31_46  and  C32_47 
REMARK   17  A    between atoms: C32_47  and  C33_48 
ROOT
HETATM    1  C8  UNL     1     -14.796  10.669  33.552  1.00  0.00     0.159 C 
HETATM    2  C9  UNL     1     -15.641   9.470  33.459  1.00  0.00     0.271 C 
HETATM    3  O1  UNL     1     -16.876   9.626  33.736  1.00  0.00    -0.264 OA
HETATM    4  O2  UNL     1     -15.226   8.255  33.118  1.00  0.00    -0.315 OA
HETATM    5  C10 UNL     1     -14.070   7.676  32.666  1.00  0.00     0.132 C 
HETATM    6  C15 UNL     1     -13.697   6.549  33.604  1.00  0.00     0.033 C 
HETATM    7  C16 UNL     1     -14.830   6.294  34.548  1.00  0.00     0.006 C 
HETATM    8  C17 UNL     1     -14.474   5.714  35.862  1.00  0.00     0.027 C 
HETATM    9  C18 UNL     1     -13.164   6.084  36.437  1.00  0.00    -0.030 C 
HETATM   10  C19 UNL     1     -12.699   7.240  36.783  1.00  0.00    -0.026 C 
HETATM   11  C20 UNL     1     -13.343   8.590  36.713  1.00  0.00     0.004 C 
HETATM   12  C21 UNL     1     -13.685   8.970  38.123  1.00  0.00     0.014 C 
HETATM   13  C22 UNL     1     -12.422   9.461  35.982  1.00  0.00     0.023 C 
HETATM   14  C23 UNL     1     -12.449  10.911  36.060  1.00  0.00     0.090 C 
HETATM   15  C24 UNL     1     -11.847  11.366  37.374  1.00  0.00     0.224 C 
HETATM   16  O3  UNL     1     -11.046  10.571  37.931  1.00  0.00    -0.273 OA
HETATM   17  N1  UNL     1     -12.135  12.615  37.993  1.00  0.00    -0.332 N 
ATOM     18  H1  UNL     1     -12.009  12.637  39.005  1.00  0.00     0.165 HD
HETATM   19  C25 UNL     1     -12.583  13.872  37.395  1.00  0.00     0.255 C 
HETATM   20  C29 UNL     1     -12.274  13.820  35.928  1.00  0.00     0.181 C 
HETATM   21  C35 UNL     1     -13.195  13.024  35.083  1.00  0.00     0.050 C 
HETATM   22  C36 UNL     1     -13.638  11.691  35.713  1.00  0.00     0.072 C 
HETATM   23  C37 UNL     1     -14.747  11.110  34.998  1.00  0.00     0.146 C 
HETATM   24  O9  UNL     1     -15.843  10.910  35.557  1.00  0.00    -0.297 OA
ENDROOT
BRANCH  19  25
HETATM   25  O4  UNL     1     -13.843  14.250  37.735  1.00  0.00    -0.329 OA
BRANCH  25  26
HETATM   26  C26 UNL     1     -14.340  13.794  38.924  1.00  0.00     0.359 C 
HETATM   27  N2  UNL     1     -14.649  14.947  39.787  1.00  0.00    -0.017 N 
HETATM   28  C27 UNL     1     -15.914  15.049  39.085  1.00  0.00     0.355 C 
ATOM     29  H22 UNL     1     -14.614  14.870  40.803  1.00  0.00     0.283 HD
ATOM     30  H21 UNL     1     -14.014  15.744  39.850  1.00  0.00     0.283 HD
HETATM   31  C28 UNL     1     -15.826  13.549  38.828  1.00  0.00     0.230 C 
BRANCH  28  32
HETATM   32  O5  UNL     1     -16.977  15.436  39.896  1.00  0.00    -0.368 OA
ATOM     33  H5  UNL     1     -16.957  16.355  40.140  1.00  0.00     0.212 HD
ENDBRANCH  28  32
BRANCH  31  34
HETATM   34  O6  UNL     1     -16.286  13.203  37.558  1.00  0.00    -0.387 OA
ATOM     35  H6  UNL     1     -15.671  13.361  36.852  1.00  0.00     0.210 HD
ENDBRANCH  31  34
ENDBRANCH  25  26
ENDBRANCH  19  25
BRANCH  20  36
HETATM   36  O7  UNL     1     -12.149  15.104  35.393  1.00  0.00    -0.311 OA
BRANCH  36  37
HETATM   37  C30 UNL     1     -11.029  15.534  34.724  1.00  0.00     0.259 C 
HETATM   38  O8  UNL     1     -10.913  16.798  34.580  1.00  0.00    -0.265 OA
BRANCH  37  39
HETATM   39  C31 UNL     1     -10.017  14.597  34.201  1.00  0.00     0.111 C 
BRANCH  39  40
HETATM   40  C32 UNL     1      -8.965  15.325  33.372  1.00  0.00     0.009 C 
BRANCH  40  41
HETATM   41  C33 UNL     1      -9.133  14.983  31.927  1.00  0.00    -0.004 C 
HETATM   42  C34 UNL     1      -9.385  16.260  31.124  1.00  0.00     0.005 C 
ENDBRANCH  40  41
ENDBRANCH  39  40
ENDBRANCH  37  39
ENDBRANCH  36  37
ENDBRANCH  20  36
BRANCH   1  43
HETATM   43  C6  UNL     1     -15.234  11.726  32.640  1.00  0.00     0.002 C 
HETATM   44  C7  UNL     1     -15.366  11.385  31.180  1.00  0.00     0.011 C 
BRANCH  43  45
HETATM   45  C5  UNL     1     -14.640  13.058  32.861  1.00  0.00     0.006 C 
BRANCH  45  46
HETATM   46  C4  UNL     1     -14.478  13.995  31.735  1.00  0.00     0.004 C 
BRANCH  46  47
HETATM   47  C3  UNL     1     -13.015  14.513  31.678  1.00  0.00     0.026 C 
BRANCH  47  48
HETATM   48  C2  UNL     1     -12.468  14.247  30.325  1.00  0.00    -0.037 C 
HETATM   49  C1  UNL     1     -12.271  13.038  29.822  1.00  0.00     0.007 C 
ENDBRANCH  47  48
ENDBRANCH  46  47
ENDBRANCH  45  46
ENDBRANCH  43  45
ENDBRANCH   1  43
BRANCH   5  50
HETATM   50  C11 UNL     1     -14.336   7.138  31.271  1.00  0.00     0.032 C 
BRANCH  50  51
HETATM   51  C12 UNL     1     -13.203   6.366  30.698  1.00  0.00     0.002 C 
BRANCH  51  52
HETATM   52  C13 UNL     1     -11.944   7.189  30.532  1.00  0.00    -0.004 C 
HETATM   53  C14 UNL     1     -10.921   6.448  29.691  1.00  0.00     0.005 C 
ENDBRANCH  51  52
ENDBRANCH  50  51
ENDBRANCH   5  50
TORSDOF 17
ENDMDL
