MODEL 1
REMARK VINA RESULT: -7.591474429      0.000      0.000
REMARK  16 active torsions:
REMARK  status: ('A' for Active; 'I' for Inactive)
REMARK    1  A    between atoms: C2_2  and  C3_3 
REMARK    2  A    between atoms: C3_3  and  C4_4 
REMARK    3  A    between atoms: C4_4  and  C5_5 
REMARK    4  A    between atoms: C4_4  and  C27_38 
REMARK    5  A    between atoms: C5_5  and  C6_6 
REMARK    6  A    between atoms: C6_6  and  C7_7 
REMARK    7  A    between atoms: C7_7  and  C8_8 
REMARK    8  A    between atoms: C8_8  and  N1_9 
REMARK       I    between atoms: N1_9  and  C9_11 
REMARK    9  A    between atoms: C9_11  and  C10_13 
REMARK       I    between atoms: N2_14  and  C11_15 
REMARK   10  A    between atoms: C11_15  and  O3_17 
REMARK   11  A    between atoms: O3_17  and  C12_18 
REMARK   12  A    between atoms: C21_29  and  C22_30 
REMARK   13  A    between atoms: C22_30  and  O5_32 
REMARK       I    between atoms: C27_38  and  N4_40 
REMARK   14  A    between atoms: N4_40  and  S2_42 
REMARK   15  A    between atoms: S2_42  and  C28_45 
REMARK   16  A    between atoms: C28_45  and  C30_47 
ROOT
HETATM    1  C10 UNL     1     -13.234  13.609  31.511  1.00  0.00     0.103 C 
HETATM    2  N2  UNL     1     -13.048  12.287  30.868  1.00  0.00    -0.278 N 
HETATM    3  C11 UNL     1     -12.431  12.264  29.630  1.00  0.00     0.369 C 
HETATM    4  O2  UNL     1     -12.155  11.257  28.906  1.00  0.00    -0.238 OA
HETATM    5  C16 UNL     1     -13.585  11.104  31.523  1.00  0.00     0.073 C 
HETATM    6  C17 UNL     1     -13.002   9.886  30.853  1.00  0.00     0.078 C 
HETATM    7  C18 UNL     1     -13.281   8.613  31.640  1.00  0.00     0.062 C 
HETATM    8  N3  UNL     1     -12.750   8.645  32.942  1.00  0.00    -0.382 N 
ATOM      9  H3  UNL     1     -12.398   7.796  33.387  1.00  0.00     0.163 HD
HETATM   10  C19 UNL     1     -12.718   9.872  33.608  1.00  0.00     0.062 C 
HETATM   11  C20 UNL     1     -13.207  11.110  32.987  1.00  0.00     0.078 C 
HETATM   12  C21 UNL     1     -15.041  11.175  31.215  1.00  0.00     0.177 C 
HETATM   13  S1  UNL     1     -15.622  12.770  30.550  1.00  0.00    -0.136 SA
HETATM   14  C24 UNL     1     -14.541  14.171  31.086  1.00  0.00     0.050 C 
HETATM   15  C25 UNL     1     -15.311  14.786  32.254  1.00  0.00     0.034 C 
HETATM   16  C26 UNL     1     -14.554  15.134  29.962  1.00  0.00     0.034 C 
ENDROOT
BRANCH   1  17
HETATM   17  C9  UNL     1     -12.038  14.406  31.555  1.00  0.00     0.266 C 
HETATM   18  N1  UNL     1     -11.791  15.569  30.794  1.00  0.00    -0.356 N 
ATOM     19  H1  UNL     1     -12.500  15.890  30.134  1.00  0.00     0.162 HD
HETATM   20  O1  UNL     1     -11.052  14.094  32.341  1.00  0.00    -0.266 OA
BRANCH  18  21
HETATM   21  C8  UNL     1     -10.564  16.316  30.924  1.00  0.00     0.123 C 
BRANCH  21  22
HETATM   22  C7  UNL     1     -10.435  17.265  29.773  1.00  0.00     0.020 C 
BRANCH  22  23
HETATM   23  C6  UNL     1      -9.108  17.022  29.029  1.00  0.00     0.002 C 
BRANCH  23  24
HETATM   24  C5  UNL     1      -9.324  17.420  27.608  1.00  0.00     0.014 C 
BRANCH  24  25
HETATM   25  C4  UNL     1      -8.223  17.027  26.660  1.00  0.00     0.079 C 
BRANCH  25  26
HETATM   26  C3  UNL     1      -6.967  17.812  26.843  1.00  0.00     0.013 C 
BRANCH  26  27
HETATM   27  C2  UNL     1      -5.792  16.927  27.200  1.00  0.00    -0.004 C 
HETATM   28  C1  UNL     1      -4.841  16.925  26.022  1.00  0.00     0.005 C 
ENDBRANCH  26  27
ENDBRANCH  25  26
BRANCH  25  29
HETATM   29  C27 UNL     1      -8.649  16.893  25.273  1.00  0.00     0.235 C 
HETATM   30  O6  UNL     1      -9.621  17.564  24.816  1.00  0.00    -0.272 OA
HETATM   31  N4  UNL     1      -7.986  16.004  24.381  1.00  0.00    -0.254 N 
ATOM     32  H4  UNL     1      -7.207  15.463  24.757  1.00  0.00     0.181 HD
BRANCH  31  33
HETATM   33  S2  UNL     1      -8.376  15.761  22.743  1.00  0.00     0.236 S 
HETATM   34  O7  UNL     1      -7.972  14.342  22.361  1.00  0.00    -0.205 OA
HETATM   35  O8  UNL     1      -9.837  15.895  22.526  1.00  0.00    -0.205 OA
BRANCH  33  36
HETATM   36  C28 UNL     1      -7.480  16.818  21.630  1.00  0.00     0.125 C 
HETATM   37  C29 UNL     1      -7.145  18.105  22.385  1.00  0.00     0.028 C 
BRANCH  36  38
HETATM   38  C30 UNL     1      -8.315  17.241  20.440  1.00  0.00     0.017 C 
HETATM   39  C31 UNL     1      -8.333  16.236  19.327  1.00  0.00     0.006 C 
ENDBRANCH  36  38
ENDBRANCH  33  36
ENDBRANCH  31  33
ENDBRANCH  25  29
ENDBRANCH  24  25
ENDBRANCH  23  24
ENDBRANCH  22  23
ENDBRANCH  21  22
ENDBRANCH  18  21
ENDBRANCH   1  17
BRANCH   3  40
HETATM   40  O3  UNL     1     -12.011  13.445  28.988  1.00  0.00    -0.294 OA
BRANCH  40  41
HETATM   41  C12 UNL     1     -11.824  13.623  27.640  1.00  0.00     0.061 C 
HETATM   42  C13 UNL     1     -12.571  14.844  27.142  1.00  0.00     0.046 C 
HETATM   43  C14 UNL     1     -12.168  12.475  26.756  1.00  0.00     0.046 C 
HETATM   44  C15 UNL     1     -10.331  13.902  27.423  1.00  0.00     0.046 C 
ENDBRANCH  40  41
ENDBRANCH   3  40
BRANCH  12  45
HETATM   45  C22 UNL     1     -16.018  10.748  32.176  1.00  0.00     0.275 C 
HETATM   46  O4  UNL     1     -16.465  11.413  33.106  1.00  0.00    -0.264 OA
BRANCH  45  47
HETATM   47  O5  UNL     1     -16.553   9.440  32.091  1.00  0.00    -0.326 OA
HETATM   48  C23 UNL     1     -16.923   8.890  30.849  1.00  0.00     0.213 C 
ENDBRANCH  45  47
ENDBRANCH  12  45
TORSDOF 16
ENDMDL
MODEL 2
REMARK VINA RESULT: -7.277181102      4.122      7.590
REMARK  16 active torsions:
REMARK  status: ('A' for Active; 'I' for Inactive)
REMARK    1  A    between atoms: C2_2  and  C3_3 
REMARK    2  A    between atoms: C3_3  and  C4_4 
REMARK    3  A    between atoms: C4_4  and  C5_5 
REMARK    4  A    between atoms: C4_4  and  C27_38 
REMARK    5  A    between atoms: C5_5  and  C6_6 
REMARK    6  A    between atoms: C6_6  and  C7_7 
REMARK    7  A    between atoms: C7_7  and  C8_8 
REMARK    8  A    between atoms: C8_8  and  N1_9 
REMARK       I    between atoms: N1_9  and  C9_11 
REMARK    9  A    between atoms: C9_11  and  C10_13 
REMARK       I    between atoms: N2_14  and  C11_15 
REMARK   10  A    between atoms: C11_15  and  O3_17 
REMARK   11  A    between atoms: O3_17  and  C12_18 
REMARK   12  A    between atoms: C21_29  and  C22_30 
REMARK   13  A    between atoms: C22_30  and  O5_32 
REMARK       I    between atoms: C27_38  and  N4_40 
REMARK   14  A    between atoms: N4_40  and  S2_42 
REMARK   15  A    between atoms: S2_42  and  C28_45 
REMARK   16  A    between atoms: C28_45  and  C30_47 
ROOT
HETATM    1  C10 UNL     1     -15.505  10.704  34.635  1.00  0.00     0.103 C 
HETATM    2  N2  UNL     1     -14.082  10.461  34.967  1.00  0.00    -0.278 N 
HETATM    3  C11 UNL     1     -13.325   9.760  34.045  1.00  0.00     0.369 C 
HETATM    4  O2  UNL     1     -12.094   9.451  34.109  1.00  0.00    -0.238 OA
HETATM    5  C16 UNL     1     -13.576  10.899  36.259  1.00  0.00     0.073 C 
HETATM    6  C17 UNL     1     -12.070  10.829  36.228  1.00  0.00     0.078 C 
HETATM    7  C18 UNL     1     -11.440  11.526  37.425  1.00  0.00     0.062 C 
HETATM    8  N3  UNL     1     -11.776  12.890  37.506  1.00  0.00    -0.382 N 
ATOM      9  H3  UNL     1     -11.112  13.573  37.872  1.00  0.00     0.163 HD
HETATM   10  C19 UNL     1     -13.044  13.281  37.071  1.00  0.00     0.062 C 
HETATM   11  C20 UNL     1     -14.014  12.320  36.530  1.00  0.00     0.078 C 
HETATM   12  C21 UNL     1     -14.088   9.858  37.195  1.00  0.00     0.177 C 
HETATM   13  S1  UNL     1     -15.373   8.759  36.514  1.00  0.00    -0.136 SA
HETATM   14  C24 UNL     1     -16.318   9.573  35.149  1.00  0.00     0.050 C 
HETATM   15  C25 UNL     1     -17.597  10.048  35.837  1.00  0.00     0.034 C 
HETATM   16  C26 UNL     1     -16.673   8.485  34.209  1.00  0.00     0.034 C 
ENDROOT
BRANCH   1  17
HETATM   17  C9  UNL     1     -15.709  11.258  33.324  1.00  0.00     0.266 C 
HETATM   18  N1  UNL     1     -14.750  11.968  32.569  1.00  0.00    -0.356 N 
ATOM     19  H1  UNL     1     -13.826  12.131  32.968  1.00  0.00     0.162 HD
HETATM   20  O1  UNL     1     -16.848  11.135  32.712  1.00  0.00    -0.266 OA
BRANCH  18  21
HETATM   21  C8  UNL     1     -15.043  12.468  31.247  1.00  0.00     0.123 C 
BRANCH  21  22
HETATM   22  C7  UNL     1     -14.418  11.568  30.226  1.00  0.00     0.020 C 
BRANCH  22  23
HETATM   23  C6  UNL     1     -13.066  12.145  29.765  1.00  0.00     0.002 C 
BRANCH  23  24
HETATM   24  C5  UNL     1     -13.254  13.614  29.593  1.00  0.00     0.014 C 
BRANCH  24  25
HETATM   25  C4  UNL     1     -12.059  14.352  29.050  1.00  0.00     0.079 C 
BRANCH  25  26
HETATM   26  C3  UNL     1     -11.217  13.532  28.131  1.00  0.00     0.013 C 
BRANCH  26  27
HETATM   27  C2  UNL     1     -11.531  13.808  26.676  1.00  0.00    -0.004 C 
HETATM   28  C1  UNL     1     -10.364  14.573  26.088  1.00  0.00     0.005 C 
ENDBRANCH  26  27
ENDBRANCH  25  26
BRANCH  25  29
HETATM   29  C27 UNL     1     -11.304  15.088  30.056  1.00  0.00     0.235 C 
HETATM   30  O6  UNL     1     -11.236  16.353  30.033  1.00  0.00    -0.272 OA
HETATM   31  N4  UNL     1     -10.617  14.412  31.103  1.00  0.00    -0.254 N 
ATOM     32  H4  UNL     1     -10.672  13.393  31.113  1.00  0.00     0.181 HD
BRANCH  31  33
HETATM   33  S2  UNL     1      -9.711  15.149  32.339  1.00  0.00     0.236 S 
HETATM   34  O7  UNL     1      -8.887  14.072  33.036  1.00  0.00    -0.205 OA
HETATM   35  O8  UNL     1      -8.773  16.151  31.777  1.00  0.00    -0.205 OA
BRANCH  33  36
HETATM   36  C28 UNL     1     -10.707  15.877  33.619  1.00  0.00     0.125 C 
HETATM   37  C29 UNL     1      -9.818  16.056  34.850  1.00  0.00     0.028 C 
BRANCH  36  38
HETATM   38  C30 UNL     1     -11.839  14.970  34.054  1.00  0.00     0.017 C 
HETATM   39  C31 UNL     1     -13.095  15.146  33.254  1.00  0.00     0.006 C 
ENDBRANCH  36  38
ENDBRANCH  33  36
ENDBRANCH  31  33
ENDBRANCH  25  29
ENDBRANCH  24  25
ENDBRANCH  23  24
ENDBRANCH  22  23
ENDBRANCH  21  22
ENDBRANCH  18  21
ENDBRANCH   1  17
BRANCH   3  40
HETATM   40  O3  UNL     1     -13.880   9.273  32.847  1.00  0.00    -0.294 OA
BRANCH  40  41
HETATM   41  C12 UNL     1     -13.600   8.073  32.242  1.00  0.00     0.061 C 
HETATM   42  C13 UNL     1     -13.612   6.938  33.246  1.00  0.00     0.046 C 
HETATM   43  C14 UNL     1     -12.332   7.992  31.465  1.00  0.00     0.046 C 
HETATM   44  C15 UNL     1     -14.734   7.792  31.247  1.00  0.00     0.046 C 
ENDBRANCH  40  41
ENDBRANCH   3  40
BRANCH  12  45
HETATM   45  C22 UNL     1     -14.504  10.205  38.525  1.00  0.00     0.275 C 
HETATM   46  O4  UNL     1     -13.771  10.388  39.493  1.00  0.00    -0.264 OA
BRANCH  45  47
HETATM   47  O5  UNL     1     -15.882  10.363  38.805  1.00  0.00    -0.326 OA
HETATM   48  C23 UNL     1     -16.385  11.586  39.290  1.00  0.00     0.213 C 
ENDBRANCH  45  47
ENDBRANCH  12  45
TORSDOF 16
ENDMDL
MODEL 3
REMARK VINA RESULT: -7.238412419      3.965      6.917
REMARK  16 active torsions:
REMARK  status: ('A' for Active; 'I' for Inactive)
REMARK    1  A    between atoms: C2_2  and  C3_3 
REMARK    2  A    between atoms: C3_3  and  C4_4 
REMARK    3  A    between atoms: C4_4  and  C5_5 
REMARK    4  A    between atoms: C4_4  and  C27_38 
REMARK    5  A    between atoms: C5_5  and  C6_6 
REMARK    6  A    between atoms: C6_6  and  C7_7 
REMARK    7  A    between atoms: C7_7  and  C8_8 
REMARK    8  A    between atoms: C8_8  and  N1_9 
REMARK       I    between atoms: N1_9  and  C9_11 
REMARK    9  A    between atoms: C9_11  and  C10_13 
REMARK       I    between atoms: N2_14  and  C11_15 
REMARK   10  A    between atoms: C11_15  and  O3_17 
REMARK   11  A    between atoms: O3_17  and  C12_18 
REMARK   12  A    between atoms: C21_29  and  C22_30 
REMARK   13  A    between atoms: C22_30  and  O5_32 
REMARK       I    between atoms: C27_38  and  N4_40 
REMARK   14  A    between atoms: N4_40  and  S2_42 
REMARK   15  A    between atoms: S2_42  and  C28_45 
REMARK   16  A    between atoms: C28_45  and  C30_47 
ROOT
HETATM    1  C10 UNL     1     -15.502  10.685  34.799  1.00  0.00     0.103 C 
HETATM    2  N2  UNL     1     -14.072  10.454  35.111  1.00  0.00    -0.278 N 
HETATM    3  C11 UNL     1     -13.311   9.801  34.158  1.00  0.00     0.369 C 
HETATM    4  O2  UNL     1     -12.074   9.510  34.201  1.00  0.00    -0.238 OA
HETATM    5  C16 UNL     1     -13.564  10.849  36.416  1.00  0.00     0.073 C 
HETATM    6  C17 UNL     1     -12.057  10.806  36.371  1.00  0.00     0.078 C 
HETATM    7  C18 UNL     1     -11.430  11.467  37.591  1.00  0.00     0.062 C 
HETATM    8  N3  UNL     1     -11.787  12.821  37.726  1.00  0.00    -0.382 N 
ATOM      9  H3  UNL     1     -11.131  13.501  38.113  1.00  0.00     0.163 HD
HETATM   10  C19 UNL     1     -13.065  13.207  37.315  1.00  0.00     0.062 C 
HETATM   11  C20 UNL     1     -14.023  12.252  36.745  1.00  0.00     0.078 C 
HETATM   12  C21 UNL     1     -14.052   9.765  37.314  1.00  0.00     0.177 C 
HETATM   13  S1  UNL     1     -15.323   8.672  36.600  1.00  0.00    -0.136 SA
HETATM   14  C24 UNL     1     -16.292   9.522  35.274  1.00  0.00     0.050 C 
HETATM   15  C25 UNL     1     -17.573   9.949  35.989  1.00  0.00     0.034 C 
HETATM   16  C26 UNL     1     -16.636   8.465  34.296  1.00  0.00     0.034 C 
ENDROOT
BRANCH   1  17
HETATM   17  C9  UNL     1     -15.724  11.285  33.512  1.00  0.00     0.266 C 
HETATM   18  N1  UNL     1     -14.839  12.158  32.842  1.00  0.00    -0.356 N 
ATOM     19  H1  UNL     1     -13.961  12.415  33.294  1.00  0.00     0.162 HD
HETATM   20  O1  UNL     1     -16.811  11.052  32.841  1.00  0.00    -0.266 OA
BRANCH  18  21
HETATM   21  C8  UNL     1     -15.142  12.694  31.538  1.00  0.00     0.123 C 
BRANCH  21  22
HETATM   22  C7  UNL     1     -14.081  13.674  31.145  1.00  0.00     0.020 C 
BRANCH  22  23
HETATM   23  C6  UNL     1     -12.975  13.719  32.216  1.00  0.00     0.002 C 
BRANCH  23  24
HETATM   24  C5  UNL     1     -12.628  15.153  32.429  1.00  0.00     0.014 C 
BRANCH  24  25
HETATM   25  C4  UNL     1     -11.155  15.463  32.420  1.00  0.00     0.079 C 
BRANCH  25  26
HETATM   26  C3  UNL     1     -10.694  16.212  33.625  1.00  0.00     0.013 C 
BRANCH  26  27
HETATM   27  C2  UNL     1     -11.082  15.514  34.910  1.00  0.00    -0.004 C 
HETATM   28  C1  UNL     1     -10.177  14.310  35.073  1.00  0.00     0.005 C 
ENDBRANCH  26  27
ENDBRANCH  25  26
BRANCH  25  29
HETATM   29  C27 UNL     1     -10.666  16.001  31.156  1.00  0.00     0.235 C 
HETATM   30  O6  UNL     1      -9.591  16.668  31.098  1.00  0.00    -0.272 OA
HETATM   31  N4  UNL     1     -11.380  15.795  29.943  1.00  0.00    -0.254 N 
ATOM     32  H4  UNL     1     -12.248  15.261  29.998  1.00  0.00     0.181 HD
BRANCH  31  33
HETATM   33  S2  UNL     1     -10.916  16.359  28.407  1.00  0.00     0.236 S 
HETATM   34  O7  UNL     1     -11.238  17.848  28.327  1.00  0.00    -0.205 OA
HETATM   35  O8  UNL     1      -9.456  16.196  28.205  1.00  0.00    -0.205 OA
BRANCH  33  36
HETATM   36  C28 UNL     1     -11.818  15.615  27.069  1.00  0.00     0.125 C 
HETATM   37  C29 UNL     1     -13.254  15.395  27.546  1.00  0.00     0.028 C 
BRANCH  36  38
HETATM   38  C30 UNL     1     -11.286  14.243  26.708  1.00  0.00     0.017 C 
HETATM   39  C31 UNL     1     -11.882  13.132  27.520  1.00  0.00     0.006 C 
ENDBRANCH  36  38
ENDBRANCH  33  36
ENDBRANCH  31  33
ENDBRANCH  25  29
ENDBRANCH  24  25
ENDBRANCH  23  24
ENDBRANCH  22  23
ENDBRANCH  21  22
ENDBRANCH  18  21
ENDBRANCH   1  17
BRANCH   3  40
HETATM   40  O3  UNL     1     -13.867   9.351  32.946  1.00  0.00    -0.294 OA
BRANCH  40  41
HETATM   41  C12 UNL     1     -13.593   8.167  32.308  1.00  0.00     0.061 C 
HETATM   42  C13 UNL     1     -13.588   7.008  33.284  1.00  0.00     0.046 C 
HETATM   43  C14 UNL     1     -12.337   8.108  31.510  1.00  0.00     0.046 C 
HETATM   44  C15 UNL     1     -14.741   7.908  31.323  1.00  0.00     0.046 C 
ENDBRANCH  40  41
ENDBRANCH   3  40
BRANCH  12  45
HETATM   45  C22 UNL     1     -14.463  10.053  38.660  1.00  0.00     0.275 C 
HETATM   46  O4  UNL     1     -15.577  10.425  39.017  1.00  0.00    -0.264 OA
BRANCH  45  47
HETATM   47  O5  UNL     1     -13.533   9.913  39.718  1.00  0.00    -0.326 OA
HETATM   48  C23 UNL     1     -12.727   8.762  39.824  1.00  0.00     0.213 C 
ENDBRANCH  45  47
ENDBRANCH  12  45
TORSDOF 16
ENDMDL
MODEL 4
REMARK VINA RESULT: -7.228572151      3.560     11.777
REMARK  16 active torsions:
REMARK  status: ('A' for Active; 'I' for Inactive)
REMARK    1  A    between atoms: C2_2  and  C3_3 
REMARK    2  A    between atoms: C3_3  and  C4_4 
REMARK    3  A    between atoms: C4_4  and  C5_5 
REMARK    4  A    between atoms: C4_4  and  C27_38 
REMARK    5  A    between atoms: C5_5  and  C6_6 
REMARK    6  A    between atoms: C6_6  and  C7_7 
REMARK    7  A    between atoms: C7_7  and  C8_8 
REMARK    8  A    between atoms: C8_8  and  N1_9 
REMARK       I    between atoms: N1_9  and  C9_11 
REMARK    9  A    between atoms: C9_11  and  C10_13 
REMARK       I    between atoms: N2_14  and  C11_15 
REMARK   10  A    between atoms: C11_15  and  O3_17 
REMARK   11  A    between atoms: O3_17  and  C12_18 
REMARK   12  A    between atoms: C21_29  and  C22_30 
REMARK   13  A    between atoms: C22_30  and  O5_32 
REMARK       I    between atoms: C27_38  and  N4_40 
REMARK   14  A    between atoms: N4_40  and  S2_42 
REMARK   15  A    between atoms: S2_42  and  C28_45 
REMARK   16  A    between atoms: C28_45  and  C30_47 
ROOT
HETATM    1  C10 UNL     1      -6.116  16.961  23.778  1.00  0.00     0.103 C 
HETATM    2  N2  UNL     1      -5.282  18.156  24.049  1.00  0.00    -0.278 N 
HETATM    3  C11 UNL     1      -5.727  19.034  25.021  1.00  0.00     0.369 C 
HETATM    4  O2  UNL     1      -5.175  20.105  25.427  1.00  0.00    -0.238 OA
HETATM    5  C16 UNL     1      -4.095  18.383  23.240  1.00  0.00     0.073 C 
HETATM    6  C17 UNL     1      -3.267  19.455  23.902  1.00  0.00     0.078 C 
HETATM    7  C18 UNL     1      -1.878  19.566  23.287  1.00  0.00     0.062 C 
HETATM    8  N3  UNL     1      -1.138  18.374  23.382  1.00  0.00    -0.382 N 
ATOM      9  H3  UNL     1      -0.126  18.393  23.505  1.00  0.00     0.163 HD
HETATM   10  C19 UNL     1      -1.831  17.163  23.302  1.00  0.00     0.062 C 
HETATM   11  C20 UNL     1      -3.289  17.108  23.137  1.00  0.00     0.078 C 
HETATM   12  C21 UNL     1      -4.650  18.920  21.965  1.00  0.00     0.177 C 
HETATM   13  S1  UNL     1      -6.450  18.728  21.754  1.00  0.00    -0.136 SA
HETATM   14  C24 UNL     1      -7.104  17.294  22.722  1.00  0.00     0.050 C 
HETATM   15  C25 UNL     1      -7.226  16.187  21.677  1.00  0.00     0.034 C 
HETATM   16  C26 UNL     1      -8.468  17.689  23.142  1.00  0.00     0.034 C 
ENDROOT
BRANCH   1  17
HETATM   17  C9  UNL     1      -6.479  16.228  24.961  1.00  0.00     0.266 C 
HETATM   18  N1  UNL     1      -7.770  15.749  25.272  1.00  0.00    -0.356 N 
ATOM     19  H1  UNL     1      -8.538  15.937  24.627  1.00  0.00     0.162 HD
HETATM   20  O1  UNL     1      -5.597  15.939  25.869  1.00  0.00    -0.266 OA
BRANCH  18  21
HETATM   21  C8  UNL     1      -8.033  15.001  26.478  1.00  0.00     0.123 C 
BRANCH  21  22
HETATM   22  C7  UNL     1      -9.404  14.405  26.404  1.00  0.00     0.020 C 
BRANCH  22  23
HETATM   23  C6  UNL     1     -10.416  15.458  25.911  1.00  0.00     0.002 C 
BRANCH  23  24
HETATM   24  C5  UNL     1     -11.152  15.952  27.109  1.00  0.00     0.014 C 
BRANCH  24  25
HETATM   25  C4  UNL     1     -11.183  15.003  28.277  1.00  0.00     0.079 C 
BRANCH  25  26
HETATM   26  C3  UNL     1     -12.446  14.214  28.373  1.00  0.00     0.013 C 
BRANCH  26  27
HETATM   27  C2  UNL     1     -12.187  12.723  28.355  1.00  0.00    -0.004 C 
HETATM   28  C1  UNL     1     -12.638  12.160  29.687  1.00  0.00     0.005 C 
ENDBRANCH  26  27
ENDBRANCH  25  26
BRANCH  25  29
HETATM   29  C27 UNL     1     -10.748  15.591  29.537  1.00  0.00     0.235 C 
HETATM   30  O6  UNL     1     -10.855  16.834  29.754  1.00  0.00    -0.272 OA
HETATM   31  N4  UNL     1     -10.187  14.789  30.570  1.00  0.00    -0.254 N 
ATOM     32  H4  UNL     1     -10.099  13.789  30.386  1.00  0.00     0.181 HD
BRANCH  31  33
HETATM   33  S2  UNL     1      -9.650  15.347  32.084  1.00  0.00     0.236 S 
HETATM   34  O7  UNL     1      -8.974  14.188  32.808  1.00  0.00    -0.205 OA
HETATM   35  O8  UNL     1      -8.649  16.429  31.920  1.00  0.00    -0.205 OA
BRANCH  33  36
HETATM   36  C28 UNL     1     -10.963  15.869  33.162  1.00  0.00     0.125 C 
HETATM   37  C29 UNL     1     -10.372  16.036  34.562  1.00  0.00     0.028 C 
BRANCH  36  38
HETATM   38  C30 UNL     1     -12.051  14.824  33.293  1.00  0.00     0.017 C 
HETATM   39  C31 UNL     1     -13.254  15.094  32.439  1.00  0.00     0.006 C 
ENDBRANCH  36  38
ENDBRANCH  33  36
ENDBRANCH  31  33
ENDBRANCH  25  29
ENDBRANCH  24  25
ENDBRANCH  23  24
ENDBRANCH  22  23
ENDBRANCH  21  22
ENDBRANCH  18  21
ENDBRANCH   1  17
BRANCH   3  40
HETATM   40  O3  UNL     1      -6.933  18.823  25.716  1.00  0.00    -0.294 OA
BRANCH  40  41
HETATM   41  C12 UNL     1      -7.118  18.889  27.074  1.00  0.00     0.061 C 
HETATM   42  C13 UNL     1      -6.990  20.313  27.576  1.00  0.00     0.046 C 
HETATM   43  C14 UNL     1      -6.247  18.021  27.914  1.00  0.00     0.046 C 
HETATM   44  C15 UNL     1      -8.562  18.452  27.355  1.00  0.00     0.046 C 
ENDBRANCH  40  41
ENDBRANCH   3  40
BRANCH  12  45
HETATM   45  C22 UNL     1      -4.049  18.590  20.703  1.00  0.00     0.275 C 
HETATM   46  O4  UNL     1      -3.019  19.071  20.239  1.00  0.00    -0.264 OA
BRANCH  45  47
HETATM   47  O5  UNL     1      -4.661  17.622  19.872  1.00  0.00    -0.326 OA
HETATM   48  C23 UNL     1      -4.041  16.380  19.631  1.00  0.00     0.213 C 
ENDBRANCH  45  47
ENDBRANCH  12  45
TORSDOF 16
ENDMDL
MODEL 5
REMARK VINA RESULT: -7.219235606      4.994      7.984
REMARK  16 active torsions:
REMARK  status: ('A' for Active; 'I' for Inactive)
REMARK    1  A    between atoms: C2_2  and  C3_3 
REMARK    2  A    between atoms: C3_3  and  C4_4 
REMARK    3  A    between atoms: C4_4  and  C5_5 
REMARK    4  A    between atoms: C4_4  and  C27_38 
REMARK    5  A    between atoms: C5_5  and  C6_6 
REMARK    6  A    between atoms: C6_6  and  C7_7 
REMARK    7  A    between atoms: C7_7  and  C8_8 
REMARK    8  A    between atoms: C8_8  and  N1_9 
REMARK       I    between atoms: N1_9  and  C9_11 
REMARK    9  A    between atoms: C9_11  and  C10_13 
REMARK       I    between atoms: N2_14  and  C11_15 
REMARK   10  A    between atoms: C11_15  and  O3_17 
REMARK   11  A    between atoms: O3_17  and  C12_18 
REMARK   12  A    between atoms: C21_29  and  C22_30 
REMARK   13  A    between atoms: C22_30  and  O5_32 
REMARK       I    between atoms: C27_38  and  N4_40 
REMARK   14  A    between atoms: N4_40  and  S2_42 
REMARK   15  A    between atoms: S2_42  and  C28_45 
REMARK   16  A    between atoms: C28_45  and  C30_47 
ROOT
HETATM    1  C10 UNL     1     -15.259  10.837  34.782  1.00  0.00     0.103 C 
HETATM    2  N2  UNL     1     -13.896  10.429  35.195  1.00  0.00    -0.278 N 
HETATM    3  C11 UNL     1     -13.141   9.718  34.279  1.00  0.00     0.369 C 
HETATM    4  O2  UNL     1     -11.954   9.281  34.406  1.00  0.00    -0.238 OA
HETATM    5  C16 UNL     1     -13.453  10.724  36.548  1.00  0.00     0.073 C 
HETATM    6  C17 UNL     1     -11.963  10.503  36.619  1.00  0.00     0.078 C 
HETATM    7  C18 UNL     1     -11.364  11.050  37.907  1.00  0.00     0.062 C 
HETATM    8  N3  UNL     1     -11.572  12.432  38.066  1.00  0.00    -0.382 N 
ATOM      9  H3  UNL     1     -10.876  13.018  38.528  1.00  0.00     0.163 HD
HETATM   10  C19 UNL     1     -12.759  12.979  37.573  1.00  0.00     0.062 C 
HETATM   11  C20 UNL     1     -13.772  12.161  36.894  1.00  0.00     0.078 C 
HETATM   12  C21 UNL     1     -14.135   9.680  37.364  1.00  0.00     0.177 C 
HETATM   13  S1  UNL     1     -15.462   8.765  36.514  1.00  0.00    -0.136 SA
HETATM   14  C24 UNL     1     -16.215   9.762  35.150  1.00  0.00     0.050 C 
HETATM   15  C25 UNL     1     -17.491  10.317  35.779  1.00  0.00     0.034 C 
HETATM   16  C26 UNL     1     -16.598   8.782  34.108  1.00  0.00     0.034 C 
ENDROOT
BRANCH   1  17
HETATM   17  C9  UNL     1     -15.305  11.496  33.505  1.00  0.00     0.266 C 
HETATM   18  N1  UNL     1     -15.956  11.013  32.349  1.00  0.00    -0.356 N 
ATOM     19  H1  UNL     1     -16.433  10.112  32.387  1.00  0.00     0.162 HD
HETATM   20  O1  UNL     1     -14.722  12.641  33.318  1.00  0.00    -0.266 OA
BRANCH  18  21
HETATM   21  C8  UNL     1     -15.965  11.760  31.114  1.00  0.00     0.123 C 
BRANCH  21  22
HETATM   22  C7  UNL     1     -15.046  11.105  30.131  1.00  0.00     0.020 C 
BRANCH  22  23
HETATM   23  C6  UNL     1     -13.686  11.830  30.109  1.00  0.00     0.002 C 
BRANCH  23  24
HETATM   24  C5  UNL     1     -13.969  13.292  30.147  1.00  0.00     0.014 C 
BRANCH  24  25
HETATM   25  C4  UNL     1     -12.753  14.179  30.156  1.00  0.00     0.079 C 
BRANCH  25  26
HETATM   26  C3  UNL     1     -11.644  13.681  29.290  1.00  0.00     0.013 C 
BRANCH  26  27
HETATM   27  C2  UNL     1     -11.853  14.043  27.836  1.00  0.00    -0.004 C 
HETATM   28  C1  UNL     1     -12.240  15.507  27.775  1.00  0.00     0.005 C 
ENDBRANCH  26  27
ENDBRANCH  25  26
BRANCH  25  29
HETATM   29  C27 UNL     1     -12.331  14.602  31.486  1.00  0.00     0.235 C 
HETATM   30  O6  UNL     1     -12.498  15.793  31.881  1.00  0.00    -0.272 OA
HETATM   31  N4  UNL     1     -11.718  13.689  32.389  1.00  0.00    -0.254 N 
ATOM     32  H4  UNL     1     -11.582  12.731  32.062  1.00  0.00     0.181 HD
BRANCH  31  33
HETATM   33  S2  UNL     1     -11.189  14.049  33.964  1.00  0.00     0.236 S 
HETATM   34  O7  UNL     1     -12.238  14.935  34.629  1.00  0.00    -0.205 OA
HETATM   35  O8  UNL     1     -11.059  12.812  34.771  1.00  0.00    -0.205 OA
BRANCH  33  36
HETATM   36  C28 UNL     1      -9.682  14.989  34.016  1.00  0.00     0.125 C 
HETATM   37  C29 UNL     1     -10.058  16.453  34.252  1.00  0.00     0.028 C 
BRANCH  36  38
HETATM   38  C30 UNL     1      -8.939  14.960  32.697  1.00  0.00     0.017 C 
HETATM   39  C31 UNL     1      -8.943  16.272  31.972  1.00  0.00     0.006 C 
ENDBRANCH  36  38
ENDBRANCH  33  36
ENDBRANCH  31  33
ENDBRANCH  25  29
ENDBRANCH  24  25
ENDBRANCH  23  24
ENDBRANCH  22  23
ENDBRANCH  21  22
ENDBRANCH  18  21
ENDBRANCH   1  17
BRANCH   3  40
HETATM   40  O3  UNL     1     -13.645   9.372  33.011  1.00  0.00    -0.294 OA
BRANCH  40  41
HETATM   41  C12 UNL     1     -13.470   8.178  32.357  1.00  0.00     0.061 C 
HETATM   42  C13 UNL     1     -13.438   7.019  33.334  1.00  0.00     0.046 C 
HETATM   43  C14 UNL     1     -12.283   8.067  31.465  1.00  0.00     0.046 C 
HETATM   44  C15 UNL     1     -14.701   7.966  31.465  1.00  0.00     0.046 C 
ENDBRANCH  40  41
ENDBRANCH   3  40
BRANCH  12  45
HETATM   45  C22 UNL     1     -14.618   9.976  38.684  1.00  0.00     0.275 C 
HETATM   46  O4  UNL     1     -15.754  10.334  38.981  1.00  0.00    -0.264 OA
BRANCH  45  47
HETATM   47  O5  UNL     1     -13.741   9.861  39.789  1.00  0.00    -0.326 OA
HETATM   48  C23 UNL     1     -13.681  10.868  40.772  1.00  0.00     0.213 C 
ENDBRANCH  45  47
ENDBRANCH  12  45
TORSDOF 16
ENDMDL
