MODEL 1
REMARK VINA RESULT: -9.614855709      0.000      0.000
REMARK  10 active torsions:
REMARK  status: ('A' for Active; 'I' for Inactive)
REMARK    1  A    between atoms: O1_1  and  C1_3 
REMARK    2  A    between atoms: C1_3  and  C2_4 
REMARK    3  A    between atoms: C2_4  and  N1_5 
REMARK    4  A    between atoms: C5_8  and  C6_9 
REMARK    5  A    between atoms: C7_12  and  C8_13 
REMARK    6  A    between atoms: C8_13  and  O2_14 
REMARK    7  A    between atoms: C8_13  and  C9_16 
REMARK    8  A    between atoms: C9_16  and  C10_17 
REMARK    9  A    between atoms: C10_17  and  C11_18 
REMARK   10  A    between atoms: C20_32  and  O3_33 
ROOT
HETATM    1  C6  UNL     1      10.024  20.738  12.517  1.00  0.00     0.111 A 
HETATM    2  N2  UNL     1       9.070  20.653  11.572  1.00  0.00    -0.342 N 
ATOM      3  H2  UNL     1       8.690  21.451  11.063  1.00  0.00     0.167 HD
HETATM    4  C7  UNL     1       8.679  19.374  11.385  1.00  0.00     0.055 A 
HETATM    5  C15 UNL     1       9.417  18.617  12.247  1.00  0.00     0.117 A 
HETATM    6  N4  UNL     1      10.221  19.459  12.918  1.00  0.00    -0.350 N 
ATOM      7  H4  UNL     1      10.888  19.173  13.635  1.00  0.00     0.166 HD
ENDROOT
BRANCH   1   8
HETATM    8  C5  UNL     1      10.702  21.923  13.012  1.00  0.00    -0.014 C 
HETATM    9  C4  UNL     1      11.981  22.155  12.768  1.00  0.00     0.014 C 
HETATM   10  C3  UNL     1      12.489  23.440  13.372  1.00  0.00     0.301 C 
HETATM   11  N1  UNL     1      12.233  23.418  14.794  1.00  0.00     0.104 N 
HETATM   12  C17 UNL     1      10.874  23.110  15.073  1.00  0.00     0.278 C 
HETATM   13  C16 UNL     1      10.003  22.945  13.825  1.00  0.00     0.072 C 
BRANCH  11  14
HETATM   14  C2  UNL     1      12.629  24.644  15.450  1.00  0.00     0.181 C 
HETATM   15  C18 UNL     1      13.556  25.472  14.586  1.00  0.00     0.046 C 
HETATM   16  C19 UNL     1      14.719  26.053  15.396  1.00  0.00     0.034 C 
HETATM   17  C20 UNL     1      15.617  24.947  15.907  1.00  0.00     0.118 C 
HETATM   18  C21 UNL     1      14.754  23.720  16.208  1.00  0.00     0.034 C 
HETATM   19  C22 UNL     1      13.406  24.278  16.690  1.00  0.00     0.046 C 
BRANCH  14  20
HETATM   20  C1  UNL     1      11.446  25.536  15.752  1.00  0.00     0.205 C 
BRANCH  20  21
HETATM   21  O1  UNL     1      11.375  26.483  14.720  1.00  0.00    -0.398 OA
ATOM     22  H1  UNL     1      11.615  27.322  15.097  1.00  0.00     0.209 HD
ENDBRANCH  20  21
ENDBRANCH  14  20
BRANCH  17  23
HETATM   23  O3  UNL     1      16.254  25.358  17.055  1.00  0.00    -0.396 OA
ATOM     24  H3  UNL     1      16.364  24.619  17.643  1.00  0.00     0.210 HD
ENDBRANCH  17  23
ENDBRANCH  11  14
ENDBRANCH   1   8
BRANCH   4  25
HETATM   25  C8  UNL     1       7.665  18.816  10.450  1.00  0.00     0.169 C 
BRANCH  25  26
HETATM   26  O2  UNL     1       6.633  18.292  11.226  1.00  0.00    -0.389 OA
ATOM     27  H2  UNL     1       5.989  18.981  11.341  1.00  0.00     0.210 HD
ENDBRANCH  25  26
BRANCH  25  28
HETATM   28  C9  UNL     1       8.264  17.637   9.706  1.00  0.00     0.038 C 
BRANCH  28  29
HETATM   29  C10 UNL     1       7.392  16.426   9.806  1.00  0.00     0.009 C 
BRANCH  29  30
HETATM   30  C11 UNL     1       7.954  15.431  10.801  1.00  0.00     0.013 C 
HETATM   31  C12 UNL     1       7.590  14.032  10.380  1.00  0.00     0.034 C 
HETATM   32  C13 UNL     1       8.909  13.305  10.462  1.00  0.00     0.232 C 
HETATM   33  N3  UNL     1       9.828  14.300   9.903  1.00  0.00    -0.075 N 
HETATM   34  C14 UNL     1       9.473  15.464  10.703  1.00  0.00     0.237 C 
ATOM     35  H32 UNL     1      10.814  14.043   9.909  1.00  0.00     0.277 HD
ATOM     36  H31 UNL     1       9.780  14.426   8.892  1.00  0.00     0.277 HD
ENDBRANCH  29  30
ENDBRANCH  28  29
ENDBRANCH  25  28
ENDBRANCH   4  25
TORSDOF 10
ENDMDL
MODEL 2
REMARK VINA RESULT: -9.443168362      1.170      1.615
REMARK  10 active torsions:
REMARK  status: ('A' for Active; 'I' for Inactive)
REMARK    1  A    between atoms: O1_1  and  C1_3 
REMARK    2  A    between atoms: C1_3  and  C2_4 
REMARK    3  A    between atoms: C2_4  and  N1_5 
REMARK    4  A    between atoms: C5_8  and  C6_9 
REMARK    5  A    between atoms: C7_12  and  C8_13 
REMARK    6  A    between atoms: C8_13  and  O2_14 
REMARK    7  A    between atoms: C8_13  and  C9_16 
REMARK    8  A    between atoms: C9_16  and  C10_17 
REMARK    9  A    between atoms: C10_17  and  C11_18 
REMARK   10  A    between atoms: C20_32  and  O3_33 
ROOT
HETATM    1  C6  UNL     1       9.989  20.711  12.571  1.00  0.00     0.111 A 
HETATM    2  N2  UNL     1       9.049  20.639  11.612  1.00  0.00    -0.342 N 
ATOM      3  H2  UNL     1       8.664  21.447  11.121  1.00  0.00     0.167 HD
HETATM    4  C7  UNL     1       8.678  19.362  11.383  1.00  0.00     0.055 A 
HETATM    5  C15 UNL     1       9.416  18.589  12.233  1.00  0.00     0.117 A 
HETATM    6  N4  UNL     1      10.199  19.423  12.938  1.00  0.00    -0.350 N 
ATOM      7  H4  UNL     1      10.861  19.126  13.655  1.00  0.00     0.166 HD
ENDROOT
BRANCH   1   8
HETATM    8  C5  UNL     1      10.644  21.890  13.109  1.00  0.00    -0.014 C 
HETATM    9  C4  UNL     1      11.953  22.063  13.034  1.00  0.00     0.014 C 
HETATM   10  C3  UNL     1      12.430  23.354  13.652  1.00  0.00     0.301 C 
HETATM   11  N1  UNL     1      11.983  23.402  15.025  1.00  0.00     0.104 N 
HETATM   12  C17 UNL     1      10.587  23.158  15.127  1.00  0.00     0.278 C 
HETATM   13  C16 UNL     1       9.886  22.971  13.779  1.00  0.00     0.072 C 
BRANCH  11  14
HETATM   14  C2  UNL     1      12.339  24.640  15.682  1.00  0.00     0.181 C 
HETATM   15  C18 UNL     1      13.642  24.520  16.445  1.00  0.00     0.046 C 
HETATM   16  C19 UNL     1      13.559  25.190  17.819  1.00  0.00     0.034 C 
HETATM   17  C20 UNL     1      12.570  24.466  18.706  1.00  0.00     0.118 C 
HETATM   18  C21 UNL     1      11.438  23.924  17.832  1.00  0.00     0.034 C 
HETATM   19  C22 UNL     1      11.270  24.951  16.700  1.00  0.00     0.046 C 
BRANCH  14  20
HETATM   20  C1  UNL     1      12.544  25.769  14.698  1.00  0.00     0.205 C 
BRANCH  20  21
HETATM   21  O1  UNL     1      11.388  26.563  14.741  1.00  0.00    -0.398 OA
ATOM     22  H1  UNL     1      11.384  27.088  13.948  1.00  0.00     0.209 HD
ENDBRANCH  20  21
ENDBRANCH  14  20
BRANCH  17  23
HETATM   23  O3  UNL     1      12.057  25.338  19.640  1.00  0.00    -0.396 OA
ATOM     24  H3  UNL     1      12.656  25.411  20.374  1.00  0.00     0.210 HD
ENDBRANCH  17  23
ENDBRANCH  11  14
ENDBRANCH   1   8
BRANCH   4  25
HETATM   25  C8  UNL     1       7.683  18.817  10.420  1.00  0.00     0.169 C 
BRANCH  25  26
HETATM   26  O2  UNL     1       6.609  18.334  11.164  1.00  0.00    -0.389 OA
ATOM     27  H2  UNL     1       6.259  17.583  10.699  1.00  0.00     0.210 HD
ENDBRANCH  25  26
BRANCH  25  28
HETATM   28  C9  UNL     1       8.276  17.611   9.716  1.00  0.00     0.038 C 
BRANCH  28  29
HETATM   29  C10 UNL     1       7.386  16.414   9.837  1.00  0.00     0.009 C 
BRANCH  29  30
HETATM   30  C11 UNL     1       7.957  15.408  10.816  1.00  0.00     0.013 C 
HETATM   31  C12 UNL     1       7.605  14.013  10.373  1.00  0.00     0.034 C 
HETATM   32  C13 UNL     1       8.930  13.295  10.442  1.00  0.00     0.232 C 
HETATM   33  N3  UNL     1       9.840  14.306   9.898  1.00  0.00    -0.075 N 
HETATM   34  C14 UNL     1       9.476  15.455  10.717  1.00  0.00     0.237 C 
ATOM     35  H32 UNL     1      10.828  14.057   9.900  1.00  0.00     0.277 HD
ATOM     36  H31 UNL     1       9.790  14.449   8.889  1.00  0.00     0.277 HD
ENDBRANCH  29  30
ENDBRANCH  28  29
ENDBRANCH  25  28
ENDBRANCH   4  25
TORSDOF 10
ENDMDL
MODEL 3
REMARK VINA RESULT: -9.003862963      1.080      1.492
REMARK  10 active torsions:
REMARK  status: ('A' for Active; 'I' for Inactive)
REMARK    1  A    between atoms: O1_1  and  C1_3 
REMARK    2  A    between atoms: C1_3  and  C2_4 
REMARK    3  A    between atoms: C2_4  and  N1_5 
REMARK    4  A    between atoms: C5_8  and  C6_9 
REMARK    5  A    between atoms: C7_12  and  C8_13 
REMARK    6  A    between atoms: C8_13  and  O2_14 
REMARK    7  A    between atoms: C8_13  and  C9_16 
REMARK    8  A    between atoms: C9_16  and  C10_17 
REMARK    9  A    between atoms: C10_17  and  C11_18 
REMARK   10  A    between atoms: C20_32  and  O3_33 
ROOT
HETATM    1  C6  UNL     1       9.729  20.937  12.334  1.00  0.00     0.111 A 
HETATM    2  N2  UNL     1       9.849  19.621  12.589  1.00  0.00    -0.342 N 
ATOM      3  H2  UNL     1      10.545  19.217  13.216  1.00  0.00     0.167 HD
HETATM    4  C7  UNL     1       8.931  18.904  11.907  1.00  0.00     0.055 A 
HETATM    5  C15 UNL     1       8.197  19.803  11.189  1.00  0.00     0.117 A 
HETATM    6  N4  UNL     1       8.694  21.021  11.462  1.00  0.00    -0.350 N 
ATOM      7  H4  UNL     1       8.341  21.892  11.066  1.00  0.00     0.166 HD
ENDROOT
BRANCH   1   8
HETATM    8  C5  UNL     1      10.519  22.035  12.861  1.00  0.00    -0.014 C 
HETATM    9  C4  UNL     1      11.830  22.099  12.702  1.00  0.00     0.014 C 
HETATM   10  C3  UNL     1      12.458  23.320  13.324  1.00  0.00     0.301 C 
HETATM   11  N1  UNL     1      12.108  23.357  14.726  1.00  0.00     0.104 N 
HETATM   12  C17 UNL     1      10.705  23.230  14.917  1.00  0.00     0.278 C 
HETATM   13  C16 UNL     1       9.904  23.152  13.615  1.00  0.00     0.072 C 
BRANCH  11  14
HETATM   14  C2  UNL     1      12.614  24.535  15.395  1.00  0.00     0.181 C 
HETATM   15  C18 UNL     1      13.564  25.320  14.515  1.00  0.00     0.046 C 
HETATM   16  C19 UNL     1      14.794  25.797  15.291  1.00  0.00     0.034 C 
HETATM   17  C20 UNL     1      15.631  24.619  15.741  1.00  0.00     0.118 C 
HETATM   18  C21 UNL     1      14.696  23.447  16.047  1.00  0.00     0.034 C 
HETATM   19  C22 UNL     1      13.409  24.085  16.594  1.00  0.00     0.046 C 
BRANCH  14  20
HETATM   20  C1  UNL     1      11.509  25.499  15.764  1.00  0.00     0.205 C 
BRANCH  20  21
HETATM   21  O1  UNL     1      11.443  26.457  14.741  1.00  0.00    -0.398 OA
ATOM     22  H1  UNL     1      10.679  26.249  14.216  1.00  0.00     0.209 HD
ENDBRANCH  20  21
ENDBRANCH  14  20
BRANCH  17  23
HETATM   23  O3  UNL     1      16.338  24.954  16.872  1.00  0.00    -0.396 OA
ATOM     24  H3  UNL     1      17.252  25.088  16.652  1.00  0.00     0.210 HD
ENDBRANCH  17  23
ENDBRANCH  11  14
ENDBRANCH   1   8
BRANCH   4  25
HETATM   25  C8  UNL     1       8.694  17.435  11.885  1.00  0.00     0.169 C 
BRANCH  25  26
HETATM   26  O2  UNL     1       9.459  16.878  12.908  1.00  0.00    -0.389 OA
ATOM     27  H2  UNL     1      10.366  17.096  12.733  1.00  0.00     0.210 HD
ENDBRANCH  25  26
BRANCH  25  28
HETATM   28  C9  UNL     1       9.245  16.858  10.594  1.00  0.00     0.038 C 
BRANCH  28  29
HETATM   29  C10 UNL     1       9.866  15.515  10.816  1.00  0.00     0.009 C 
BRANCH  29  30
HETATM   30  C11 UNL     1       9.232  14.468   9.923  1.00  0.00     0.013 C 
HETATM   31  C12 UNL     1       9.115  13.167  10.672  1.00  0.00     0.034 C 
HETATM   32  C13 UNL     1       7.680  12.768  10.426  1.00  0.00     0.232 C 
HETATM   33  N3  UNL     1       6.991  14.054  10.561  1.00  0.00    -0.075 N 
HETATM   34  C14 UNL     1       7.789  14.875   9.660  1.00  0.00     0.237 C 
ATOM     35  H32 UNL     1       5.989  14.039  10.375  1.00  0.00     0.277 HD
ATOM     36  H31 UNL     1       6.896  14.406  11.513  1.00  0.00     0.277 HD
ENDBRANCH  29  30
ENDBRANCH  28  29
ENDBRANCH  25  28
ENDBRANCH   4  25
TORSDOF 10
ENDMDL
MODEL 4
REMARK VINA RESULT: -8.894483015      1.301      1.624
REMARK  10 active torsions:
REMARK  status: ('A' for Active; 'I' for Inactive)
REMARK    1  A    between atoms: O1_1  and  C1_3 
REMARK    2  A    between atoms: C1_3  and  C2_4 
REMARK    3  A    between atoms: C2_4  and  N1_5 
REMARK    4  A    between atoms: C5_8  and  C6_9 
REMARK    5  A    between atoms: C7_12  and  C8_13 
REMARK    6  A    between atoms: C8_13  and  O2_14 
REMARK    7  A    between atoms: C8_13  and  C9_16 
REMARK    8  A    between atoms: C9_16  and  C10_17 
REMARK    9  A    between atoms: C10_17  and  C11_18 
REMARK   10  A    between atoms: C20_32  and  O3_33 
ROOT
HETATM    1  C6  UNL     1      10.116  21.801  12.748  1.00  0.00     0.111 A 
HETATM    2  N2  UNL     1      10.182  20.468  12.917  1.00  0.00    -0.342 N 
ATOM      3  H2  UNL     1      10.851  19.997  13.526  1.00  0.00     0.167 HD
HETATM    4  C7  UNL     1       9.250  19.833  12.176  1.00  0.00     0.055 A 
HETATM    5  C15 UNL     1       8.562  20.806  11.509  1.00  0.00     0.117 A 
HETATM    6  N4  UNL     1       9.100  21.983  11.869  1.00  0.00    -0.350 N 
ATOM      7  H4  UNL     1       8.787  22.891  11.526  1.00  0.00     0.166 HD
ENDROOT
BRANCH   1   8
HETATM    8  C5  UNL     1      10.938  22.832  13.358  1.00  0.00    -0.014 C 
HETATM    9  C4  UNL     1      12.231  22.941  13.105  1.00  0.00     0.014 C 
HETATM   10  C3  UNL     1      12.898  24.077  13.840  1.00  0.00     0.301 C 
HETATM   11  N1  UNL     1      12.664  23.913  15.256  1.00  0.00     0.104 N 
HETATM   12  C17 UNL     1      11.282  23.735  15.538  1.00  0.00     0.278 C 
HETATM   13  C16 UNL     1      10.378  23.822  14.306  1.00  0.00     0.072 C 
BRANCH  11  14
HETATM   14  C2  UNL     1      13.213  24.998  16.039  1.00  0.00     0.181 C 
HETATM   15  C18 UNL     1      13.981  25.981  15.181  1.00  0.00     0.046 C 
HETATM   16  C19 UNL     1      15.293  26.409  15.843  1.00  0.00     0.034 C 
HETATM   17  C20 UNL     1      16.241  25.234  15.956  1.00  0.00     0.118 C 
HETATM   18  C21 UNL     1      15.417  23.966  16.185  1.00  0.00     0.034 C 
HETATM   19  C22 UNL     1      14.203  24.412  17.015  1.00  0.00     0.046 C 
BRANCH  14  20
HETATM   20  C1  UNL     1      12.136  25.807  16.726  1.00  0.00     0.205 C 
BRANCH  20  21
HETATM   21  O1  UNL     1      11.910  26.942  15.932  1.00  0.00    -0.398 OA
ATOM     22  H1  UNL     1      11.001  27.189  16.055  1.00  0.00     0.209 HD
ENDBRANCH  20  21
ENDBRANCH  14  20
BRANCH  17  23
HETATM   23  O3  UNL     1      17.098  25.427  17.015  1.00  0.00    -0.396 OA
ATOM     24  H3  UNL     1      17.597  24.634  17.172  1.00  0.00     0.210 HD
ENDBRANCH  17  23
ENDBRANCH  11  14
ENDBRANCH   1   8
BRANCH   4  25
HETATM   25  C8  UNL     1       8.958  18.379  12.054  1.00  0.00     0.169 C 
BRANCH  25  26
HETATM   26  O2  UNL     1      10.125  17.694  12.384  1.00  0.00    -0.389 OA
ATOM     27  H2  UNL     1       9.958  16.769  12.247  1.00  0.00     0.210 HD
ENDBRANCH  25  26
BRANCH  25  28
HETATM   28  C9  UNL     1       8.677  18.045  10.601  1.00  0.00     0.038 C 
BRANCH  28  29
HETATM   29  C10 UNL     1       7.581  17.034  10.474  1.00  0.00     0.009 C 
BRANCH  29  30
HETATM   30  C11 UNL     1       8.050  15.817   9.704  1.00  0.00     0.013 C 
HETATM   31  C12 UNL     1       8.880  14.938  10.602  1.00  0.00     0.034 C 
HETATM   32  C13 UNL     1       8.276  13.573  10.385  1.00  0.00     0.232 C 
HETATM   33  N3  UNL     1       6.846  13.886  10.354  1.00  0.00    -0.075 N 
HETATM   34  C14 UNL     1       6.834  14.963   9.373  1.00  0.00     0.237 C 
ATOM     35  H32 UNL     1       6.226  13.101  10.157  1.00  0.00     0.277 HD
ATOM     36  H31 UNL     1       6.422  14.105  11.256  1.00  0.00     0.277 HD
ENDBRANCH  29  30
ENDBRANCH  28  29
ENDBRANCH  25  28
ENDBRANCH   4  25
TORSDOF 10
ENDMDL
MODEL 5
REMARK VINA RESULT: -8.732605106      1.081      1.291
REMARK  10 active torsions:
REMARK  status: ('A' for Active; 'I' for Inactive)
REMARK    1  A    between atoms: O1_1  and  C1_3 
REMARK    2  A    between atoms: C1_3  and  C2_4 
REMARK    3  A    between atoms: C2_4  and  N1_5 
REMARK    4  A    between atoms: C5_8  and  C6_9 
REMARK    5  A    between atoms: C7_12  and  C8_13 
REMARK    6  A    between atoms: C8_13  and  O2_14 
REMARK    7  A    between atoms: C8_13  and  C9_16 
REMARK    8  A    between atoms: C9_16  and  C10_17 
REMARK    9  A    between atoms: C10_17  and  C11_18 
REMARK   10  A    between atoms: C20_32  and  O3_33 
ROOT
HETATM    1  C6  UNL     1      10.494  21.194  12.991  1.00  0.00     0.111 A 
HETATM    2  N2  UNL     1       9.594  21.109  11.994  1.00  0.00    -0.342 N 
ATOM      3  H2  UNL     1       9.241  21.908  11.467  1.00  0.00     0.167 HD
HETATM    4  C7  UNL     1       9.219  19.830  11.780  1.00  0.00     0.055 A 
HETATM    5  C15 UNL     1       9.911  19.072  12.680  1.00  0.00     0.117 A 
HETATM    6  N4  UNL     1      10.672  19.914  13.398  1.00  0.00    -0.350 N 
ATOM      7  H4  UNL     1      11.299  19.628  14.150  1.00  0.00     0.166 HD
ENDROOT
BRANCH   1   8
HETATM    8  C5  UNL     1      11.139  22.380  13.528  1.00  0.00    -0.014 C 
HETATM    9  C4  UNL     1      12.330  22.780  13.115  1.00  0.00     0.014 C 
HETATM   10  C3  UNL     1      12.819  24.032  13.799  1.00  0.00     0.301 C 
HETATM   11  N1  UNL     1      12.817  23.811  15.227  1.00  0.00     0.104 N 
HETATM   12  C17 UNL     1      11.561  23.322  15.677  1.00  0.00     0.278 C 
HETATM   13  C16 UNL     1      10.504  23.212  14.575  1.00  0.00     0.072 C 
BRANCH  11  14
HETATM   14  C2  UNL     1      13.210  24.986  15.972  1.00  0.00     0.181 C 
HETATM   15  C18 UNL     1      13.920  25.998  15.098  1.00  0.00     0.046 C 
HETATM   16  C19 UNL     1      15.144  26.594  15.798  1.00  0.00     0.034 C 
HETATM   17  C20 UNL     1      16.198  25.532  16.024  1.00  0.00     0.118 C 
HETATM   18  C21 UNL     1      15.496  24.198  16.286  1.00  0.00     0.034 C 
HETATM   19  C22 UNL     1      14.200  24.558  17.028  1.00  0.00     0.046 C 
BRANCH  14  20
HETATM   20  C1  UNL     1      12.021  25.714  16.557  1.00  0.00     0.205 C 
BRANCH  20  21
HETATM   21  O1  UNL     1      11.707  26.758  15.674  1.00  0.00    -0.398 OA
ATOM     22  H1  UNL     1      11.310  26.361  14.907  1.00  0.00     0.209 HD
ENDBRANCH  20  21
ENDBRANCH  14  20
BRANCH  17  23
HETATM   23  O3  UNL     1      16.972  25.868  17.111  1.00  0.00    -0.396 OA
ATOM     24  H3  UNL     1      17.271  25.079  17.549  1.00  0.00     0.210 HD
ENDBRANCH  17  23
ENDBRANCH  11  14
ENDBRANCH   1   8
BRANCH   4  25
HETATM   25  C8  UNL     1       8.260  19.272  10.789  1.00  0.00     0.169 C 
BRANCH  25  26
HETATM   26  O2  UNL     1       7.163  20.129  10.747  1.00  0.00    -0.389 OA
ATOM     27  H2  UNL     1       7.161  20.544   9.893  1.00  0.00     0.210 HD
ENDBRANCH  25  26
BRANCH  25  28
HETATM   28  C9  UNL     1       7.731  17.944  11.296  1.00  0.00     0.038 C 
BRANCH  28  29
HETATM   29  C10 UNL     1       6.896  17.256  10.262  1.00  0.00     0.009 C 
BRANCH  29  30
HETATM   30  C11 UNL     1       7.680  16.157   9.574  1.00  0.00     0.013 C 
HETATM   31  C12 UNL     1       8.646  15.536  10.549  1.00  0.00     0.034 C 
HETATM   32  C13 UNL     1       8.393  14.059  10.375  1.00  0.00     0.232 C 
HETATM   33  N3  UNL     1       6.933  14.021  10.269  1.00  0.00    -0.075 N 
HETATM   34  C14 UNL     1       6.718  15.026   9.236  1.00  0.00     0.237 C 
ATOM     35  H32 UNL     1       6.527  13.104  10.086  1.00  0.00     0.277 HD
ATOM     36  H31 UNL     1       6.423  14.167  11.140  1.00  0.00     0.277 HD
ENDBRANCH  29  30
ENDBRANCH  28  29
ENDBRANCH  25  28
ENDBRANCH   4  25
TORSDOF 10
ENDMDL
