MODEL 1
REMARK VINA RESULT: -7.014658016      0.000      0.000
REMARK  9 active torsions:
REMARK  status: ('A' for Active; 'I' for Inactive)
REMARK    1  A    between atoms: C2_2  and  C3_3 
REMARK    2  A    between atoms: N1_10  and  N2_12 
REMARK    3  A    between atoms: N2_12  and  C10_14 
REMARK    4  A    between atoms: C11_17  and  N4_18 
REMARK    5  A    between atoms: C13_25  and  N7_26 
REMARK       I    between atoms: N7_26  and  C14_28 
REMARK    6  A    between atoms: C14_28  and  C15_30 
REMARK    7  A    between atoms: C15_30  and  N8_31 
REMARK    8  A    between atoms: N8_31  and  C16_32 
REMARK    9  A    between atoms: N8_31  and  C18_34 
ROOT
HETATM    1  C10 UNL     1      10.427  24.113  14.221  1.00  0.00     0.166 A 
HETATM    2  N3  UNL     1       9.327  23.507  13.744  1.00  0.00    -0.173 N 
ATOM      3  H3  UNL     1       8.409  23.823  14.055  1.00  0.00     0.186 HD
HETATM    4  C11 UNL     1       9.408  22.492  12.863  1.00  0.00     0.678 A 
HETATM    5  N5  UNL     1      10.599  22.032  12.415  1.00  0.00    -0.177 N 
ATOM      6  H5  UNL     1      10.634  21.262  11.747  1.00  0.00     0.185 HD
HETATM    7  C12 UNL     1      11.732  22.594  12.853  1.00  0.00     0.162 A 
HETATM    8  N6  UNL     1      13.014  22.136  12.398  1.00  0.00    -0.080 NA
HETATM    9  C13 UNL     1      11.629  23.641  13.762  1.00  0.00     0.123 A 
ENDROOT
BRANCH   1  10
HETATM   10  N2  UNL     1      10.357  25.101  15.078  1.00  0.00    -0.283 N 
ATOM     11  H2  UNL     1      10.330  26.060  14.731  1.00  0.00     0.188 HD
BRANCH  10  12
HETATM   12  N1  UNL     1      10.316  24.876  16.446  1.00  0.00    -0.306 N 
HETATM   13  C9  UNL     1      10.970  25.547  17.327  1.00  0.00     0.012 C 
HETATM   14  C6  UNL     1      10.807  25.164  18.775  1.00  0.00    -0.007 C 
HETATM   15  C20 UNL     1      11.875  26.668  17.044  1.00  0.00     0.059 C 
HETATM   16  C5  UNL     1      10.353  26.394  19.490  1.00  0.00     0.015 C 
HETATM   17  C7  UNL     1       9.848  24.019  18.924  1.00  0.00     0.021 C 
HETATM   18  C8  UNL     1      12.170  24.681  19.219  1.00  0.00     0.021 C 
HETATM   19  C4  UNL     1      11.355  27.486  19.369  1.00  0.00     0.006 C 
HETATM   20  C3  UNL     1      11.809  27.805  17.995  1.00  0.00    -0.010 C 
ATOM     21  H1  UNL     1       9.721  24.118  16.780  1.00  0.00     0.186 HD
BRANCH  20  22
HETATM   22  C2  UNL     1      13.214  28.411  18.120  1.00  0.00     0.000 C 
HETATM   23  C1  UNL     1      13.147  29.624  19.046  1.00  0.00     0.005 C 
ENDBRANCH  20  22
ENDBRANCH  10  12
ENDBRANCH   1  10
BRANCH   9  24
HETATM   24  N7  UNL     1      12.831  24.218  14.220  1.00  0.00    -0.320 N 
HETATM   25  C14 UNL     1      13.422  23.818  15.462  1.00  0.00     0.250 C 
HETATM   26  O1  UNL     1      12.812  22.935  16.112  1.00  0.00    -0.271 OA
ATOM     27  H7  UNL     1      13.288  24.935  13.656  1.00  0.00     0.169 HD
BRANCH  25  28
HETATM   28  C15 UNL     1      14.672  24.459  15.872  1.00  0.00     0.374 C 
BRANCH  28  29
HETATM   29  N8  UNL     1      15.217  25.391  14.920  1.00  0.00     0.096 N 
BRANCH  29  30
HETATM   30  C16 UNL     1      15.483  26.639  15.608  1.00  0.00     0.268 C 
HETATM   31  C17 UNL     1      16.688  27.367  15.067  1.00  0.00     0.037 C 
ENDBRANCH  29  30
BRANCH  29  32
HETATM   32  C18 UNL     1      16.471  24.942  14.361  1.00  0.00     0.268 C 
HETATM   33  C19 UNL     1      16.309  24.342  12.987  1.00  0.00     0.037 C 
ENDBRANCH  29  32
ENDBRANCH  28  29
ENDBRANCH  25  28
ENDBRANCH   9  24
BRANCH   4  34
HETATM   34  N4  UNL     1       8.335  21.941  12.431  1.00  0.00    -0.234 N 
ATOM     35  H42 UNL     1       7.662  21.581  13.108  1.00  0.00     0.174 HD
ATOM     36  H41 UNL     1       8.173  21.870  11.426  1.00  0.00     0.174 HD
ENDBRANCH   4  34
TORSDOF 9
ENDMDL
MODEL 2
REMARK VINA RESULT: -6.855305992      1.280      1.928
REMARK  9 active torsions:
REMARK  status: ('A' for Active; 'I' for Inactive)
REMARK    1  A    between atoms: C2_2  and  C3_3 
REMARK    2  A    between atoms: N1_10  and  N2_12 
REMARK    3  A    between atoms: N2_12  and  C10_14 
REMARK    4  A    between atoms: C11_17  and  N4_18 
REMARK    5  A    between atoms: C13_25  and  N7_26 
REMARK       I    between atoms: N7_26  and  C14_28 
REMARK    6  A    between atoms: C14_28  and  C15_30 
REMARK    7  A    between atoms: C15_30  and  N8_31 
REMARK    8  A    between atoms: N8_31  and  C16_32 
REMARK    9  A    between atoms: N8_31  and  C18_34 
ROOT
HETATM    1  C10 UNL     1      10.456  24.078  14.283  1.00  0.00     0.166 A 
HETATM    2  N3  UNL     1       9.366  23.509  13.741  1.00  0.00    -0.173 N 
ATOM      3  H3  UNL     1       8.442  23.853  14.003  1.00  0.00     0.186 HD
HETATM    4  C11 UNL     1       9.466  22.496  12.860  1.00  0.00     0.678 A 
HETATM    5  N5  UNL     1      10.665  22.002  12.477  1.00  0.00    -0.177 N 
ATOM      6  H5  UNL     1      10.713  21.234  11.807  1.00  0.00     0.185 HD
HETATM    7  C12 UNL     1      11.788  22.526  12.982  1.00  0.00     0.162 A 
HETATM    8  N6  UNL     1      13.079  22.030  12.596  1.00  0.00    -0.080 NA
HETATM    9  C13 UNL     1      11.667  23.571  13.889  1.00  0.00     0.123 A 
ENDROOT
BRANCH   1  10
HETATM   10  N2  UNL     1      10.368  25.065  15.141  1.00  0.00    -0.283 N 
ATOM     11  H2  UNL     1      10.319  26.023  14.795  1.00  0.00     0.188 HD
BRANCH  10  12
HETATM   12  N1  UNL     1      10.339  24.838  16.509  1.00  0.00    -0.306 N 
HETATM   13  C9  UNL     1      10.969  25.533  17.388  1.00  0.00     0.012 C 
HETATM   14  C6  UNL     1      10.824  25.143  18.837  1.00  0.00    -0.007 C 
HETATM   15  C20 UNL     1      11.832  26.686  17.104  1.00  0.00     0.059 C 
HETATM   16  C5  UNL     1      10.327  26.356  19.554  1.00  0.00     0.015 C 
HETATM   17  C7  UNL     1       9.908  23.964  18.988  1.00  0.00     0.021 C 
HETATM   18  C8  UNL     1      12.205  24.711  19.278  1.00  0.00     0.021 C 
HETATM   19  C4  UNL     1      11.288  27.484  19.431  1.00  0.00     0.006 C 
HETATM   20  C3  UNL     1      11.727  27.819  18.055  1.00  0.00    -0.010 C 
ATOM     21  H1  UNL     1       9.773  24.059  16.844  1.00  0.00     0.186 HD
BRANCH  20  22
HETATM   22  C2  UNL     1      13.109  28.477  18.177  1.00  0.00     0.000 C 
HETATM   23  C1  UNL     1      12.990  29.715  19.064  1.00  0.00     0.005 C 
ENDBRANCH  20  22
ENDBRANCH  10  12
ENDBRANCH   1  10
BRANCH   9  24
HETATM   24  N7  UNL     1      12.858  24.108  14.418  1.00  0.00    -0.320 N 
HETATM   25  C14 UNL     1      13.368  23.679  15.686  1.00  0.00     0.250 C 
HETATM   26  O1  UNL     1      12.699  22.810  16.293  1.00  0.00    -0.271 OA
ATOM     27  H7  UNL     1      13.366  24.816  13.888  1.00  0.00     0.169 HD
BRANCH  25  28
HETATM   28  C15 UNL     1      14.613  24.279  16.170  1.00  0.00     0.374 C 
BRANCH  28  29
HETATM   29  N8  UNL     1      15.348  23.475  17.112  1.00  0.00     0.096 N 
BRANCH  29  30
HETATM   30  C16 UNL     1      16.391  22.773  16.390  1.00  0.00     0.268 C 
HETATM   31  C17 UNL     1      16.511  21.323  16.790  1.00  0.00     0.037 C 
ENDBRANCH  29  30
BRANCH  29  32
HETATM   32  C18 UNL     1      15.999  24.269  18.128  1.00  0.00     0.268 C 
HETATM   33  C19 UNL     1      15.627  25.728  18.047  1.00  0.00     0.037 C 
ENDBRANCH  29  32
ENDBRANCH  28  29
ENDBRANCH  25  28
ENDBRANCH   9  24
BRANCH   4  34
HETATM   34  N4  UNL     1       8.402  21.981  12.364  1.00  0.00    -0.234 N 
ATOM     35  H42 UNL     1       7.675  21.653  13.000  1.00  0.00     0.174 HD
ATOM     36  H41 UNL     1       8.301  21.907  11.352  1.00  0.00     0.174 HD
ENDBRANCH   4  34
TORSDOF 9
ENDMDL
MODEL 3
REMARK VINA RESULT: -6.835604165      3.376      7.885
REMARK  9 active torsions:
REMARK  status: ('A' for Active; 'I' for Inactive)
REMARK    1  A    between atoms: C2_2  and  C3_3 
REMARK    2  A    between atoms: N1_10  and  N2_12 
REMARK    3  A    between atoms: N2_12  and  C10_14 
REMARK    4  A    between atoms: C11_17  and  N4_18 
REMARK    5  A    between atoms: C13_25  and  N7_26 
REMARK       I    between atoms: N7_26  and  C14_28 
REMARK    6  A    between atoms: C14_28  and  C15_30 
REMARK    7  A    between atoms: C15_30  and  N8_31 
REMARK    8  A    between atoms: N8_31  and  C16_32 
REMARK    9  A    between atoms: N8_31  and  C18_34 
ROOT
HETATM    1  C10 UNL     1      12.040  23.130  13.312  1.00  0.00     0.166 A 
HETATM    2  N3  UNL     1      12.232  24.270  13.998  1.00  0.00    -0.173 N 
ATOM      3  H3  UNL     1      13.181  24.542  14.256  1.00  0.00     0.186 HD
HETATM    4  C11 UNL     1      11.203  25.061  14.352  1.00  0.00     0.678 A 
HETATM    5  N5  UNL     1       9.925  24.749  14.035  1.00  0.00    -0.177 N 
ATOM      6  H5  UNL     1       9.162  25.366  14.314  1.00  0.00     0.185 HD
HETATM    7  C12 UNL     1       9.668  23.627  13.353  1.00  0.00     0.162 A 
HETATM    8  N6  UNL     1       8.325  23.265  12.996  1.00  0.00    -0.080 NA
HETATM    9  C13 UNL     1      10.743  22.823  12.996  1.00  0.00     0.123 A 
ENDROOT
BRANCH   1  10
HETATM   10  N2  UNL     1      13.037  22.355  12.964  1.00  0.00    -0.283 N 
ATOM     11  H2  UNL     1      13.344  21.622  13.604  1.00  0.00     0.188 HD
BRANCH  10  12
HETATM   12  N1  UNL     1      13.685  22.504  11.747  1.00  0.00    -0.306 N 
HETATM   13  C9  UNL     1      14.733  23.222  11.549  1.00  0.00     0.012 C 
HETATM   14  C6  UNL     1      15.306  23.271  10.156  1.00  0.00    -0.007 C 
HETATM   15  C20 UNL     1      15.431  24.010  12.572  1.00  0.00     0.059 C 
HETATM   16  C5  UNL     1      16.731  22.835  10.268  1.00  0.00     0.015 C 
HETATM   17  C7  UNL     1      14.510  22.414   9.216  1.00  0.00     0.021 C 
HETATM   18  C8  UNL     1      15.153  24.708   9.708  1.00  0.00     0.021 C 
HETATM   19  C4  UNL     1      17.500  23.743  11.161  1.00  0.00     0.006 C 
HETATM   20  C3  UNL     1      16.912  23.995  12.498  1.00  0.00    -0.010 C 
ATOM     21  H1  UNL     1      13.298  22.006  10.945  1.00  0.00     0.186 HD
BRANCH  20  22
HETATM   22  C2  UNL     1      17.433  25.363  12.961  1.00  0.00     0.000 C 
HETATM   23  C1  UNL     1      18.696  25.704  12.172  1.00  0.00     0.005 C 
ENDBRANCH  20  22
ENDBRANCH  10  12
ENDBRANCH   1  10
BRANCH   9  24
HETATM   24  N7  UNL     1      10.456  21.640  12.283  1.00  0.00    -0.320 N 
HETATM   25  C14 UNL     1      10.355  20.377  12.951  1.00  0.00     0.250 C 
HETATM   26  O1  UNL     1      10.539  20.383  14.191  1.00  0.00    -0.271 OA
ATOM     27  H7  UNL     1      10.317  21.685  11.274  1.00  0.00     0.169 HD
BRANCH  25  28
HETATM   28  C15 UNL     1      10.051  19.192  12.147  1.00  0.00     0.374 C 
BRANCH  28  29
HETATM   29  N8  UNL     1       8.663  18.810  12.129  1.00  0.00     0.096 N 
BRANCH  29  30
HETATM   30  C16 UNL     1       7.999  19.562  11.083  1.00  0.00     0.268 C 
HETATM   31  C17 UNL     1       7.436  18.685   9.993  1.00  0.00     0.037 C 
ENDBRANCH  29  30
BRANCH  29  32
HETATM   32  C18 UNL     1       8.478  17.410  11.826  1.00  0.00     0.268 C 
HETATM   33  C19 UNL     1       9.770  16.633  11.871  1.00  0.00     0.037 C 
ENDBRANCH  29  32
ENDBRANCH  28  29
ENDBRANCH  25  28
ENDBRANCH   9  24
BRANCH   4  34
HETATM   34  N4  UNL     1      11.428  26.140  15.005  1.00  0.00    -0.234 N 
ATOM     35  H42 UNL     1      11.182  27.032  14.576  1.00  0.00     0.174 HD
ATOM     36  H41 UNL     1      11.849  26.090  15.933  1.00  0.00     0.174 HD
ENDBRANCH   4  34
TORSDOF 9
ENDMDL
MODEL 4
REMARK VINA RESULT: -6.831703676      1.481      4.857
REMARK  9 active torsions:
REMARK  status: ('A' for Active; 'I' for Inactive)
REMARK    1  A    between atoms: C2_2  and  C3_3 
REMARK    2  A    between atoms: N1_10  and  N2_12 
REMARK    3  A    between atoms: N2_12  and  C10_14 
REMARK    4  A    between atoms: C11_17  and  N4_18 
REMARK    5  A    between atoms: C13_25  and  N7_26 
REMARK       I    between atoms: N7_26  and  C14_28 
REMARK    6  A    between atoms: C14_28  and  C15_30 
REMARK    7  A    between atoms: C15_30  and  N8_31 
REMARK    8  A    between atoms: N8_31  and  C16_32 
REMARK    9  A    between atoms: N8_31  and  C18_34 
ROOT
HETATM    1  C10 UNL     1      13.408  25.513  14.628  1.00  0.00     0.166 A 
HETATM    2  N3  UNL     1      14.618  26.042  14.878  1.00  0.00    -0.173 N 
ATOM      3  H3  UNL     1      14.695  26.821  15.533  1.00  0.00     0.186 HD
HETATM    4  C11 UNL     1      15.730  25.569  14.285  1.00  0.00     0.678 A 
HETATM    5  N5  UNL     1      15.686  24.538  13.410  1.00  0.00    -0.177 N 
ATOM      6  H5  UNL     1      16.543  24.198  12.974  1.00  0.00     0.185 HD
HETATM    7  C12 UNL     1      14.510  23.969  13.118  1.00  0.00     0.162 A 
HETATM    8  N6  UNL     1      14.424  22.871  12.197  1.00  0.00    -0.080 NA
HETATM    9  C13 UNL     1      13.373  24.470  13.740  1.00  0.00     0.123 A 
ENDROOT
BRANCH   1  10
HETATM   10  N2  UNL     1      12.321  25.969  15.200  1.00  0.00    -0.283 N 
ATOM     11  H2  UNL     1      11.718  26.609  14.684  1.00  0.00     0.188 HD
BRANCH  10  12
HETATM   12  N1  UNL     1      11.971  25.601  16.491  1.00  0.00    -0.306 N 
HETATM   13  C9  UNL     1      12.127  26.332  17.537  1.00  0.00     0.012 C 
HETATM   14  C6  UNL     1      11.689  25.771  18.865  1.00  0.00    -0.007 C 
HETATM   15  C20 UNL     1      12.705  27.681  17.555  1.00  0.00     0.059 C 
HETATM   16  C5  UNL     1      10.714  26.747  19.437  1.00  0.00     0.015 C 
HETATM   17  C7  UNL     1      11.106  24.397  18.704  1.00  0.00     0.021 C 
HETATM   18  C8  UNL     1      12.955  25.639  19.684  1.00  0.00     0.021 C 
HETATM   19  C4  UNL     1      11.345  28.079  19.638  1.00  0.00     0.006 C 
HETATM   20  C3  UNL     1      12.047  28.651  18.464  1.00  0.00    -0.010 C 
ATOM     21  H1  UNL     1      11.556  24.679  16.620  1.00  0.00     0.186 HD
BRANCH  20  22
HETATM   22  C2  UNL     1      13.120  29.605  19.011  1.00  0.00     0.000 C 
HETATM   23  C1  UNL     1      14.486  28.930  18.893  1.00  0.00     0.005 C 
ENDBRANCH  20  22
ENDBRANCH  10  12
ENDBRANCH   1  10
BRANCH   9  24
HETATM   24  N7  UNL     1      12.141  23.865  13.418  1.00  0.00    -0.320 N 
HETATM   25  C14 UNL     1      11.487  22.978  14.333  1.00  0.00     0.250 C 
HETATM   26  O1  UNL     1      12.070  22.772  15.424  1.00  0.00    -0.271 OA
ATOM     27  H7  UNL     1      11.708  24.061  12.515  1.00  0.00     0.169 HD
BRANCH  25  28
HETATM   28  C15 UNL     1      10.209  22.388  13.932  1.00  0.00     0.374 C 
BRANCH  28  29
HETATM   29  N8  UNL     1      10.255  21.603  12.725  1.00  0.00     0.096 N 
BRANCH  29  30
HETATM   30  C16 UNL     1      10.428  20.212  13.096  1.00  0.00     0.268 C 
HETATM   31  C17 UNL     1       9.580  19.273  12.275  1.00  0.00     0.037 C 
ENDBRANCH  29  30
BRANCH  29  32
HETATM   32  C18 UNL     1       9.031  21.688  11.963  1.00  0.00     0.268 C 
HETATM   33  C19 UNL     1       8.056  22.680  12.544  1.00  0.00     0.037 C 
ENDBRANCH  29  32
ENDBRANCH  28  29
ENDBRANCH  25  28
ENDBRANCH   9  24
BRANCH   4  34
HETATM   34  N4  UNL     1      16.865  26.101  14.552  1.00  0.00    -0.234 N 
ATOM     35  H42 UNL     1      16.913  27.110  14.688  1.00  0.00     0.174 HD
ATOM     36  H41 UNL     1      17.695  25.510  14.621  1.00  0.00     0.174 HD
ENDBRANCH   4  34
TORSDOF 9
ENDMDL
MODEL 5
REMARK VINA RESULT: -6.766356726      1.753      5.440
REMARK  9 active torsions:
REMARK  status: ('A' for Active; 'I' for Inactive)
REMARK    1  A    between atoms: C2_2  and  C3_3 
REMARK    2  A    between atoms: N1_10  and  N2_12 
REMARK    3  A    between atoms: N2_12  and  C10_14 
REMARK    4  A    between atoms: C11_17  and  N4_18 
REMARK    5  A    between atoms: C13_25  and  N7_26 
REMARK       I    between atoms: N7_26  and  C14_28 
REMARK    6  A    between atoms: C14_28  and  C15_30 
REMARK    7  A    between atoms: C15_30  and  N8_31 
REMARK    8  A    between atoms: N8_31  and  C16_32 
REMARK    9  A    between atoms: N8_31  and  C18_34 
ROOT
HETATM    1  C10 UNL     1      14.326  24.283  14.912  1.00  0.00     0.166 A 
HETATM    2  N3  UNL     1      15.422  25.052  14.798  1.00  0.00    -0.173 N 
ATOM      3  H3  UNL     1      15.713  25.624  15.591  1.00  0.00     0.186 HD
HETATM    4  C11 UNL     1      16.144  25.085  13.663  1.00  0.00     0.678 A 
HETATM    5  N5  UNL     1      15.805  24.347  12.582  1.00  0.00    -0.177 N 
ATOM      6  H5  UNL     1      16.370  24.389  11.733  1.00  0.00     0.185 HD
HETATM    7  C12 UNL     1      14.723  23.561  12.632  1.00  0.00     0.162 A 
HETATM    8  N6  UNL     1      14.333  22.760  11.505  1.00  0.00    -0.080 NA
HETATM    9  C13 UNL     1      13.989  23.539  13.811  1.00  0.00     0.123 A 
ENDROOT
BRANCH   1  10
HETATM   10  N2  UNL     1      13.617  24.246  16.013  1.00  0.00    -0.283 N 
ATOM     11  H2  UNL     1      13.092  23.401  16.238  1.00  0.00     0.188 HD
BRANCH  10  12
HETATM   12  N1  UNL     1      13.563  25.326  16.880  1.00  0.00    -0.306 N 
HETATM   13  C9  UNL     1      12.528  25.684  17.555  1.00  0.00     0.012 C 
HETATM   14  C6  UNL     1      12.648  26.888  18.452  1.00  0.00    -0.007 C 
HETATM   15  C20 UNL     1      11.221  25.015  17.528  1.00  0.00     0.059 C 
HETATM   16  C5  UNL     1      12.265  26.435  19.823  1.00  0.00     0.015 C 
HETATM   17  C7  UNL     1      14.033  27.465  18.397  1.00  0.00     0.021 C 
HETATM   18  C8  UNL     1      11.700  27.916  17.874  1.00  0.00     0.021 C 
HETATM   19  C4  UNL     1      10.868  25.926  19.849  1.00  0.00     0.006 C 
HETATM   20  C3  UNL     1      10.529  24.901  18.834  1.00  0.00    -0.010 C 
ATOM     21  H1  UNL     1      14.411  25.881  16.992  1.00  0.00     0.186 HD
BRANCH  20  22
HETATM   22  C2  UNL     1       9.016  25.001  18.590  1.00  0.00     0.000 C 
HETATM   23  C1  UNL     1       8.325  25.348  19.907  1.00  0.00     0.005 C 
ENDBRANCH  20  22
ENDBRANCH  10  12
ENDBRANCH   1  10
BRANCH   9  24
HETATM   24  N7  UNL     1      12.848  22.711  13.846  1.00  0.00    -0.320 N 
HETATM   25  C14 UNL     1      11.529  23.260  13.746  1.00  0.00     0.250 C 
HETATM   26  O1  UNL     1      11.449  24.507  13.630  1.00  0.00    -0.271 OA
ATOM     27  H7  UNL     1      12.964  21.703  13.945  1.00  0.00     0.169 HD
BRANCH  25  28
HETATM   28  C15 UNL     1      10.391  22.340  13.787  1.00  0.00     0.374 C 
BRANCH  28  29
HETATM   29  N8  UNL     1      10.240  21.509  12.621  1.00  0.00     0.096 N 
BRANCH  29  30
HETATM   30  C16 UNL     1      10.355  20.123  13.033  1.00  0.00     0.268 C 
HETATM   31  C17 UNL     1       9.504  19.190  12.209  1.00  0.00     0.037 C 
ENDBRANCH  29  30
BRANCH  29  32
HETATM   32  C18 UNL     1       8.946  21.658  11.998  1.00  0.00     0.268 C 
HETATM   33  C19 UNL     1       8.136  22.774  12.608  1.00  0.00     0.037 C 
ENDBRANCH  29  32
ENDBRANCH  28  29
ENDBRANCH  25  28
ENDBRANCH   9  24
BRANCH   4  34
HETATM   34  N4  UNL     1      17.185  25.831  13.596  1.00  0.00    -0.234 N 
ATOM     35  H42 UNL     1      18.104  25.390  13.605  1.00  0.00     0.174 HD
ATOM     36  H41 UNL     1      17.076  26.844  13.537  1.00  0.00     0.174 HD
ENDBRANCH   4  34
TORSDOF 9
ENDMDL
