MODEL 1
REMARK VINA RESULT: -6.726477344      0.000      0.000
REMARK  10 active torsions:
REMARK  status: ('A' for Active; 'I' for Inactive)
REMARK    1  A    between atoms: C7_7  and  O1_8 
REMARK    2  A    between atoms: O1_8  and  C8_9 
REMARK    3  A    between atoms: C8_9  and  C9_10 
REMARK    4  A    between atoms: C9_10  and  O2_11 
REMARK    5  A    between atoms: O2_11  and  C10_12 
REMARK    6  A    between atoms: C10_12  and  C11_13 
REMARK    7  A    between atoms: C11_13  and  N1_14 
REMARK    8  A    between atoms: C15_21  and  O3_22 
REMARK    9  A    between atoms: C17_25  and  O4_26 
REMARK   10  A    between atoms: C23_33  and  O5_34 
ROOT
HETATM    1  C1  UNL     1       7.894  25.106  21.160  1.00  0.00     0.018 C 
HETATM    2  C2  UNL     1       9.278  24.762  21.562  1.00  0.00    -0.014 C 
HETATM    3  C3  UNL     1       9.818  23.506  21.012  1.00  0.00     0.012 C 
HETATM    4  C4  UNL     1       9.979  23.687  19.505  1.00  0.00     0.007 C 
HETATM    5  C5  UNL     1      10.905  24.839  19.212  1.00  0.00     0.003 C 
HETATM    6  C6  UNL     1      10.341  26.132  19.804  1.00  0.00     0.024 C 
HETATM    7  C7  UNL     1      11.144  27.340  19.425  1.00  0.00     0.126 C 
HETATM    8  C12 UNL     1      12.405  26.915  18.652  1.00  0.00     0.038 C 
HETATM    9  C13 UNL     1      11.866  26.260  17.425  1.00  0.00     0.001 C 
HETATM   10  C14 UNL     1      12.745  26.264  16.232  1.00  0.00     0.037 C 
HETATM   11  C15 UNL     1      12.001  25.614  15.089  1.00  0.00     0.121 C 
HETATM   12  C16 UNL     1      11.154  24.467  15.424  1.00  0.00     0.064 C 
HETATM   13  C17 UNL     1      10.415  24.500  16.738  1.00  0.00     0.129 C 
HETATM   14  C18 UNL     1      11.378  24.885  17.829  1.00  0.00    -0.010 C 
HETATM   15  C19 UNL     1      12.519  23.857  17.721  1.00  0.00     0.018 C 
HETATM   16  C20 UNL     1      10.288  25.887  21.283  1.00  0.00     0.003 C 
HETATM   17  C21 UNL     1       9.731  26.963  22.128  1.00  0.00     0.008 C 
HETATM   18  C22 UNL     1       9.077  26.262  23.331  1.00  0.00     0.033 C 
HETATM   19  C23 UNL     1       9.312  24.785  23.099  1.00  0.00     0.126 C 
ENDROOT
BRANCH   7  20
HETATM   20  O1  UNL     1      11.498  28.206  20.378  1.00  0.00    -0.383 OA
BRANCH  20  21
HETATM   21  C8  UNL     1      11.374  29.539  20.044  1.00  0.00     0.194 C 
BRANCH  21  22
HETATM   22  C9  UNL     1      10.845  30.329  21.188  1.00  0.00     0.193 C 
BRANCH  22  23
HETATM   23  O2  UNL     1       9.528  30.703  21.073  1.00  0.00    -0.387 OA
BRANCH  23  24
HETATM   24  C10 UNL     1       8.834  30.477  22.222  1.00  0.00     0.195 C 
BRANCH  24  25
HETATM   25  C11 UNL     1       7.458  29.925  21.781  1.00  0.00     0.255 C 
BRANCH  25  26
HETATM   26  N1  UNL     1       6.953  29.157  22.910  1.00  0.00    -0.077 N 
ATOM     27  H13 UNL     1       6.501  28.284  22.640  1.00  0.00     0.274 HD
ATOM     28  H12 UNL     1       7.689  28.742  23.482  1.00  0.00     0.274 HD
ATOM     29  H11 UNL     1       6.343  29.789  23.429  1.00  0.00     0.274 HD
ENDBRANCH  25  26
ENDBRANCH  24  25
ENDBRANCH  23  24
ENDBRANCH  22  23
ENDBRANCH  21  22
ENDBRANCH  20  21
ENDBRANCH   7  20
BRANCH  13  30
HETATM   30  O4  UNL     1       9.900  23.212  16.868  1.00  0.00    -0.395 OA
ATOM     31  H4  UNL     1      10.569  22.745  17.355  1.00  0.00     0.210 HD
ENDBRANCH  13  30
BRANCH  19  32
HETATM   32  O5  UNL     1       8.341  23.983  23.645  1.00  0.00    -0.395 OA
ATOM     33  H5  UNL     1       8.403  23.945  24.592  1.00  0.00     0.210 HD
ENDBRANCH  19  32
BRANCH  11  34
HETATM   34  O3  UNL     1      11.235  26.556  14.371  1.00  0.00    -0.395 OA
ATOM     35  H3  UNL     1      10.663  27.050  14.947  1.00  0.00     0.210 HD
ENDBRANCH  11  34
TORSDOF 10
ENDMDL
MODEL 2
REMARK VINA RESULT: -6.642231177      5.831     10.616
REMARK  10 active torsions:
REMARK  status: ('A' for Active; 'I' for Inactive)
REMARK    1  A    between atoms: C7_7  and  O1_8 
REMARK    2  A    between atoms: O1_8  and  C8_9 
REMARK    3  A    between atoms: C8_9  and  C9_10 
REMARK    4  A    between atoms: C9_10  and  O2_11 
REMARK    5  A    between atoms: O2_11  and  C10_12 
REMARK    6  A    between atoms: C10_12  and  C11_13 
REMARK    7  A    between atoms: C11_13  and  N1_14 
REMARK    8  A    between atoms: C15_21  and  O3_22 
REMARK    9  A    between atoms: C17_25  and  O4_26 
REMARK   10  A    between atoms: C23_33  and  O5_34 
ROOT
HETATM    1  C1  UNL     1      15.514  24.722  10.050  1.00  0.00     0.018 C 
HETATM    2  C2  UNL     1      15.936  23.580  10.893  1.00  0.00    -0.014 C 
HETATM    3  C3  UNL     1      16.916  23.883  11.951  1.00  0.00     0.012 C 
HETATM    4  C4  UNL     1      16.229  24.778  12.980  1.00  0.00     0.007 C 
HETATM    5  C5  UNL     1      15.022  24.084  13.555  1.00  0.00     0.003 C 
HETATM    6  C6  UNL     1      14.022  23.759  12.444  1.00  0.00     0.024 C 
HETATM    7  C7  UNL     1      12.736  23.196  12.969  1.00  0.00     0.126 C 
HETATM    8  C12 UNL     1      12.839  22.971  14.488  1.00  0.00     0.038 C 
HETATM    9  C13 UNL     1      13.053  24.341  15.037  1.00  0.00     0.001 C 
HETATM   10  C14 UNL     1      12.621  24.569  16.436  1.00  0.00     0.037 C 
HETATM   11  C15 UNL     1      12.865  26.020  16.779  1.00  0.00     0.121 C 
HETATM   12  C16 UNL     1      14.080  26.630  16.235  1.00  0.00     0.064 C 
HETATM   13  C17 UNL     1      14.514  26.213  14.852  1.00  0.00     0.129 C 
HETATM   14  C18 UNL     1      14.497  24.711  14.767  1.00  0.00    -0.010 C 
HETATM   15  C19 UNL     1      15.396  24.245  15.927  1.00  0.00     0.018 C 
HETATM   16  C20 UNL     1      14.756  22.825  11.527  1.00  0.00     0.003 C 
HETATM   17  C21 UNL     1      14.046  22.370  10.314  1.00  0.00     0.008 C 
HETATM   18  C22 UNL     1      15.132  22.142   9.248  1.00  0.00     0.033 C 
HETATM   19  C23 UNL     1      16.435  22.484   9.937  1.00  0.00     0.126 C 
ENDROOT
BRANCH   7  20
HETATM   20  O1  UNL     1      12.235  22.093  12.406  1.00  0.00    -0.383 OA
BRANCH  20  21
HETATM   21  C8  UNL     1      11.186  21.505  13.083  1.00  0.00     0.194 C 
BRANCH  21  22
HETATM   22  C9  UNL     1       9.910  21.673  12.337  1.00  0.00     0.193 C 
BRANCH  22  23
HETATM   23  O2  UNL     1       9.208  20.511  12.122  1.00  0.00    -0.387 OA
BRANCH  23  24
HETATM   24  C10 UNL     1       9.880  19.420  12.581  1.00  0.00     0.195 C 
BRANCH  24  25
HETATM   25  C11 UNL     1       9.268  18.207  11.843  1.00  0.00     0.255 C 
BRANCH  25  26
HETATM   26  N1  UNL     1       9.806  17.024  12.500  1.00  0.00    -0.077 N 
ATOM     27  H13 UNL     1       9.530  16.940  13.478  1.00  0.00     0.274 HD
ATOM     28  H12 UNL     1       9.385  16.153  12.178  1.00  0.00     0.274 HD
ATOM     29  H11 UNL     1      10.816  17.063  12.364  1.00  0.00     0.274 HD
ENDBRANCH  25  26
ENDBRANCH  24  25
ENDBRANCH  23  24
ENDBRANCH  22  23
ENDBRANCH  21  22
ENDBRANCH  20  21
ENDBRANCH   7  20
BRANCH  13  30
HETATM   30  O4  UNL     1      15.783  26.773  14.715  1.00  0.00    -0.395 OA
ATOM     31  H4  UNL     1      16.179  26.273  14.011  1.00  0.00     0.210 HD
ENDBRANCH  13  30
BRANCH  19  32
HETATM   32  O5  UNL     1      17.401  22.953   9.081  1.00  0.00    -0.395 OA
ATOM     33  H5  UNL     1      17.242  23.854   8.827  1.00  0.00     0.210 HD
ENDBRANCH  19  32
BRANCH  11  34
HETATM   34  O3  UNL     1      11.755  26.823  16.440  1.00  0.00    -0.395 OA
ATOM     35  H3  UNL     1      11.285  27.110  17.214  1.00  0.00     0.210 HD
ENDBRANCH  11  34
TORSDOF 10
ENDMDL
MODEL 3
REMARK VINA RESULT: -6.629517329      2.393      4.859
REMARK  10 active torsions:
REMARK  status: ('A' for Active; 'I' for Inactive)
REMARK    1  A    between atoms: C7_7  and  O1_8 
REMARK    2  A    between atoms: O1_8  and  C8_9 
REMARK    3  A    between atoms: C8_9  and  C9_10 
REMARK    4  A    between atoms: C9_10  and  O2_11 
REMARK    5  A    between atoms: O2_11  and  C10_12 
REMARK    6  A    between atoms: C10_12  and  C11_13 
REMARK    7  A    between atoms: C11_13  and  N1_14 
REMARK    8  A    between atoms: C15_21  and  O3_22 
REMARK    9  A    between atoms: C17_25  and  O4_26 
REMARK   10  A    between atoms: C23_33  and  O5_34 
ROOT
HETATM    1  C1  UNL     1      13.565  27.367  20.801  1.00  0.00     0.018 C 
HETATM    2  C2  UNL     1      12.710  28.147  19.877  1.00  0.00    -0.014 C 
HETATM    3  C3  UNL     1      13.243  28.347  18.516  1.00  0.00     0.012 C 
HETATM    4  C4  UNL     1      13.274  26.988  17.823  1.00  0.00     0.007 C 
HETATM    5  C5  UNL     1      11.890  26.394  17.772  1.00  0.00     0.003 C 
HETATM    6  C6  UNL     1      11.343  26.209  19.188  1.00  0.00     0.024 C 
HETATM    7  C7  UNL     1      10.027  25.490  19.211  1.00  0.00     0.126 C 
HETATM    8  C12 UNL     1       9.524  25.263  17.774  1.00  0.00     0.038 C 
HETATM    9  C13 UNL     1      10.568  24.388  17.167  1.00  0.00     0.001 C 
HETATM   10  C14 UNL     1      10.137  23.524  16.042  1.00  0.00     0.037 C 
HETATM   11  C15 UNL     1      11.313  22.679  15.611  1.00  0.00     0.121 C 
HETATM   12  C16 UNL     1      12.628  23.322  15.633  1.00  0.00     0.064 C 
HETATM   13  C17 UNL     1      12.911  24.302  16.745  1.00  0.00     0.129 C 
HETATM   14  C18 UNL     1      11.761  25.266  16.850  1.00  0.00    -0.010 C 
HETATM   15  C19 UNL     1      11.625  25.866  15.438  1.00  0.00     0.018 C 
HETATM   16  C20 UNL     1      11.281  27.594  19.760  1.00  0.00     0.003 C 
HETATM   17  C21 UNL     1      10.827  27.729  21.160  1.00  0.00     0.008 C 
HETATM   18  C22 UNL     1      11.552  28.963  21.724  1.00  0.00     0.033 C 
HETATM   19  C23 UNL     1      12.397  29.478  20.578  1.00  0.00     0.126 C 
ENDROOT
BRANCH   7  20
HETATM   20  O1  UNL     1       9.028  25.995  19.939  1.00  0.00    -0.383 OA
BRANCH  20  21
HETATM   21  C8  UNL     1       8.097  25.080  20.385  1.00  0.00     0.194 C 
BRANCH  21  22
HETATM   22  C9  UNL     1       8.291  24.783  21.830  1.00  0.00     0.193 C 
BRANCH  22  23
HETATM   23  O2  UNL     1       7.684  23.631  22.271  1.00  0.00    -0.387 OA
BRANCH  23  24
HETATM   24  C10 UNL     1       6.815  23.874  23.290  1.00  0.00     0.195 C 
BRANCH  24  25
HETATM   25  C11 UNL     1       6.745  22.562  24.106  1.00  0.00     0.255 C 
BRANCH  25  26
HETATM   26  N1  UNL     1       5.355  22.134  24.057  1.00  0.00    -0.077 N 
ATOM     27  H13 UNL     1       4.713  22.780  24.516  1.00  0.00     0.274 HD
ATOM     28  H12 UNL     1       4.943  22.192  23.126  1.00  0.00     0.274 HD
ATOM     29  H11 UNL     1       5.337  21.193  24.452  1.00  0.00     0.274 HD
ENDBRANCH  25  26
ENDBRANCH  24  25
ENDBRANCH  23  24
ENDBRANCH  22  23
ENDBRANCH  21  22
ENDBRANCH  20  21
ENDBRANCH   7  20
BRANCH  13  30
HETATM   30  O4  UNL     1      14.115  24.896  16.371  1.00  0.00    -0.395 OA
ATOM     31  H4  UNL     1      14.716  24.652  17.064  1.00  0.00     0.210 HD
ENDBRANCH  13  30
BRANCH  19  32
HETATM   32  O5  UNL     1      13.538  30.123  20.986  1.00  0.00    -0.395 OA
ATOM     33  H5  UNL     1      13.353  30.991  21.326  1.00  0.00     0.210 HD
ENDBRANCH  19  32
BRANCH  11  34
HETATM   34  O3  UNL     1      11.378  21.475  16.344  1.00  0.00    -0.395 OA
ATOM     35  H3  UNL     1      11.216  20.722  15.788  1.00  0.00     0.210 HD
ENDBRANCH  11  34
TORSDOF 10
ENDMDL
MODEL 4
REMARK VINA RESULT: -6.529606044      2.694      7.089
REMARK  10 active torsions:
REMARK  status: ('A' for Active; 'I' for Inactive)
REMARK    1  A    between atoms: C7_7  and  O1_8 
REMARK    2  A    between atoms: O1_8  and  C8_9 
REMARK    3  A    between atoms: C8_9  and  C9_10 
REMARK    4  A    between atoms: C9_10  and  O2_11 
REMARK    5  A    between atoms: O2_11  and  C10_12 
REMARK    6  A    between atoms: C10_12  and  C11_13 
REMARK    7  A    between atoms: C11_13  and  N1_14 
REMARK    8  A    between atoms: C15_21  and  O3_22 
REMARK    9  A    between atoms: C17_25  and  O4_26 
REMARK   10  A    between atoms: C23_33  and  O5_34 
ROOT
HETATM    1  C1  UNL     1      10.647  29.674  20.786  1.00  0.00     0.018 C 
HETATM    2  C2  UNL     1      11.554  28.518  20.969  1.00  0.00    -0.014 C 
HETATM    3  C3  UNL     1      11.880  28.164  22.363  1.00  0.00     0.012 C 
HETATM    4  C4  UNL     1      10.603  27.652  23.023  1.00  0.00     0.007 C 
HETATM    5  C5  UNL     1      10.072  26.454  22.280  1.00  0.00     0.003 C 
HETATM    6  C6  UNL     1       9.756  26.831  20.831  1.00  0.00     0.024 C 
HETATM    7  C7  UNL     1       9.091  25.719  20.076  1.00  0.00     0.126 C 
HETATM    8  C12 UNL     1       9.039  24.448  20.943  1.00  0.00     0.038 C 
HETATM    9  C13 UNL     1       8.195  24.846  22.106  1.00  0.00     0.001 C 
HETATM   10  C14 UNL     1       7.476  23.756  22.806  1.00  0.00     0.037 C 
HETATM   11  C15 UNL     1       6.637  24.366  23.904  1.00  0.00     0.121 C 
HETATM   12  C16 UNL     1       7.223  25.496  24.628  1.00  0.00     0.064 C 
HETATM   13  C17 UNL     1       8.065  26.470  23.844  1.00  0.00     0.129 C 
HETATM   14  C18 UNL     1       9.056  25.701  23.013  1.00  0.00    -0.010 C 
HETATM   15  C19 UNL     1       9.809  24.818  24.026  1.00  0.00     0.018 C 
HETATM   16  C20 UNL     1      11.073  27.249  20.247  1.00  0.00     0.003 C 
HETATM   17  C21 UNL     1      11.074  27.721  18.847  1.00  0.00     0.008 C 
HETATM   18  C22 UNL     1      12.210  28.754  18.748  1.00  0.00     0.033 C 
HETATM   19  C23 UNL     1      12.813  28.806  20.135  1.00  0.00     0.126 C 
ENDROOT
BRANCH   7  20
HETATM   20  O1  UNL     1       9.553  25.393  18.866  1.00  0.00    -0.383 OA
BRANCH  20  21
HETATM   21  C8  UNL     1      10.013  24.099  18.735  1.00  0.00     0.194 C 
BRANCH  21  22
HETATM   22  C9  UNL     1      10.751  23.923  17.455  1.00  0.00     0.193 C 
BRANCH  22  23
HETATM   23  O2  UNL     1      10.329  22.866  16.685  1.00  0.00    -0.387 OA
BRANCH  23  24
HETATM   24  C10 UNL     1      10.740  22.984  15.392  1.00  0.00     0.195 C 
BRANCH  24  25
HETATM   25  C11 UNL     1      10.765  24.502  15.096  1.00  0.00     0.255 C 
BRANCH  25  26
HETATM   26  N1  UNL     1       9.717  24.737  14.114  1.00  0.00    -0.077 N 
ATOM     27  H13 UNL     1      10.040  24.670  13.149  1.00  0.00     0.274 HD
ATOM     28  H12 UNL     1       9.029  23.985  14.065  1.00  0.00     0.274 HD
ATOM     29  H11 UNL     1       9.312  25.644  14.346  1.00  0.00     0.274 HD
ENDBRANCH  25  26
ENDBRANCH  24  25
ENDBRANCH  23  24
ENDBRANCH  22  23
ENDBRANCH  21  22
ENDBRANCH  20  21
ENDBRANCH   7  20
BRANCH  13  30
HETATM   30  O4  UNL     1       8.649  27.273  24.821  1.00  0.00    -0.395 OA
ATOM     31  H4  UNL     1       9.511  26.893  24.945  1.00  0.00     0.210 HD
ENDBRANCH  13  30
BRANCH  19  32
HETATM   32  O5  UNL     1      13.366  30.024  20.446  1.00  0.00    -0.395 OA
ATOM     33  H5  UNL     1      12.704  30.663  20.683  1.00  0.00     0.210 HD
ENDBRANCH  19  32
BRANCH  11  34
HETATM   34  O3  UNL     1       5.359  24.734  23.433  1.00  0.00    -0.395 OA
ATOM     35  H3  UNL     1       5.290  25.675  23.319  1.00  0.00     0.210 HD
ENDBRANCH  11  34
TORSDOF 10
ENDMDL
MODEL 5
REMARK VINA RESULT: -6.452471639      4.592      7.760
REMARK  10 active torsions:
REMARK  status: ('A' for Active; 'I' for Inactive)
REMARK    1  A    between atoms: C7_7  and  O1_8 
REMARK    2  A    between atoms: O1_8  and  C8_9 
REMARK    3  A    between atoms: C8_9  and  C9_10 
REMARK    4  A    between atoms: C9_10  and  O2_11 
REMARK    5  A    between atoms: O2_11  and  C10_12 
REMARK    6  A    between atoms: C10_12  and  C11_13 
REMARK    7  A    between atoms: C11_13  and  N1_14 
REMARK    8  A    between atoms: C15_21  and  O3_22 
REMARK    9  A    between atoms: C17_25  and  O4_26 
REMARK   10  A    between atoms: C23_33  and  O5_34 
ROOT
HETATM    1  C1  UNL     1      11.900  24.341  19.245  1.00  0.00     0.018 C 
HETATM    2  C2  UNL     1      11.611  25.418  18.271  1.00  0.00    -0.014 C 
HETATM    3  C3  UNL     1      12.542  26.562  18.275  1.00  0.00     0.012 C 
HETATM    4  C4  UNL     1      13.896  26.063  17.778  1.00  0.00     0.007 C 
HETATM    5  C5  UNL     1      13.765  25.487  16.392  1.00  0.00     0.003 C 
HETATM    6  C6  UNL     1      12.784  24.314  16.399  1.00  0.00     0.024 C 
HETATM    7  C7  UNL     1      12.718  23.607  15.078  1.00  0.00     0.126 C 
HETATM    8  C12 UNL     1      13.564  24.358  14.034  1.00  0.00     0.038 C 
HETATM    9  C13 UNL     1      14.950  24.283  14.580  1.00  0.00     0.001 C 
HETATM   10  C14 UNL     1      16.055  24.373  13.596  1.00  0.00     0.037 C 
HETATM   11  C15 UNL     1      17.364  24.216  14.334  1.00  0.00     0.121 C 
HETATM   12  C16 UNL     1      17.452  24.838  15.657  1.00  0.00     0.064 C 
HETATM   13  C17 UNL     1      16.218  24.821  16.523  1.00  0.00     0.129 C 
HETATM   14  C18 UNL     1      15.043  25.289  15.708  1.00  0.00    -0.010 C 
HETATM   15  C19 UNL     1      15.469  26.666  15.166  1.00  0.00     0.018 C 
HETATM   16  C20 UNL     1      11.475  24.911  16.826  1.00  0.00     0.003 C 
HETATM   17  C21 UNL     1      10.327  23.992  16.972  1.00  0.00     0.008 C 
HETATM   18  C22 UNL     1       9.444  24.589  18.081  1.00  0.00     0.033 C 
HETATM   19  C23 UNL     1      10.156  25.854  18.510  1.00  0.00     0.126 C 
ENDROOT
BRANCH   7  20
HETATM   20  O1  UNL     1      11.522  23.340  14.547  1.00  0.00    -0.383 OA
BRANCH  20  21
HETATM   21  C8  UNL     1      11.517  22.398  13.539  1.00  0.00     0.194 C 
BRANCH  21  22
HETATM   22  C9  UNL     1      10.581  21.286  13.853  1.00  0.00     0.193 C 
BRANCH  22  23
HETATM   23  O2  UNL     1      10.541  20.281  12.916  1.00  0.00    -0.387 OA
BRANCH  23  24
HETATM   24  C10 UNL     1       9.450  20.383  12.108  1.00  0.00     0.195 C 
BRANCH  24  25
HETATM   25  C11 UNL     1       9.024  18.931  11.791  1.00  0.00     0.255 C 
BRANCH  25  26
HETATM   26  N1  UNL     1       9.930  18.073  12.541  1.00  0.00    -0.077 N 
ATOM     27  H13 UNL     1       9.453  17.412  13.153  1.00  0.00     0.274 HD
ATOM     28  H12 UNL     1      10.408  17.382  11.962  1.00  0.00     0.274 HD
ATOM     29  H11 UNL     1      10.566  18.700  13.034  1.00  0.00     0.274 HD
ENDBRANCH  25  26
ENDBRANCH  24  25
ENDBRANCH  23  24
ENDBRANCH  22  23
ENDBRANCH  21  22
ENDBRANCH  20  21
ENDBRANCH   7  20
BRANCH  13  30
HETATM   30  O4  UNL     1      16.540  25.664  17.585  1.00  0.00    -0.395 OA
ATOM     31  H4  UNL     1      17.355  26.072  17.315  1.00  0.00     0.210 HD
ENDBRANCH  13  30
BRANCH  19  32
HETATM   32  O5  UNL     1       9.932  26.191  19.821  1.00  0.00    -0.395 OA
ATOM     33  H5  UNL     1       9.743  27.117  19.923  1.00  0.00     0.210 HD
ENDBRANCH  19  32
BRANCH  11  34
HETATM   34  O3  UNL     1      17.737  22.859  14.439  1.00  0.00    -0.395 OA
ATOM     35  H3  UNL     1      18.576  22.698  14.023  1.00  0.00     0.210 HD
ENDBRANCH  11  34
TORSDOF 10
ENDMDL
