MODEL 1
REMARK VINA RESULT: -8.866701361      0.000      0.000
REMARK  11 active torsions:
REMARK  status: ('A' for Active; 'I' for Inactive)
REMARK    1  A    between atoms: C2_3  and  C3_4 
REMARK    2  A    between atoms: C2_3  and  C14_24 
REMARK    3  A    between atoms: C3_4  and  O1_5 
REMARK    4  A    between atoms: O1_5  and  C4_6 
REMARK    5  A    between atoms: C9_11  and  C10_12 
REMARK    6  A    between atoms: C10_12  and  O2_13 
REMARK    7  A    between atoms: C11_15  and  O3_16 
REMARK    8  A    between atoms: C12_18  and  O4_19 
REMARK    9  A    between atoms: C13_21  and  O5_22 
REMARK   10  A    between atoms: C14_24  and  S1_25 
REMARK   11  A    between atoms: S1_25  and  C15_26 
ROOT
HETATM    1  C1  UNL     1       8.033  22.549  12.565  1.00  0.00     0.221 C 
HETATM    2  N1  UNL     1       8.935  21.819  12.460  1.00  0.00    -0.463 NA
HETATM    3  C2  UNL     1      10.025  20.956  12.330  1.00  0.00     0.194 C 
ENDROOT
BRANCH   3   4
HETATM    4  C3  UNL     1      11.138  21.284  13.262  1.00  0.00     0.208 C 
BRANCH   4   5
HETATM    5  O1  UNL     1      11.913  22.331  12.839  1.00  0.00    -0.380 OA
BRANCH   5   6
HETATM    6  C4  UNL     1      11.806  23.474  13.666  1.00  0.00     0.152 C 
HETATM    7  C5  UNL     1      12.906  24.417  13.409  1.00  0.00     0.034 C 
HETATM    8  C6  UNL     1      14.001  24.613  14.364  1.00  0.00     0.002 C 
HETATM    9  C7  UNL     1      13.830  25.642  15.435  1.00  0.00     0.001 C 
HETATM   10  C8  UNL     1      12.415  26.051  15.743  1.00  0.00     0.009 C 
HETATM   11  C9  UNL     1      11.876  25.437  16.982  1.00  0.00     0.041 C 
HETATM   12  C11 UNL     1      10.704  24.587  16.909  1.00  0.00     0.155 C 
HETATM   13  C12 UNL     1      10.332  23.883  15.670  1.00  0.00     0.178 C 
HETATM   14  C13 UNL     1      11.438  23.072  15.035  1.00  0.00     0.178 C 
BRANCH  11  15
HETATM   15  C10 UNL     1      11.587  26.526  18.037  1.00  0.00     0.171 C 
BRANCH  15  16
HETATM   16  O2  UNL     1      11.228  27.714  17.414  1.00  0.00    -0.400 OA
ATOM     17  H2  UNL     1      11.909  28.366  17.534  1.00  0.00     0.209 HD
ENDBRANCH  15  16
ENDBRANCH  11  15
BRANCH  12  18
HETATM   18  O3  UNL     1       9.545  25.306  17.307  1.00  0.00    -0.392 OA
ATOM     19  H3  UNL     1       9.163  25.756  16.562  1.00  0.00     0.210 HD
ENDBRANCH  12  18
BRANCH  13  20
HETATM   20  O4  UNL     1       9.661  24.694  14.724  1.00  0.00    -0.390 OA
ATOM     21  H4  UNL     1       8.802  24.372  14.477  1.00  0.00     0.210 HD
ENDBRANCH  13  20
BRANCH  14  22
HETATM   22  O5  UNL     1      12.431  22.933  15.963  1.00  0.00    -0.390 OA
ATOM     23  H5  UNL     1      12.198  22.636  16.835  1.00  0.00     0.210 HD
ENDBRANCH  14  22
ENDBRANCH   5   6
ENDBRANCH   4   5
ENDBRANCH   3   4
BRANCH   3  24
HETATM   24  C14 UNL     1       9.602  19.519  12.393  1.00  0.00     0.115 C 
BRANCH  24  25
HETATM   25  S1  UNL     1       8.428  19.144  11.075  1.00  0.00    -0.161 SA
BRANCH  25  26
HETATM   26  C15 UNL     1       8.047  17.394  11.016  1.00  0.00     0.047 C 
HETATM   27  C16 UNL     1       9.323  16.543  10.953  1.00  0.00     0.015 C 
HETATM   28  C17 UNL     1       8.841  15.113  11.163  1.00  0.00     0.001 C 
HETATM   29  C18 UNL     1       8.042  14.684   9.962  1.00  0.00     0.000 C 
HETATM   30  C19 UNL     1       6.950  15.634   9.589  1.00  0.00     0.001 C 
HETATM   31  C20 UNL     1       7.291  17.078   9.744  1.00  0.00     0.015 C 
ENDBRANCH  25  26
ENDBRANCH  24  25
ENDBRANCH   3  24
TORSDOF 11
ENDMDL
MODEL 2
REMARK VINA RESULT: -8.742029387      0.367      1.018
REMARK  11 active torsions:
REMARK  status: ('A' for Active; 'I' for Inactive)
REMARK    1  A    between atoms: C2_3  and  C3_4 
REMARK    2  A    between atoms: C2_3  and  C14_24 
REMARK    3  A    between atoms: C3_4  and  O1_5 
REMARK    4  A    between atoms: O1_5  and  C4_6 
REMARK    5  A    between atoms: C9_11  and  C10_12 
REMARK    6  A    between atoms: C10_12  and  O2_13 
REMARK    7  A    between atoms: C11_15  and  O3_16 
REMARK    8  A    between atoms: C12_18  and  O4_19 
REMARK    9  A    between atoms: C13_21  and  O5_22 
REMARK   10  A    between atoms: C14_24  and  S1_25 
REMARK   11  A    between atoms: S1_25  and  C15_26 
ROOT
HETATM    1  C1  UNL     1       7.960  22.482  12.541  1.00  0.00     0.221 C 
HETATM    2  N1  UNL     1       8.832  21.722  12.407  1.00  0.00    -0.463 NA
HETATM    3  C2  UNL     1       9.887  20.821  12.242  1.00  0.00     0.194 C 
ENDROOT
BRANCH   3   4
HETATM    4  C3  UNL     1      10.995  21.042  13.211  1.00  0.00     0.208 C 
BRANCH   4   5
HETATM    5  O1  UNL     1      11.888  21.999  12.808  1.00  0.00    -0.380 OA
BRANCH   5   6
HETATM    6  C4  UNL     1      11.852  23.167  13.606  1.00  0.00     0.152 C 
HETATM    7  C5  UNL     1      13.055  23.988  13.395  1.00  0.00     0.034 C 
HETATM    8  C6  UNL     1      14.109  24.096  14.407  1.00  0.00     0.002 C 
HETATM    9  C7  UNL     1      13.985  25.163  15.447  1.00  0.00     0.001 C 
HETATM   10  C8  UNL     1      12.604  25.721  15.665  1.00  0.00     0.009 C 
HETATM   11  C9  UNL     1      11.937  25.195  16.882  1.00  0.00     0.041 C 
HETATM   12  C11 UNL     1      10.691  24.465  16.758  1.00  0.00     0.155 C 
HETATM   13  C12 UNL     1      10.319  23.772  15.513  1.00  0.00     0.178 C 
HETATM   14  C13 UNL     1      11.370  22.838  14.958  1.00  0.00     0.178 C 
BRANCH  11  15
HETATM   15  C10 UNL     1      11.702  26.333  17.898  1.00  0.00     0.171 C 
BRANCH  15  16
HETATM   16  O2  UNL     1      11.410  27.516  17.232  1.00  0.00    -0.400 OA
ATOM     17  H2  UNL     1      11.806  27.512  16.368  1.00  0.00     0.209 HD
ENDBRANCH  15  16
ENDBRANCH  11  15
BRANCH  12  18
HETATM   18  O3  UNL     1       9.591  25.307  17.075  1.00  0.00    -0.392 OA
ATOM     19  H3  UNL     1       8.965  24.843  17.619  1.00  0.00     0.210 HD
ENDBRANCH  12  18
BRANCH  13  20
HETATM   20  O4  UNL     1       9.787  24.622  14.514  1.00  0.00    -0.390 OA
ATOM     21  H4  UNL     1      10.419  24.891  13.857  1.00  0.00     0.210 HD
ENDBRANCH  13  20
BRANCH  14  22
HETATM   22  O5  UNL     1      12.290  22.624  15.945  1.00  0.00    -0.390 OA
ATOM     23  H5  UNL     1      13.001  23.246  16.045  1.00  0.00     0.210 HD
ENDBRANCH  14  22
ENDBRANCH   5   6
ENDBRANCH   4   5
ENDBRANCH   3   4
BRANCH   3  24
HETATM   24  C14 UNL     1       9.401  19.402  12.209  1.00  0.00     0.115 C 
BRANCH  24  25
HETATM   25  S1  UNL     1       8.237  19.161  10.852  1.00  0.00    -0.161 SA
BRANCH  25  26
HETATM   26  C15 UNL     1       8.286  17.477  10.240  1.00  0.00     0.047 C 
HETATM   27  C16 UNL     1       6.874  16.894  10.088  1.00  0.00     0.015 C 
HETATM   28  C17 UNL     1       7.079  15.585   9.334  1.00  0.00     0.001 C 
HETATM   29  C18 UNL     1       7.796  14.612  10.230  1.00  0.00     0.000 C 
HETATM   30  C19 UNL     1       9.050  15.154  10.837  1.00  0.00     0.001 C 
HETATM   31  C20 UNL     1       8.982  16.588  11.245  1.00  0.00     0.015 C 
ENDBRANCH  25  26
ENDBRANCH  24  25
ENDBRANCH   3  24
TORSDOF 11
ENDMDL
MODEL 3
REMARK VINA RESULT: -8.379353517      0.869      1.064
REMARK  11 active torsions:
REMARK  status: ('A' for Active; 'I' for Inactive)
REMARK    1  A    between atoms: C2_3  and  C3_4 
REMARK    2  A    between atoms: C2_3  and  C14_24 
REMARK    3  A    between atoms: C3_4  and  O1_5 
REMARK    4  A    between atoms: O1_5  and  C4_6 
REMARK    5  A    between atoms: C9_11  and  C10_12 
REMARK    6  A    between atoms: C10_12  and  O2_13 
REMARK    7  A    between atoms: C11_15  and  O3_16 
REMARK    8  A    between atoms: C12_18  and  O4_19 
REMARK    9  A    between atoms: C13_21  and  O5_22 
REMARK   10  A    between atoms: C14_24  and  S1_25 
REMARK   11  A    between atoms: S1_25  and  C15_26 
ROOT
HETATM    1  C1  UNL     1       7.850  22.535  12.570  1.00  0.00     0.221 C 
HETATM    2  N1  UNL     1       8.771  21.844  12.399  1.00  0.00    -0.463 NA
HETATM    3  C2  UNL     1       9.884  21.026  12.189  1.00  0.00     0.194 C 
ENDROOT
BRANCH   3   4
HETATM    4  C3  UNL     1      11.049  21.405  13.034  1.00  0.00     0.208 C 
BRANCH   4   5
HETATM    5  O1  UNL     1      10.742  21.527  14.364  1.00  0.00    -0.380 OA
BRANCH   5   6
HETATM    6  C4  UNL     1      10.894  22.846  14.852  1.00  0.00     0.152 C 
HETATM    7  C5  UNL     1      11.374  23.748  13.793  1.00  0.00     0.034 C 
HETATM    8  C6  UNL     1      12.742  24.274  13.781  1.00  0.00     0.002 C 
HETATM    9  C7  UNL     1      13.016  25.549  14.513  1.00  0.00     0.001 C 
HETATM   10  C8  UNL     1      12.017  25.937  15.569  1.00  0.00     0.009 C 
HETATM   11  C9  UNL     1      12.479  25.661  16.953  1.00  0.00     0.041 C 
HETATM   12  C11 UNL     1      11.727  24.750  17.792  1.00  0.00     0.155 C 
HETATM   13  C12 UNL     1      10.861  23.705  17.221  1.00  0.00     0.178 C 
HETATM   14  C13 UNL     1      11.518  22.821  16.186  1.00  0.00     0.178 C 
BRANCH  11  15
HETATM   15  C10 UNL     1      12.640  26.981  17.737  1.00  0.00     0.171 C 
BRANCH  15  16
HETATM   16  O2  UNL     1      11.597  27.847  17.433  1.00  0.00    -0.400 OA
ATOM     17  H2  UNL     1      11.032  27.956  18.189  1.00  0.00     0.209 HD
ENDBRANCH  15  16
ENDBRANCH  11  15
BRANCH  12  18
HETATM   18  O3  UNL     1      10.908  25.476  18.700  1.00  0.00    -0.392 OA
ATOM     19  H3  UNL     1      10.406  26.137  18.236  1.00  0.00     0.210 HD
ENDBRANCH  12  18
BRANCH  13  20
HETATM   20  O4  UNL     1       9.596  24.173  16.791  1.00  0.00    -0.390 OA
ATOM     21  H4  UNL     1       8.868  23.622  17.056  1.00  0.00     0.210 HD
ENDBRANCH  13  20
BRANCH  14  22
HETATM   22  O5  UNL     1      12.867  23.013  16.279  1.00  0.00    -0.390 OA
ATOM     23  H5  UNL     1      13.411  22.285  16.557  1.00  0.00     0.210 HD
ENDBRANCH  14  22
ENDBRANCH   5   6
ENDBRANCH   4   5
ENDBRANCH   3   4
BRANCH   3  24
HETATM   24  C14 UNL     1       9.527  19.573  12.287  1.00  0.00     0.115 C 
BRANCH  24  25
HETATM   25  S1  UNL     1       8.286  19.139  11.051  1.00  0.00    -0.161 SA
BRANCH  25  26
HETATM   26  C15 UNL     1       7.994  17.371  11.009  1.00  0.00     0.047 C 
HETATM   27  C16 UNL     1       9.310  16.585  10.958  1.00  0.00     0.015 C 
HETATM   28  C17 UNL     1       8.900  15.134  11.183  1.00  0.00     0.001 C 
HETATM   29  C18 UNL     1       8.126  14.654   9.985  1.00  0.00     0.000 C 
HETATM   30  C19 UNL     1       6.989  15.544   9.599  1.00  0.00     0.001 C 
HETATM   31  C20 UNL     1       7.257  17.005   9.740  1.00  0.00     0.015 C 
ENDBRANCH  25  26
ENDBRANCH  24  25
ENDBRANCH   3  24
TORSDOF 11
ENDMDL
MODEL 4
REMARK VINA RESULT: -8.233466744      1.015      1.417
REMARK  11 active torsions:
REMARK  status: ('A' for Active; 'I' for Inactive)
REMARK    1  A    between atoms: C2_3  and  C3_4 
REMARK    2  A    between atoms: C2_3  and  C14_24 
REMARK    3  A    between atoms: C3_4  and  O1_5 
REMARK    4  A    between atoms: O1_5  and  C4_6 
REMARK    5  A    between atoms: C9_11  and  C10_12 
REMARK    6  A    between atoms: C10_12  and  O2_13 
REMARK    7  A    between atoms: C11_15  and  O3_16 
REMARK    8  A    between atoms: C12_18  and  O4_19 
REMARK    9  A    between atoms: C13_21  and  O5_22 
REMARK   10  A    between atoms: C14_24  and  S1_25 
REMARK   11  A    between atoms: S1_25  and  C15_26 
ROOT
HETATM    1  C1  UNL     1       8.212  22.848  12.785  1.00  0.00     0.221 C 
HETATM    2  N1  UNL     1       9.059  22.080  12.564  1.00  0.00    -0.463 NA
HETATM    3  C2  UNL     1      10.084  21.171  12.293  1.00  0.00     0.194 C 
ENDROOT
BRANCH   3   4
HETATM    4  C3  UNL     1      11.287  21.384  13.143  1.00  0.00     0.208 C 
BRANCH   4   5
HETATM    5  O1  UNL     1      11.824  22.639  13.022  1.00  0.00    -0.380 OA
BRANCH   5   6
HETATM    6  C4  UNL     1      11.526  23.480  14.120  1.00  0.00     0.152 C 
HETATM    7  C5  UNL     1      11.891  24.876  13.829  1.00  0.00     0.034 C 
HETATM    8  C6  UNL     1      13.044  25.526  14.461  1.00  0.00     0.002 C 
HETATM    9  C7  UNL     1      12.837  26.216  15.771  1.00  0.00     0.001 C 
HETATM   10  C8  UNL     1      11.620  25.802  16.555  1.00  0.00     0.009 C 
HETATM   11  C9  UNL     1      11.925  24.889  17.684  1.00  0.00     0.041 C 
HETATM   12  C11 UNL     1      11.337  23.565  17.715  1.00  0.00     0.155 C 
HETATM   13  C12 UNL     1      10.894  22.885  16.486  1.00  0.00     0.178 C 
HETATM   14  C13 UNL     1      11.921  22.825  15.379  1.00  0.00     0.178 C 
BRANCH  11  15
HETATM   15  C10 UNL     1      11.589  25.571  19.029  1.00  0.00     0.171 C 
BRANCH  15  16
HETATM   16  O2  UNL     1      10.516  26.438  18.871  1.00  0.00    -0.400 OA
ATOM     17  H2  UNL     1      10.694  27.055  18.171  1.00  0.00     0.209 HD
ENDBRANCH  15  16
ENDBRANCH  11  15
BRANCH  12  18
HETATM   18  O3  UNL     1      10.220  23.539  18.594  1.00  0.00    -0.392 OA
ATOM     19  H3  UNL     1       9.424  23.351  18.111  1.00  0.00     0.210 HD
ENDBRANCH  12  18
BRANCH  13  20
HETATM   20  O4  UNL     1       9.630  23.310  16.013  1.00  0.00    -0.390 OA
ATOM     21  H4  UNL     1       9.173  23.898  16.602  1.00  0.00     0.210 HD
ENDBRANCH  13  20
BRANCH  14  22
HETATM   22  O5  UNL     1      13.133  23.140  15.925  1.00  0.00    -0.390 OA
ATOM     23  H5  UNL     1      13.533  23.971  15.694  1.00  0.00     0.210 HD
ENDBRANCH  14  22
ENDBRANCH   5   6
ENDBRANCH   4   5
ENDBRANCH   3   4
BRANCH   3  24
HETATM   24  C14 UNL     1       9.586  19.756  12.314  1.00  0.00     0.115 C 
BRANCH  24  25
HETATM   25  S1  UNL     1       8.324  19.509  11.049  1.00  0.00    -0.161 SA
BRANCH  25  26
HETATM   26  C15 UNL     1       8.380  17.846  10.384  1.00  0.00     0.047 C 
HETATM   27  C16 UNL     1       6.976  17.239  10.267  1.00  0.00     0.015 C 
HETATM   28  C17 UNL     1       7.176  15.958   9.466  1.00  0.00     0.001 C 
HETATM   29  C18 UNL     1       7.946  14.973  10.304  1.00  0.00     0.000 C 
HETATM   30  C19 UNL     1       9.211  15.521  10.879  1.00  0.00     0.001 C 
HETATM   31  C20 UNL     1       9.132  16.940  11.335  1.00  0.00     0.015 C 
ENDBRANCH  25  26
ENDBRANCH  24  25
ENDBRANCH   3  24
TORSDOF 11
ENDMDL
MODEL 5
REMARK VINA RESULT: -7.986943626      1.100      1.574
REMARK  11 active torsions:
REMARK  status: ('A' for Active; 'I' for Inactive)
REMARK    1  A    between atoms: C2_3  and  C3_4 
REMARK    2  A    between atoms: C2_3  and  C14_24 
REMARK    3  A    between atoms: C3_4  and  O1_5 
REMARK    4  A    between atoms: O1_5  and  C4_6 
REMARK    5  A    between atoms: C9_11  and  C10_12 
REMARK    6  A    between atoms: C10_12  and  O2_13 
REMARK    7  A    between atoms: C11_15  and  O3_16 
REMARK    8  A    between atoms: C12_18  and  O4_19 
REMARK    9  A    between atoms: C13_21  and  O5_22 
REMARK   10  A    between atoms: C14_24  and  S1_25 
REMARK   11  A    between atoms: S1_25  and  C15_26 
ROOT
HETATM    1  C1  UNL     1       8.409  23.100  12.766  1.00  0.00     0.221 C 
HETATM    2  N1  UNL     1       9.206  22.271  12.582  1.00  0.00    -0.463 NA
HETATM    3  C2  UNL     1      10.171  21.288  12.355  1.00  0.00     0.194 C 
ENDROOT
BRANCH   3   4
HETATM    4  C3  UNL     1      11.386  21.463  13.197  1.00  0.00     0.208 C 
BRANCH   4   5
HETATM    5  O1  UNL     1      12.366  22.205  12.592  1.00  0.00    -0.380 OA
BRANCH   5   6
HETATM    6  C4  UNL     1      12.631  23.426  13.256  1.00  0.00     0.152 C 
HETATM    7  C5  UNL     1      13.940  23.969  12.860  1.00  0.00     0.034 C 
HETATM    8  C6  UNL     1      15.092  23.960  13.767  1.00  0.00     0.002 C 
HETATM    9  C7  UNL     1      15.275  25.123  14.689  1.00  0.00     0.001 C 
HETATM   10  C8  UNL     1      14.053  25.961  14.952  1.00  0.00     0.009 C 
HETATM   11  C9  UNL     1      13.423  25.694  16.269  1.00  0.00     0.041 C 
HETATM   12  C11 UNL     1      12.055  25.217  16.326  1.00  0.00     0.155 C 
HETATM   13  C12 UNL     1      11.437  24.498  15.199  1.00  0.00     0.178 C 
HETATM   14  C13 UNL     1      12.232  23.327  14.671  1.00  0.00     0.178 C 
BRANCH  11  15
HETATM   15  C10 UNL     1      13.510  26.946  17.169  1.00  0.00     0.171 C 
BRANCH  15  16
HETATM   16  O2  UNL     1      13.380  26.586  18.503  1.00  0.00    -0.400 OA
ATOM     17  H2  UNL     1      12.507  26.246  18.667  1.00  0.00     0.209 HD
ENDBRANCH  15  16
ENDBRANCH  11  15
BRANCH  12  18
HETATM   18  O3  UNL     1      11.171  26.286  16.634  1.00  0.00    -0.392 OA
ATOM     19  H3  UNL     1      10.856  26.694  15.836  1.00  0.00     0.210 HD
ENDBRANCH  12  18
BRANCH  13  20
HETATM   20  O4  UNL     1      10.979  25.340  14.158  1.00  0.00    -0.390 OA
ATOM     21  H4  UNL     1      10.212  25.012  13.703  1.00  0.00     0.210 HD
ENDBRANCH  13  20
BRANCH  14  22
HETATM   22  O5  UNL     1      13.189  23.027  15.599  1.00  0.00    -0.390 OA
ATOM     23  H5  UNL     1      12.947  22.485  16.341  1.00  0.00     0.210 HD
ENDBRANCH  14  22
ENDBRANCH   5   6
ENDBRANCH   4   5
ENDBRANCH   3   4
BRANCH   3  24
HETATM   24  C14 UNL     1       9.586  19.910  12.438  1.00  0.00     0.115 C 
BRANCH  24  25
HETATM   25  S1  UNL     1       8.358  19.663  11.139  1.00  0.00    -0.161 SA
BRANCH  25  26
HETATM   26  C15 UNL     1       8.452  18.008  10.456  1.00  0.00     0.047 C 
HETATM   27  C16 UNL     1       7.060  17.376  10.323  1.00  0.00     0.015 C 
HETATM   28  C17 UNL     1       7.291  16.108   9.509  1.00  0.00     0.001 C 
HETATM   29  C18 UNL     1       8.074  15.128  10.341  1.00  0.00     0.000 C 
HETATM   30  C19 UNL     1       9.324  15.695  10.932  1.00  0.00     0.001 C 
HETATM   31  C20 UNL     1       9.214  17.107  11.402  1.00  0.00     0.015 C 
ENDBRANCH  25  26
ENDBRANCH  24  25
ENDBRANCH   3  24
TORSDOF 11
ENDMDL
