MODEL 1
REMARK VINA RESULT: -7.398538117      0.000      0.000
REMARK  8 active torsions:
REMARK  status: ('A' for Active; 'I' for Inactive)
REMARK    1  A    between atoms: C2_2  and  C3_3 
REMARK    2  A    between atoms: C4_4  and  C5_5 
REMARK    3  A    between atoms: C5_5  and  N1_7 
REMARK    4  A    between atoms: N1_7  and  C6_9 
REMARK    5  A    between atoms: C6_9  and  C7_10 
REMARK       I    between atoms: C7_10  and  N2_12 
REMARK    6  A    between atoms: N2_12  and  C8_14 
REMARK    7  A    between atoms: C8_14  and  C9_15 
REMARK    8  A    between atoms: C9_15  and  S2_16 
ROOT
HETATM    1  C3  UNL     1      -3.562  24.964  10.603  1.00  0.00    -0.010 A 
HETATM    2  C4  UNL     1      -3.281  24.493   9.344  1.00  0.00     0.052 A 
HETATM    3  S3  UNL     1      -2.424  25.803   8.642  1.00  0.00    -0.079 SA
HETATM    4  C11 UNL     1      -2.450  26.893   9.952  1.00  0.00     0.101 A 
HETATM    5  C12 UNL     1      -1.963  28.191  10.182  1.00  0.00     0.267 A 
HETATM    6  O2  UNL     1      -1.353  28.722   9.224  1.00  0.00    -0.267 OA
HETATM    7  N3  UNL     1      -2.144  28.813  11.355  1.00  0.00    -0.299 N 
ATOM      8  H3  UNL     1      -1.794  29.756  11.531  1.00  0.00     0.171 HD
HETATM    9  C13 UNL     1      -2.819  28.112  12.283  1.00  0.00     0.179 A 
HETATM   10  S4  UNL     1      -3.049  28.878  13.734  1.00  0.00    -0.040 SA
HETATM   11  N4  UNL     1      -3.288  26.892  12.097  1.00  0.00    -0.331 N 
ATOM     12  H4  UNL     1      -3.787  26.440  12.862  1.00  0.00     0.168 HD
HETATM   13  C14 UNL     1      -3.132  26.205  10.915  1.00  0.00     0.065 A 
ENDROOT
BRANCH   2  14
HETATM   14  C5  UNL     1      -3.629  23.200   8.765  1.00  0.00     0.114 C 
HETATM   15  S1  UNL     1      -5.159  22.879   8.383  1.00  0.00    -0.059 SA
BRANCH  14  16
HETATM   16  N1  UNL     1      -2.629  22.236   8.536  1.00  0.00    -0.371 N 
ATOM     17  H1  UNL     1      -2.802  21.276   8.834  1.00  0.00     0.161 HD
BRANCH  16  18
HETATM   18  C6  UNL     1      -1.373  22.543   7.902  1.00  0.00     0.223 C 
BRANCH  18  19
HETATM   19  C7  UNL     1      -1.368  22.453   6.434  1.00  0.00     0.235 C 
HETATM   20  O1  UNL     1      -2.184  23.236   5.833  1.00  0.00    -0.272 OA
HETATM   21  N2  UNL     1      -0.573  21.609   5.640  1.00  0.00    -0.359 N 
ATOM     22  H2  UNL     1       0.085  20.984   6.106  1.00  0.00     0.162 HD
BRANCH  21  23
HETATM   23  C8  UNL     1      -0.643  21.583   4.207  1.00  0.00     0.132 C 
BRANCH  23  24
HETATM   24  C9  UNL     1      -0.291  20.233   3.679  1.00  0.00     0.093 C 
BRANCH  24  25
HETATM   25  S2  UNL     1      -0.396  20.201   1.844  1.00  0.00    -0.172 SA
HETATM   26  C10 UNL     1       0.900  19.030   1.303  1.00  0.00     0.089 C 
ENDBRANCH  24  25
ENDBRANCH  23  24
ENDBRANCH  21  23
ENDBRANCH  18  19
ENDBRANCH  16  18
ENDBRANCH  14  16
ENDBRANCH   2  14
BRANCH   1  27
HETATM   27  C2  UNL     1      -4.335  24.066  11.568  1.00  0.00     0.038 C 
HETATM   28  C1  UNL     1      -5.795  24.376  11.522  1.00  0.00     0.010 C 
ENDBRANCH   1  27
TORSDOF 8
ENDMDL
MODEL 2
REMARK VINA RESULT: -7.184327924      2.800      4.007
REMARK  8 active torsions:
REMARK  status: ('A' for Active; 'I' for Inactive)
REMARK    1  A    between atoms: C2_2  and  C3_3 
REMARK    2  A    between atoms: C4_4  and  C5_5 
REMARK    3  A    between atoms: C5_5  and  N1_7 
REMARK    4  A    between atoms: N1_7  and  C6_9 
REMARK    5  A    between atoms: C6_9  and  C7_10 
REMARK       I    between atoms: C7_10  and  N2_12 
REMARK    6  A    between atoms: N2_12  and  C8_14 
REMARK    7  A    between atoms: C8_14  and  C9_15 
REMARK    8  A    between atoms: C9_15  and  S2_16 
ROOT
HETATM    1  C3  UNL     1      -3.682  24.443   9.102  1.00  0.00    -0.010 A 
HETATM    2  C4  UNL     1      -3.235  23.193   9.453  1.00  0.00     0.052 A 
HETATM    3  S3  UNL     1      -4.659  22.449  10.057  1.00  0.00    -0.079 SA
HETATM    4  C11 UNL     1      -5.760  23.733   9.847  1.00  0.00     0.101 A 
HETATM    5  C12 UNL     1      -7.129  23.926  10.098  1.00  0.00     0.267 A 
HETATM    6  O2  UNL     1      -7.735  22.948  10.596  1.00  0.00    -0.267 OA
HETATM    7  N3  UNL     1      -7.739  25.086   9.819  1.00  0.00    -0.299 N 
ATOM      8  H3  UNL     1      -8.732  25.235   9.997  1.00  0.00     0.171 HD
HETATM    9  C13 UNL     1      -6.952  26.040   9.288  1.00  0.00     0.179 A 
HETATM   10  S4  UNL     1      -7.701  27.478   8.945  1.00  0.00    -0.040 SA
HETATM   11  N4  UNL     1      -5.665  25.887   9.041  1.00  0.00    -0.331 N 
ATOM     12  H4  UNL     1      -5.151  26.669   8.636  1.00  0.00     0.168 HD
HETATM   13  C14 UNL     1      -4.986  24.720   9.307  1.00  0.00     0.065 A 
ENDROOT
BRANCH   2  14
HETATM   14  C5  UNL     1      -1.887  22.648   9.335  1.00  0.00     0.114 C 
HETATM   15  S1  UNL     1      -0.754  23.076  10.395  1.00  0.00    -0.059 SA
BRANCH  14  16
HETATM   16  N1  UNL     1      -1.577  21.748   8.298  1.00  0.00    -0.371 N 
ATOM     17  H1  UNL     1      -2.062  20.851   8.271  1.00  0.00     0.161 HD
BRANCH  16  18
HETATM   18  C6  UNL     1      -0.607  22.035   7.274  1.00  0.00     0.223 C 
BRANCH  18  19
HETATM   19  C7  UNL     1      -1.160  22.311   5.939  1.00  0.00     0.235 C 
HETATM   20  O1  UNL     1      -2.167  23.101   5.914  1.00  0.00    -0.272 OA
HETATM   21  N2  UNL     1      -0.703  21.801   4.712  1.00  0.00    -0.359 N 
ATOM     22  H2  UNL     1       0.102  21.174   4.716  1.00  0.00     0.162 HD
BRANCH  21  23
HETATM   23  C8  UNL     1      -1.314  22.119   3.453  1.00  0.00     0.132 C 
BRANCH  23  24
HETATM   24  C9  UNL     1      -1.329  20.931   2.551  1.00  0.00     0.093 C 
BRANCH  24  25
HETATM   25  S2  UNL     1      -0.264  19.589   3.220  1.00  0.00    -0.172 SA
HETATM   26  C10 UNL     1       0.733  19.008   1.802  1.00  0.00     0.089 C 
ENDBRANCH  24  25
ENDBRANCH  23  24
ENDBRANCH  21  23
ENDBRANCH  18  19
ENDBRANCH  16  18
ENDBRANCH  14  16
ENDBRANCH   2  14
BRANCH   1  27
HETATM   27  C2  UNL     1      -2.686  25.437   8.505  1.00  0.00     0.038 C 
HETATM   28  C1  UNL     1      -2.293  26.463   9.516  1.00  0.00     0.010 C 
ENDBRANCH   1  27
TORSDOF 8
ENDMDL
MODEL 3
REMARK VINA RESULT: -7.003437793      2.580      2.980
REMARK  8 active torsions:
REMARK  status: ('A' for Active; 'I' for Inactive)
REMARK    1  A    between atoms: C2_2  and  C3_3 
REMARK    2  A    between atoms: C4_4  and  C5_5 
REMARK    3  A    between atoms: C5_5  and  N1_7 
REMARK    4  A    between atoms: N1_7  and  C6_9 
REMARK    5  A    between atoms: C6_9  and  C7_10 
REMARK       I    between atoms: C7_10  and  N2_12 
REMARK    6  A    between atoms: N2_12  and  C8_14 
REMARK    7  A    between atoms: C8_14  and  C9_15 
REMARK    8  A    between atoms: C9_15  and  S2_16 
ROOT
HETATM    1  C3  UNL     1      -4.345  24.083   9.759  1.00  0.00    -0.010 A 
HETATM    2  C4  UNL     1      -3.093  24.376   9.277  1.00  0.00     0.052 A 
HETATM    3  S3  UNL     1      -3.149  26.085   9.121  1.00  0.00    -0.079 SA
HETATM    4  C11 UNL     1      -4.739  26.366   9.664  1.00  0.00     0.101 A 
HETATM    5  C12 UNL     1      -5.550  27.501   9.839  1.00  0.00     0.267 A 
HETATM    6  O2  UNL     1      -5.023  28.598   9.535  1.00  0.00    -0.267 OA
HETATM    7  N3  UNL     1      -6.804  27.407  10.300  1.00  0.00    -0.299 N 
ATOM      8  H3  UNL     1      -7.400  28.225  10.430  1.00  0.00     0.171 HD
HETATM    9  C13 UNL     1      -7.224  26.159  10.580  1.00  0.00     0.179 A 
HETATM   10  S4  UNL     1      -8.777  26.036  11.148  1.00  0.00    -0.040 SA
HETATM   11  N4  UNL     1      -6.487  25.076  10.427  1.00  0.00    -0.331 N 
ATOM     12  H4  UNL     1      -6.894  24.172  10.668  1.00  0.00     0.168 HD
HETATM   13  C14 UNL     1      -5.194  25.112   9.958  1.00  0.00     0.065 A 
ENDROOT
BRANCH   2  14
HETATM   14  C5  UNL     1      -2.000  23.457   8.979  1.00  0.00     0.114 C 
HETATM   15  S1  UNL     1      -0.964  23.043  10.140  1.00  0.00    -0.059 SA
BRANCH  14  16
HETATM   16  N1  UNL     1      -1.852  22.931   7.683  1.00  0.00    -0.371 N 
ATOM     17  H1  UNL     1      -2.477  23.263   6.948  1.00  0.00     0.161 HD
BRANCH  16  18
HETATM   18  C6  UNL     1      -0.858  21.945   7.345  1.00  0.00     0.223 C 
BRANCH  18  19
HETATM   19  C7  UNL     1      -0.601  21.775   5.906  1.00  0.00     0.235 C 
HETATM   20  O1  UNL     1      -1.256  22.559   5.135  1.00  0.00    -0.272 OA
HETATM   21  N2  UNL     1       0.274  20.853   5.306  1.00  0.00    -0.359 N 
ATOM     22  H2  UNL     1       0.806  20.225   5.910  1.00  0.00     0.162 HD
BRANCH  21  23
HETATM   23  C8  UNL     1       0.455  20.752   3.886  1.00  0.00     0.132 C 
BRANCH  23  24
HETATM   24  C9  UNL     1      -0.131  19.484   3.362  1.00  0.00     0.093 C 
BRANCH  24  25
HETATM   25  S2  UNL     1       0.599  19.053   1.730  1.00  0.00    -0.172 SA
HETATM   26  C10 UNL     1      -0.069  20.288   0.559  1.00  0.00     0.089 C 
ENDBRANCH  24  25
ENDBRANCH  23  24
ENDBRANCH  21  23
ENDBRANCH  18  19
ENDBRANCH  16  18
ENDBRANCH  14  16
ENDBRANCH   2  14
BRANCH   1  27
HETATM   27  C2  UNL     1      -4.699  22.623  10.040  1.00  0.00     0.038 C 
HETATM   28  C1  UNL     1      -5.356  22.001   8.852  1.00  0.00     0.010 C 
ENDBRANCH   1  27
TORSDOF 8
ENDMDL
MODEL 4
REMARK VINA RESULT: -6.998414324      2.479      2.890
REMARK  8 active torsions:
REMARK  status: ('A' for Active; 'I' for Inactive)
REMARK    1  A    between atoms: C2_2  and  C3_3 
REMARK    2  A    between atoms: C4_4  and  C5_5 
REMARK    3  A    between atoms: C5_5  and  N1_7 
REMARK    4  A    between atoms: N1_7  and  C6_9 
REMARK    5  A    between atoms: C6_9  and  C7_10 
REMARK       I    between atoms: C7_10  and  N2_12 
REMARK    6  A    between atoms: N2_12  and  C8_14 
REMARK    7  A    between atoms: C8_14  and  C9_15 
REMARK    8  A    between atoms: C9_15  and  S2_16 
ROOT
HETATM    1  C3  UNL     1      -4.021  24.349   8.996  1.00  0.00    -0.010 A 
HETATM    2  C4  UNL     1      -2.652  24.459   8.993  1.00  0.00     0.052 A 
HETATM    3  S3  UNL     1      -2.415  26.120   9.353  1.00  0.00    -0.079 SA
HETATM    4  C11 UNL     1      -4.039  26.614   9.493  1.00  0.00     0.101 A 
HETATM    5  C12 UNL     1      -4.695  27.826   9.772  1.00  0.00     0.267 A 
HETATM    6  O2  UNL     1      -3.950  28.814   9.974  1.00  0.00    -0.267 OA
HETATM    7  N3  UNL     1      -6.032  27.909   9.816  1.00  0.00    -0.299 N 
ATOM      8  H3  UNL     1      -6.516  28.784  10.017  1.00  0.00     0.171 HD
HETATM    9  C13 UNL     1      -6.691  26.761   9.576  1.00  0.00     0.179 A 
HETATM   10  S4  UNL     1      -8.344  26.859   9.625  1.00  0.00    -0.040 SA
HETATM   11  N4  UNL     1      -6.103  25.609   9.312  1.00  0.00    -0.331 N 
ATOM     12  H4  UNL     1      -6.688  24.791   9.144  1.00  0.00     0.168 HD
HETATM   13  C14 UNL     1      -4.735  25.464   9.254  1.00  0.00     0.065 A 
ENDROOT
BRANCH   2  14
HETATM   14  C5  UNL     1      -1.662  23.417   8.746  1.00  0.00     0.114 C 
HETATM   15  S1  UNL     1      -0.908  22.719   9.985  1.00  0.00    -0.059 SA
BRANCH  14  16
HETATM   16  N1  UNL     1      -1.367  23.020   7.429  1.00  0.00    -0.371 N 
ATOM     17  H1  UNL     1      -1.716  23.590   6.658  1.00  0.00     0.161 HD
BRANCH  16  18
HETATM   18  C6  UNL     1      -0.595  21.844   7.117  1.00  0.00     0.223 C 
BRANCH  18  19
HETATM   19  C7  UNL     1      -0.385  21.587   5.684  1.00  0.00     0.235 C 
HETATM   20  O1  UNL     1      -1.010  22.372   4.889  1.00  0.00    -0.272 OA
HETATM   21  N2  UNL     1       0.417  20.585   5.113  1.00  0.00    -0.359 N 
ATOM     22  H2  UNL     1       0.926  19.956   5.735  1.00  0.00     0.162 HD
BRANCH  21  23
HETATM   23  C8  UNL     1       0.556  20.403   3.696  1.00  0.00     0.132 C 
BRANCH  23  24
HETATM   24  C9  UNL     1      -0.584  19.614   3.145  1.00  0.00     0.093 C 
BRANCH  24  25
HETATM   25  S2  UNL     1      -1.401  20.520   1.769  1.00  0.00    -0.172 SA
HETATM   26  C10 UNL     1      -0.272  20.353   0.341  1.00  0.00     0.089 C 
ENDBRANCH  24  25
ENDBRANCH  23  24
ENDBRANCH  21  23
ENDBRANCH  18  19
ENDBRANCH  16  18
ENDBRANCH  14  16
ENDBRANCH   2  14
BRANCH   1  27
HETATM   27  C2  UNL     1      -4.648  22.985   8.711  1.00  0.00     0.038 C 
HETATM   28  C1  UNL     1      -4.869  22.231   9.980  1.00  0.00     0.010 C 
ENDBRANCH   1  27
TORSDOF 8
ENDMDL
MODEL 5
REMARK VINA RESULT: -6.935615486      2.971      4.338
REMARK  8 active torsions:
REMARK  status: ('A' for Active; 'I' for Inactive)
REMARK    1  A    between atoms: C2_2  and  C3_3 
REMARK    2  A    between atoms: C4_4  and  C5_5 
REMARK    3  A    between atoms: C5_5  and  N1_7 
REMARK    4  A    between atoms: N1_7  and  C6_9 
REMARK    5  A    between atoms: C6_9  and  C7_10 
REMARK       I    between atoms: C7_10  and  N2_12 
REMARK    6  A    between atoms: N2_12  and  C8_14 
REMARK    7  A    between atoms: C8_14  and  C9_15 
REMARK    8  A    between atoms: C9_15  and  S2_16 
ROOT
HETATM    1  C3  UNL     1      -4.259  24.452   9.339  1.00  0.00    -0.010 A 
HETATM    2  C4  UNL     1      -3.535  23.289   9.240  1.00  0.00     0.052 A 
HETATM    3  S3  UNL     1      -4.744  22.085   9.422  1.00  0.00    -0.079 SA
HETATM    4  C11 UNL     1      -6.111  23.084   9.617  1.00  0.00     0.101 A 
HETATM    5  C12 UNL     1      -7.486  22.869   9.818  1.00  0.00     0.267 A 
HETATM    6  O2  UNL     1      -7.847  21.669   9.877  1.00  0.00    -0.267 OA
HETATM    7  N3  UNL     1      -8.347  23.888   9.940  1.00  0.00    -0.299 N 
ATOM      8  H3  UNL     1      -9.346  23.742  10.087  1.00  0.00     0.171 HD
HETATM    9  C13 UNL     1      -7.805  25.117   9.855  1.00  0.00     0.179 A 
HETATM   10  S4  UNL     1      -8.866  26.381  10.008  1.00  0.00    -0.040 SA
HETATM   11  N4  UNL     1      -6.520  25.349   9.665  1.00  0.00    -0.331 N 
ATOM     12  H4  UNL     1      -6.203  26.317   9.614  1.00  0.00     0.168 HD
HETATM   13  C14 UNL     1      -5.590  24.344   9.534  1.00  0.00     0.065 A 
ENDROOT
BRANCH   2  14
HETATM   14  C5  UNL     1      -2.100  23.133   9.030  1.00  0.00     0.114 C 
HETATM   15  S1  UNL     1      -1.104  23.110  10.294  1.00  0.00    -0.059 SA
BRANCH  14  16
HETATM   16  N1  UNL     1      -1.587  22.999   7.727  1.00  0.00    -0.371 N 
ATOM     17  H1  UNL     1      -1.815  23.716   7.037  1.00  0.00     0.161 HD
BRANCH  16  18
HETATM   18  C6  UNL     1      -0.754  21.897   7.321  1.00  0.00     0.223 C 
BRANCH  18  19
HETATM   19  C7  UNL     1      -0.582  21.736   5.869  1.00  0.00     0.235 C 
HETATM   20  O1  UNL     1      -1.277  22.528   5.143  1.00  0.00    -0.272 OA
HETATM   21  N2  UNL     1       0.253  20.816   5.212  1.00  0.00    -0.359 N 
ATOM     22  H2  UNL     1       0.817  20.182   5.779  1.00  0.00     0.162 HD
BRANCH  21  23
HETATM   23  C8  UNL     1       0.350  20.724   3.783  1.00  0.00     0.132 C 
BRANCH  23  24
HETATM   24  C9  UNL     1       0.009  19.351   3.311  1.00  0.00     0.093 C 
BRANCH  24  25
HETATM   25  S2  UNL     1       0.675  19.056   1.623  1.00  0.00    -0.172 SA
HETATM   26  C10 UNL     1      -0.068  20.356   0.574  1.00  0.00     0.089 C 
ENDBRANCH  24  25
ENDBRANCH  23  24
ENDBRANCH  21  23
ENDBRANCH  18  19
ENDBRANCH  16  18
ENDBRANCH  14  16
ENDBRANCH   2  14
BRANCH   1  27
HETATM   27  C2  UNL     1      -3.524  25.786   9.223  1.00  0.00     0.038 C 
HETATM   28  C1  UNL     1      -3.161  26.309  10.574  1.00  0.00     0.010 C 
ENDBRANCH   1  27
TORSDOF 8
ENDMDL
