MODEL 1
REMARK VINA RESULT: -10.139074288      0.000      0.000
REMARK  14 active torsions:
REMARK  status: ('A' for Active; 'I' for Inactive)
REMARK    1  A    between atoms: C2_2  and  O1_3 
REMARK    2  A    between atoms: O1_3  and  C3_4 
REMARK    3  A    between atoms: C3_4  and  C4_6 
REMARK    4  A    between atoms: C4_6  and  C5_7 
REMARK    5  A    between atoms: C9_13  and  N2_14 
REMARK       I    between atoms: N2_14  and  C10_16 
REMARK    6  A    between atoms: C10_16  and  C11_18 
REMARK    7  A    between atoms: C11_18  and  C12_19 
REMARK    8  A    between atoms: C12_19  and  C13_20 
REMARK    9  A    between atoms: C13_20  and  C14_21 
REMARK   10  A    between atoms: C14_21  and  C15_22 
REMARK   11  A    between atoms: C15_22  and  N3_23 
REMARK   12  A    between atoms: C16_24  and  S1_25 
REMARK   13  A    between atoms: S1_25  and  C17_26 
REMARK   14  A    between atoms: C17_26  and  C18_27 
ROOT
HETATM    1  C13 UNL     1      60.618  85.797  60.871  1.00  0.00    -0.029 C 
ENDROOT
BRANCH   1   2
HETATM    2  C12 UNL     1      61.623  85.180  60.022  1.00  0.00    -0.022 C 
BRANCH   2   3
HETATM    3  C11 UNL     1      63.013  85.668  59.931  1.00  0.00     0.130 C 
BRANCH   3   4
HETATM    4  C10 UNL     1      63.221  86.945  59.229  1.00  0.00     0.226 C 
HETATM    5  N2  UNL     1      63.425  87.005  57.860  1.00  0.00    -0.312 N 
ATOM      6  H2  UNL     1      63.604  87.943  57.501  1.00  0.00     0.170 HD
HETATM    7  O3  UNL     1      63.212  87.999  59.913  1.00  0.00    -0.273 OA
BRANCH   5   8
HETATM    8  C9  UNL     1      63.429  86.005  56.887  1.00  0.00     0.114 A 
HETATM    9  C5  UNL     1      62.292  85.652  56.208  1.00  0.00    -0.005 A 
HETATM   10  C6  UNL     1      62.358  84.625  55.270  1.00  0.00     0.013 A 
HETATM   11  C7  UNL     1      63.532  83.955  55.006  1.00  0.00     0.018 A 
HETATM   12  C8  UNL     1      64.651  84.332  55.703  1.00  0.00     0.089 A 
HETATM   13  N1  UNL     1      64.565  85.328  56.606  1.00  0.00    -0.352 N 
ATOM     14  H1  UNL     1      65.412  85.589  57.111  1.00  0.00     0.166 HD
BRANCH   9  15
HETATM   15  C4  UNL     1      61.041  86.381  56.460  1.00  0.00     0.153 C 
BRANCH  15  16
HETATM   16  C3  UNL     1      60.119  86.091  55.331  1.00  0.00     0.263 C 
HETATM   17  O2  UNL     1      58.870  86.149  55.567  1.00  0.00    -0.265 OA
BRANCH  16  18
HETATM   18  O1  UNL     1      60.504  85.764  54.051  1.00  0.00    -0.322 OA
BRANCH  18  19
HETATM   19  C2  UNL     1      59.495  85.792  53.020  1.00  0.00     0.174 C 
HETATM   20  C1  UNL     1      60.163  85.859  51.659  1.00  0.00     0.034 C 
ENDBRANCH  18  19
ENDBRANCH  16  18
ENDBRANCH  15  16
ENDBRANCH   9  15
ENDBRANCH   5   8
ENDBRANCH   3   4
ENDBRANCH   2   3
ENDBRANCH   1   2
BRANCH   1  21
HETATM   21  C14 UNL     1      59.780  85.030  61.815  1.00  0.00     0.047 C 
BRANCH  21  22
HETATM   22  C15 UNL     1      60.278  84.993  63.200  1.00  0.00     0.135 C 
BRANCH  22  23
HETATM   23  N3  UNL     1      61.159  83.845  63.452  1.00  0.00    -0.325 N 
HETATM   24  C16 UNL     1      60.811  82.560  63.645  1.00  0.00     0.147 A 
HETATM   25  N4  UNL     1      61.973  81.877  63.832  1.00  0.00    -0.335 N 
HETATM   26  C24 UNL     1      63.018  82.728  63.754  1.00  0.00     0.061 A 
ATOM     27  H4  UNL     1      62.044  80.874  64.003  1.00  0.00     0.168 HD
HETATM   28  C25 UNL     1      64.384  82.597  63.862  1.00  0.00     0.032 A 
HETATM   29  C29 UNL     1      62.489  83.979  63.513  1.00  0.00     0.063 A 
HETATM   30  C26 UNL     1      65.220  83.677  63.734  1.00  0.00     0.002 A 
HETATM   31  C27 UNL     1      64.719  84.938  63.493  1.00  0.00     0.002 A 
HETATM   32  C28 UNL     1      63.361  85.069  63.387  1.00  0.00     0.032 A 
BRANCH  24  33
HETATM   33  S1  UNL     1      59.130  81.927  63.662  1.00  0.00    -0.089 SA
BRANCH  33  34
HETATM   34  C17 UNL     1      59.144  80.134  63.287  1.00  0.00     0.121 C 
BRANCH  34  35
HETATM   35  C18 UNL     1      57.759  79.604  63.282  1.00  0.00    -0.049 A 
HETATM   36  C19 UNL     1      57.296  78.642  62.413  1.00  0.00     0.008 A 
HETATM   37  C20 UNL     1      55.987  78.195  62.455  1.00  0.00     0.001 A 
HETATM   38  C21 UNL     1      55.096  78.718  63.395  1.00  0.00     0.000 A 
HETATM   39  C22 UNL     1      55.557  79.680  64.266  1.00  0.00     0.001 A 
HETATM   40  C23 UNL     1      56.867  80.113  64.208  1.00  0.00     0.008 A 
ENDBRANCH  34  35
ENDBRANCH  33  34
ENDBRANCH  24  33
ENDBRANCH  22  23
ENDBRANCH  21  22
ENDBRANCH   1  21
TORSDOF 14
ENDMDL
MODEL 2
REMARK VINA RESULT: -9.990336778      3.561      8.763
REMARK  14 active torsions:
REMARK  status: ('A' for Active; 'I' for Inactive)
REMARK    1  A    between atoms: C2_2  and  O1_3 
REMARK    2  A    between atoms: O1_3  and  C3_4 
REMARK    3  A    between atoms: C3_4  and  C4_6 
REMARK    4  A    between atoms: C4_6  and  C5_7 
REMARK    5  A    between atoms: C9_13  and  N2_14 
REMARK       I    between atoms: N2_14  and  C10_16 
REMARK    6  A    between atoms: C10_16  and  C11_18 
REMARK    7  A    between atoms: C11_18  and  C12_19 
REMARK    8  A    between atoms: C12_19  and  C13_20 
REMARK    9  A    between atoms: C13_20  and  C14_21 
REMARK   10  A    between atoms: C14_21  and  C15_22 
REMARK   11  A    between atoms: C15_22  and  N3_23 
REMARK   12  A    between atoms: C16_24  and  S1_25 
REMARK   13  A    between atoms: S1_25  and  C17_26 
REMARK   14  A    between atoms: C17_26  and  C18_27 
ROOT
HETATM    1  C13 UNL     1      59.231  84.968  61.418  1.00  0.00    -0.029 C 
ENDROOT
BRANCH   1   2
HETATM    2  C12 UNL     1      59.351  84.535  62.800  1.00  0.00    -0.022 C 
BRANCH   2   3
HETATM    3  C11 UNL     1      58.810  83.254  63.294  1.00  0.00     0.130 C 
BRANCH   3   4
HETATM    4  C10 UNL     1      59.471  82.667  64.471  1.00  0.00     0.226 C 
HETATM    5  N2  UNL     1      59.431  81.308  64.735  1.00  0.00    -0.312 N 
ATOM      6  H2  UNL     1      59.886  81.034  65.605  1.00  0.00     0.170 HD
HETATM    7  O3  UNL     1      60.082  83.444  65.247  1.00  0.00    -0.273 OA
BRANCH   5   8
HETATM    8  C9  UNL     1      58.874  80.250  64.017  1.00  0.00     0.114 A 
HETATM    9  C5  UNL     1      59.577  79.587  63.044  1.00  0.00    -0.005 A 
HETATM   10  C6  UNL     1      58.952  78.557  62.343  1.00  0.00     0.013 A 
HETATM   11  C7  UNL     1      57.651  78.188  62.601  1.00  0.00     0.018 A 
HETATM   12  C8  UNL     1      56.977  78.871  63.579  1.00  0.00     0.089 A 
HETATM   13  N1  UNL     1      57.599  79.863  64.245  1.00  0.00    -0.352 N 
ATOM     14  H1  UNL     1      57.074  80.355  64.968  1.00  0.00     0.166 HD
BRANCH   9  15
HETATM   15  C4  UNL     1      60.976  79.953  62.782  1.00  0.00     0.153 C 
BRANCH  15  16
HETATM   16  C3  UNL     1      61.836  78.954  63.469  1.00  0.00     0.263 C 
HETATM   17  O2  UNL     1      61.752  78.885  64.737  1.00  0.00    -0.265 OA
BRANCH  16  18
HETATM   18  O1  UNL     1      62.716  78.099  62.847  1.00  0.00    -0.322 OA
BRANCH  18  19
HETATM   19  C2  UNL     1      64.097  78.143  63.259  1.00  0.00     0.174 C 
HETATM   20  C1  UNL     1      64.723  79.447  62.796  1.00  0.00     0.034 C 
ENDBRANCH  18  19
ENDBRANCH  16  18
ENDBRANCH  15  16
ENDBRANCH   9  15
ENDBRANCH   5   8
ENDBRANCH   3   4
ENDBRANCH   2   3
ENDBRANCH   1   2
BRANCH   1  21
HETATM   21  C14 UNL     1      60.375  85.462  60.625  1.00  0.00     0.047 C 
BRANCH  21  22
HETATM   22  C15 UNL     1      61.515  84.534  60.537  1.00  0.00     0.135 C 
BRANCH  22  23
HETATM   23  N3  UNL     1      62.689  85.010  61.281  1.00  0.00    -0.325 N 
HETATM   24  C16 UNL     1      63.435  86.104  61.043  1.00  0.00     0.147 A 
HETATM   25  N4  UNL     1      64.400  86.120  62.002  1.00  0.00    -0.335 N 
HETATM   26  C24 UNL     1      64.249  85.054  62.817  1.00  0.00     0.061 A 
ATOM     27  H4  UNL     1      65.126  86.830  62.092  1.00  0.00     0.168 HD
HETATM   28  C25 UNL     1      64.918  84.578  63.921  1.00  0.00     0.032 A 
HETATM   29  C29 UNL     1      63.157  84.353  62.349  1.00  0.00     0.063 A 
HETATM   30  C26 UNL     1      64.521  83.430  64.560  1.00  0.00     0.002 A 
HETATM   31  C27 UNL     1      63.434  82.710  64.114  1.00  0.00     0.002 A 
HETATM   32  C28 UNL     1      62.770  83.182  63.015  1.00  0.00     0.032 A 
BRANCH  24  33
HETATM   33  S1  UNL     1      63.176  87.269  59.701  1.00  0.00    -0.089 SA
BRANCH  33  34
HETATM   34  C17 UNL     1      63.957  86.630  58.172  1.00  0.00     0.121 C 
BRANCH  34  35
HETATM   35  C18 UNL     1      62.916  86.271  57.180  1.00  0.00    -0.049 A 
HETATM   36  C19 UNL     1      63.149  85.546  56.032  1.00  0.00     0.008 A 
HETATM   37  C20 UNL     1      62.132  85.250  55.142  1.00  0.00     0.001 A 
HETATM   38  C21 UNL     1      60.829  85.685  55.392  1.00  0.00     0.000 A 
HETATM   39  C22 UNL     1      60.592  86.410  56.540  1.00  0.00     0.001 A 
HETATM   40  C23 UNL     1      61.621  86.695  57.417  1.00  0.00     0.008 A 
ENDBRANCH  34  35
ENDBRANCH  33  34
ENDBRANCH  24  33
ENDBRANCH  22  23
ENDBRANCH  21  22
ENDBRANCH   1  21
TORSDOF 14
ENDMDL
MODEL 3
REMARK VINA RESULT: -9.961452189      3.664      8.960
REMARK  14 active torsions:
REMARK  status: ('A' for Active; 'I' for Inactive)
REMARK    1  A    between atoms: C2_2  and  O1_3 
REMARK    2  A    between atoms: O1_3  and  C3_4 
REMARK    3  A    between atoms: C3_4  and  C4_6 
REMARK    4  A    between atoms: C4_6  and  C5_7 
REMARK    5  A    between atoms: C9_13  and  N2_14 
REMARK       I    between atoms: N2_14  and  C10_16 
REMARK    6  A    between atoms: C10_16  and  C11_18 
REMARK    7  A    between atoms: C11_18  and  C12_19 
REMARK    8  A    between atoms: C12_19  and  C13_20 
REMARK    9  A    between atoms: C13_20  and  C14_21 
REMARK   10  A    between atoms: C14_21  and  C15_22 
REMARK   11  A    between atoms: C15_22  and  N3_23 
REMARK   12  A    between atoms: C16_24  and  S1_25 
REMARK   13  A    between atoms: S1_25  and  C17_26 
REMARK   14  A    between atoms: C17_26  and  C18_27 
ROOT
HETATM    1  C13 UNL     1      64.656  85.198  63.798  1.00  0.00    -0.029 C 
ENDROOT
BRANCH   1   2
HETATM    2  C12 UNL     1      64.641  83.750  63.928  1.00  0.00    -0.022 C 
BRANCH   2   3
HETATM    3  C11 UNL     1      63.844  82.870  63.052  1.00  0.00     0.130 C 
BRANCH   3   4
HETATM    4  C10 UNL     1      64.030  81.420  63.225  1.00  0.00     0.226 C 
HETATM    5  N2  UNL     1      63.134  80.645  63.943  1.00  0.00    -0.312 N 
ATOM      6  H2  UNL     1      63.400  79.664  64.030  1.00  0.00     0.170 HD
HETATM    7  O3  UNL     1      65.043  80.892  62.701  1.00  0.00    -0.273 OA
BRANCH   5   8
HETATM    8  C9  UNL     1      61.930  80.974  64.567  1.00  0.00     0.114 A 
HETATM    9  C5  UNL     1      60.718  80.676  64.001  1.00  0.00    -0.005 A 
HETATM   10  C6  UNL     1      59.552  81.058  64.663  1.00  0.00     0.013 A 
HETATM   11  C7  UNL     1      59.586  81.725  65.866  1.00  0.00     0.018 A 
HETATM   12  C8  UNL     1      60.815  82.009  66.404  1.00  0.00     0.089 A 
HETATM   13  N1  UNL     1      61.929  81.630  65.748  1.00  0.00    -0.352 N 
ATOM     14  H1  UNL     1      62.830  81.854  66.170  1.00  0.00     0.166 HD
BRANCH   9  15
HETATM   15  C4  UNL     1      60.671  79.936  62.732  1.00  0.00     0.153 C 
BRANCH  15  16
HETATM   16  C3  UNL     1      59.934  78.669  62.979  1.00  0.00     0.263 C 
HETATM   17  O2  UNL     1      60.276  77.983  63.995  1.00  0.00    -0.265 OA
BRANCH  16  18
HETATM   18  O1  UNL     1      58.912  78.177  62.200  1.00  0.00    -0.322 OA
BRANCH  18  19
HETATM   19  C2  UNL     1      57.651  78.877  62.229  1.00  0.00     0.174 C 
HETATM   20  C1  UNL     1      56.531  77.894  62.517  1.00  0.00     0.034 C 
ENDBRANCH  18  19
ENDBRANCH  16  18
ENDBRANCH  15  16
ENDBRANCH   9  15
ENDBRANCH   5   8
ENDBRANCH   3   4
ENDBRANCH   2   3
ENDBRANCH   1   2
BRANCH   1  21
HETATM   21  C14 UNL     1      64.603  85.891  62.495  1.00  0.00     0.047 C 
BRANCH  21  22
HETATM   22  C15 UNL     1      63.518  86.877  62.360  1.00  0.00     0.135 C 
BRANCH  22  23
HETATM   23  N3  UNL     1      62.384  86.365  61.579  1.00  0.00    -0.325 N 
HETATM   24  C16 UNL     1      62.179  86.461  60.253  1.00  0.00     0.147 A 
HETATM   25  N4  UNL     1      60.999  85.830  60.006  1.00  0.00    -0.335 N 
HETATM   26  C24 UNL     1      60.487  85.353  61.161  1.00  0.00     0.061 A 
ATOM     27  H4  UNL     1      60.567  85.732  59.088  1.00  0.00     0.168 HD
HETATM   28  C25 UNL     1      59.351  84.655  61.501  1.00  0.00     0.032 A 
HETATM   29  C29 UNL     1      61.377  85.699  62.157  1.00  0.00     0.063 A 
HETATM   30  C26 UNL     1      59.092  84.299  62.800  1.00  0.00     0.002 A 
HETATM   31  C27 UNL     1      59.962  84.631  63.815  1.00  0.00     0.002 A 
HETATM   32  C28 UNL     1      61.090  85.327  63.477  1.00  0.00     0.032 A 
BRANCH  24  33
HETATM   33  S1  UNL     1      63.269  87.285  59.088  1.00  0.00    -0.089 SA
BRANCH  33  34
HETATM   34  C17 UNL     1      62.578  87.150  57.397  1.00  0.00     0.121 C 
BRANCH  34  35
HETATM   35  C18 UNL     1      63.177  85.992  56.692  1.00  0.00    -0.049 A 
HETATM   36  C19 UNL     1      62.587  85.330  55.639  1.00  0.00     0.008 A 
HETATM   37  C20 UNL     1      63.198  84.248  55.029  1.00  0.00     0.001 A 
HETATM   38  C21 UNL     1      64.442  83.799  55.474  1.00  0.00     0.000 A 
HETATM   39  C22 UNL     1      65.035  84.460  56.528  1.00  0.00     0.001 A 
HETATM   40  C23 UNL     1      64.410  85.538  57.124  1.00  0.00     0.008 A 
ENDBRANCH  34  35
ENDBRANCH  33  34
ENDBRANCH  24  33
ENDBRANCH  22  23
ENDBRANCH  21  22
ENDBRANCH   1  21
TORSDOF 14
ENDMDL
MODEL 4
REMARK VINA RESULT: -9.818255210      2.479      4.560
REMARK  14 active torsions:
REMARK  status: ('A' for Active; 'I' for Inactive)
REMARK    1  A    between atoms: C2_2  and  O1_3 
REMARK    2  A    between atoms: O1_3  and  C3_4 
REMARK    3  A    between atoms: C3_4  and  C4_6 
REMARK    4  A    between atoms: C4_6  and  C5_7 
REMARK    5  A    between atoms: C9_13  and  N2_14 
REMARK       I    between atoms: N2_14  and  C10_16 
REMARK    6  A    between atoms: C10_16  and  C11_18 
REMARK    7  A    between atoms: C11_18  and  C12_19 
REMARK    8  A    between atoms: C12_19  and  C13_20 
REMARK    9  A    between atoms: C13_20  and  C14_21 
REMARK   10  A    between atoms: C14_21  and  C15_22 
REMARK   11  A    between atoms: C15_22  and  N3_23 
REMARK   12  A    between atoms: C16_24  and  S1_25 
REMARK   13  A    between atoms: S1_25  and  C17_26 
REMARK   14  A    between atoms: C17_26  and  C18_27 
ROOT
HETATM    1  C13 UNL     1      63.873  86.804  62.286  1.00  0.00    -0.029 C 
ENDROOT
BRANCH   1   2
HETATM    2  C12 UNL     1      63.463  87.346  61.002  1.00  0.00    -0.022 C 
BRANCH   2   3
HETATM    3  C11 UNL     1      63.290  86.515  59.794  1.00  0.00     0.130 C 
BRANCH   3   4
HETATM    4  C10 UNL     1      61.917  86.091  59.475  1.00  0.00     0.226 C 
HETATM    5  N2  UNL     1      61.608  85.426  58.299  1.00  0.00    -0.312 N 
ATOM      6  H2  UNL     1      60.615  85.229  58.174  1.00  0.00     0.170 HD
HETATM    7  O3  UNL     1      61.013  86.354  60.308  1.00  0.00    -0.273 OA
BRANCH   5   8
HETATM    8  C9  UNL     1      62.420  84.980  57.257  1.00  0.00     0.114 A 
HETATM    9  C5  UNL     1      62.068  85.147  55.943  1.00  0.00    -0.005 A 
HETATM   10  C6  UNL     1      62.910  84.652  54.949  1.00  0.00     0.013 A 
HETATM   11  C7  UNL     1      64.085  84.000  55.251  1.00  0.00     0.018 A 
HETATM   12  C8  UNL     1      64.407  83.849  56.575  1.00  0.00     0.089 A 
HETATM   13  N1  UNL     1      63.579  84.335  57.520  1.00  0.00    -0.352 N 
ATOM     14  H1  UNL     1      63.843  84.209  58.497  1.00  0.00     0.166 HD
BRANCH   9  15
HETATM   15  C4  UNL     1      60.832  85.869  55.609  1.00  0.00     0.153 C 
BRANCH  15  16
HETATM   16  C3  UNL     1      60.215  85.185  54.442  1.00  0.00     0.263 C 
HETATM   17  O2  UNL     1      59.522  84.144  54.675  1.00  0.00    -0.265 OA
BRANCH  16  18
HETATM   18  O1  UNL     1      60.332  85.586  53.131  1.00  0.00    -0.322 OA
BRANCH  18  19
HETATM   19  C2  UNL     1      59.938  84.649  52.107  1.00  0.00     0.174 C 
HETATM   20  C1  UNL     1      61.146  84.283  51.263  1.00  0.00     0.034 C 
ENDBRANCH  18  19
ENDBRANCH  16  18
ENDBRANCH  15  16
ENDBRANCH   9  15
ENDBRANCH   5   8
ENDBRANCH   3   4
ENDBRANCH   2   3
ENDBRANCH   1   2
BRANCH   1  21
HETATM   21  C14 UNL     1      64.049  85.359  62.533  1.00  0.00     0.047 C 
BRANCH  21  22
HETATM   22  C15 UNL     1      63.721  84.917  63.899  1.00  0.00     0.135 C 
BRANCH  22  23
HETATM   23  N3  UNL     1      62.849  83.736  63.916  1.00  0.00    -0.325 N 
HETATM   24  C16 UNL     1      63.180  82.464  64.205  1.00  0.00     0.147 A 
HETATM   25  N4  UNL     1      62.034  81.740  64.093  1.00  0.00    -0.335 N 
HETATM   26  C24 UNL     1      61.015  82.552  63.741  1.00  0.00     0.061 A 
ATOM     27  H4  UNL     1      61.957  80.735  64.251  1.00  0.00     0.168 HD
HETATM   28  C25 UNL     1      59.674  82.370  63.492  1.00  0.00     0.032 A 
HETATM   29  C29 UNL     1      61.544  83.821  63.630  1.00  0.00     0.063 A 
HETATM   30  C26 UNL     1      58.862  83.418  63.141  1.00  0.00     0.002 A 
HETATM   31  C27 UNL     1      59.363  84.696  63.024  1.00  0.00     0.002 A 
HETATM   32  C28 UNL     1      60.697  84.877  63.269  1.00  0.00     0.032 A 
BRANCH  24  33
HETATM   33  S1  UNL     1      64.827  81.889  64.632  1.00  0.00    -0.089 SA
BRANCH  33  34
HETATM   34  C17 UNL     1      65.595  81.084  63.177  1.00  0.00     0.121 C 
BRANCH  34  35
HETATM   35  C18 UNL     1      65.363  79.620  63.223  1.00  0.00    -0.049 A 
HETATM   36  C19 UNL     1      64.175  79.008  62.889  1.00  0.00     0.008 A 
HETATM   37  C20 UNL     1      64.022  77.635  62.960  1.00  0.00     0.001 A 
HETATM   38  C21 UNL     1      65.083  76.829  63.378  1.00  0.00     0.000 A 
HETATM   39  C22 UNL     1      66.273  77.439  63.713  1.00  0.00     0.001 A 
HETATM   40  C23 UNL     1      66.406  78.811  63.634  1.00  0.00     0.008 A 
ENDBRANCH  34  35
ENDBRANCH  33  34
ENDBRANCH  24  33
ENDBRANCH  22  23
ENDBRANCH  21  22
ENDBRANCH   1  21
TORSDOF 14
ENDMDL
MODEL 5
REMARK VINA RESULT: -9.798597833      1.465      2.767
REMARK  14 active torsions:
REMARK  status: ('A' for Active; 'I' for Inactive)
REMARK    1  A    between atoms: C2_2  and  O1_3 
REMARK    2  A    between atoms: O1_3  and  C3_4 
REMARK    3  A    between atoms: C3_4  and  C4_6 
REMARK    4  A    between atoms: C4_6  and  C5_7 
REMARK    5  A    between atoms: C9_13  and  N2_14 
REMARK       I    between atoms: N2_14  and  C10_16 
REMARK    6  A    between atoms: C10_16  and  C11_18 
REMARK    7  A    between atoms: C11_18  and  C12_19 
REMARK    8  A    between atoms: C12_19  and  C13_20 
REMARK    9  A    between atoms: C13_20  and  C14_21 
REMARK   10  A    between atoms: C14_21  and  C15_22 
REMARK   11  A    between atoms: C15_22  and  N3_23 
REMARK   12  A    between atoms: C16_24  and  S1_25 
REMARK   13  A    between atoms: S1_25  and  C17_26 
REMARK   14  A    between atoms: C17_26  and  C18_27 
ROOT
HETATM    1  C13 UNL     1      61.060  86.135  61.404  1.00  0.00    -0.029 C 
ENDROOT
BRANCH   1   2
HETATM    2  C12 UNL     1      61.874  85.819  60.242  1.00  0.00    -0.022 C 
BRANCH   2   3
HETATM    3  C11 UNL     1      61.379  85.929  58.856  1.00  0.00     0.130 C 
BRANCH   3   4
HETATM    4  C10 UNL     1      62.214  86.693  57.915  1.00  0.00     0.226 C 
HETATM    5  N2  UNL     1      61.914  86.773  56.565  1.00  0.00    -0.312 N 
ATOM      6  H2  UNL     1      62.595  87.293  56.011  1.00  0.00     0.170 HD
HETATM    7  O3  UNL     1      63.227  87.279  58.372  1.00  0.00    -0.273 OA
BRANCH   5   8
HETATM    8  C9  UNL     1      60.840  86.267  55.831  1.00  0.00     0.114 A 
HETATM    9  C5  UNL     1      61.021  85.372  54.809  1.00  0.00    -0.005 A 
HETATM   10  C6  UNL     1      59.909  84.928  54.097  1.00  0.00     0.013 A 
HETATM   11  C7  UNL     1      58.636  85.362  54.391  1.00  0.00     0.018 A 
HETATM   12  C8  UNL     1      58.491  86.257  55.419  1.00  0.00     0.089 A 
HETATM   13  N1  UNL     1      59.579  86.674  56.095  1.00  0.00    -0.352 N 
ATOM     14  H1  UNL     1      59.442  87.341  56.855  1.00  0.00     0.166 HD
BRANCH   9  15
HETATM   15  C4  UNL     1      62.372  84.879  54.506  1.00  0.00     0.153 C 
BRANCH  15  16
HETATM   16  C3  UNL     1      62.745  83.912  55.573  1.00  0.00     0.263 C 
HETATM   17  O2  UNL     1      61.811  83.480  56.321  1.00  0.00    -0.265 OA
BRANCH  16  18
HETATM   18  O1  UNL     1      64.017  83.447  55.817  1.00  0.00    -0.322 OA
BRANCH  18  19
HETATM   19  C2  UNL     1      65.115  84.358  55.608  1.00  0.00     0.174 C 
HETATM   20  C1  UNL     1      65.416  85.094  56.901  1.00  0.00     0.034 C 
ENDBRANCH  18  19
ENDBRANCH  16  18
ENDBRANCH  15  16
ENDBRANCH   9  15
ENDBRANCH   5   8
ENDBRANCH   3   4
ENDBRANCH   2   3
ENDBRANCH   1   2
BRANCH   1  21
HETATM   21  C14 UNL     1      60.169  85.153  62.055  1.00  0.00     0.047 C 
BRANCH  21  22
HETATM   22  C15 UNL     1      60.519  84.825  63.447  1.00  0.00     0.135 C 
BRANCH  22  23
HETATM   23  N3  UNL     1      61.350  83.619  63.552  1.00  0.00    -0.325 N 
HETATM   24  C16 UNL     1      60.947  82.337  63.620  1.00  0.00     0.147 A 
HETATM   25  N4  UNL     1      62.080  81.587  63.698  1.00  0.00    -0.335 N 
HETATM   26  C24 UNL     1      63.162  82.395  63.679  1.00  0.00     0.061 A 
ATOM     27  H4  UNL     1      62.107  80.570  63.762  1.00  0.00     0.168 HD
HETATM   28  C25 UNL     1      64.522  82.192  63.731  1.00  0.00     0.032 A 
HETATM   29  C29 UNL     1      62.686  83.686  63.586  1.00  0.00     0.063 A 
HETATM   30  C26 UNL     1      65.405  83.241  63.692  1.00  0.00     0.002 A 
HETATM   31  C27 UNL     1      64.958  84.541  63.599  1.00  0.00     0.002 A 
HETATM   32  C28 UNL     1      63.606  84.743  63.548  1.00  0.00     0.032 A 
BRANCH  24  33
HETATM   33  S1  UNL     1      59.239  81.781  63.620  1.00  0.00    -0.089 SA
BRANCH  33  34
HETATM   34  C17 UNL     1      59.172  79.995  63.221  1.00  0.00     0.121 C 
BRANCH  34  35
HETATM   35  C18 UNL     1      57.768  79.520  63.242  1.00  0.00    -0.049 A 
HETATM   36  C19 UNL     1      57.247  78.589  62.371  1.00  0.00     0.008 A 
HETATM   37  C20 UNL     1      55.923  78.194  62.440  1.00  0.00     0.001 A 
HETATM   38  C21 UNL     1      55.075  78.738  63.407  1.00  0.00     0.000 A 
HETATM   39  C22 UNL     1      55.594  79.670  64.280  1.00  0.00     0.001 A 
HETATM   40  C23 UNL     1      56.919  80.051  64.196  1.00  0.00     0.008 A 
ENDBRANCH  34  35
ENDBRANCH  33  34
ENDBRANCH  24  33
ENDBRANCH  22  23
ENDBRANCH  21  22
ENDBRANCH   1  21
TORSDOF 14
ENDMDL
