MODEL 1
REMARK VINA RESULT: -10.007418495      0.000      0.000
REMARK  14 active torsions:
REMARK  status: ('A' for Active; 'I' for Inactive)
REMARK    1  A    between atoms: C2_2  and  N1_3 
REMARK    2  A    between atoms: C6_9  and  N3_10 
REMARK    3  A    between atoms: N3_10  and  C7_12 
REMARK    4  A    between atoms: C7_12  and  C8_13 
REMARK    5  A    between atoms: C8_13  and  C9_14 
REMARK    6  A    between atoms: C9_14  and  C10_15 
REMARK    7  A    between atoms: C10_15  and  C11_16 
REMARK    8  A    between atoms: C11_16  and  C12_17 
REMARK    9  A    between atoms: C12_17  and  N4_18 
REMARK   10  A    between atoms: N4_18  and  C13_19 
REMARK   11  A    between atoms: N4_18  and  C22_32 
REMARK   12  A    between atoms: C13_19  and  C14_20 
REMARK   13  A    between atoms: N5_22  and  C16_23 
REMARK   14  A    between atoms: C22_32  and  C23_33 
ROOT
HETATM    1  C12 UNL     1      60.878  84.030  62.095  1.00  0.00     0.064 C 
ENDROOT
BRANCH   1   2
HETATM    2  C11 UNL     1      60.056  85.157  61.497  1.00  0.00     0.044 C 
BRANCH   2   3
HETATM    3  C10 UNL     1      60.758  85.775  60.295  1.00  0.00     0.005 C 
BRANCH   3   4
HETATM    4  C9  UNL     1      62.096  85.186  60.116  1.00  0.00     0.005 C 
BRANCH   4   5
HETATM    5  C8  UNL     1      63.211  86.142  59.989  1.00  0.00     0.044 C 
BRANCH   5   6
HETATM    6  C7  UNL     1      63.228  87.081  58.861  1.00  0.00     0.061 C 
BRANCH   6   7
HETATM    7  N3  UNL     1      63.659  86.711  57.566  1.00  0.00    -0.369 N 
ATOM      8  H3  UNL     1      64.641  86.749  57.295  1.00  0.00     0.165 HD
BRANCH   7   9
HETATM    9  C6  UNL     1      62.633  86.278  56.650  1.00  0.00     0.034 A 
HETATM   10  C5  UNL     1      61.372  86.789  56.797  1.00  0.00     0.061 A 
HETATM   11  C4  UNL     1      60.368  86.388  55.948  1.00  0.00     0.062 A 
HETATM   12  N2  UNL     1      59.000  86.741  55.866  1.00  0.00    -0.350 N 
HETATM   13  C29 UNL     1      60.635  85.464  54.940  1.00  0.00     0.062 A 
HETATM   14  C3  UNL     1      58.441  86.090  54.881  1.00  0.00     0.183 A 
ATOM     15  H2  UNL     1      58.524  87.403  56.481  1.00  0.00     0.166 HD
HETATM   16  N1  UNL     1      59.403  85.275  54.260  1.00  0.00    -0.342 N 
HETATM   17  C28 UNL     1      61.899  84.950  54.790  1.00  0.00     0.034 A 
HETATM   18  C27 UNL     1      62.905  85.349  55.638  1.00  0.00     0.032 A 
BRANCH  16  19
HETATM   19  C2  UNL     1      59.217  84.385  53.131  1.00  0.00     0.125 C 
HETATM   20  C1  UNL     1      59.666  85.053  51.835  1.00  0.00     0.027 C 
ENDBRANCH  16  19
ENDBRANCH   7   9
ENDBRANCH   6   7
ENDBRANCH   5   6
ENDBRANCH   4   5
ENDBRANCH   3   4
ENDBRANCH   2   3
ENDBRANCH   1   2
BRANCH   1  21
HETATM   21  N4  UNL     1      61.086  84.300  63.458  1.00  0.00    -0.363 N 
BRANCH  21  22
HETATM   22  C13 UNL     1      60.032  84.038  64.370  1.00  0.00     0.187 C 
BRANCH  22  23
HETATM   23  C14 UNL     1      59.564  82.627  64.372  1.00  0.00     0.059 A 
HETATM   24  C15 UNL     1      58.386  82.099  63.894  1.00  0.00     0.142 A 
HETATM   25  N5  UNL     1      58.372  80.748  64.098  1.00  0.00    -0.249 N 
HETATM   26  N6  UNL     1      59.526  80.490  64.687  1.00  0.00    -0.015 NA
HETATM   27  N7  UNL     1      60.247  81.584  64.859  1.00  0.00    -0.285 N 
ATOM     28  H7  UNL     1      61.169  81.626  65.292  1.00  0.00     0.184 HD
BRANCH  25  29
HETATM   29  C16 UNL     1      57.328  79.847  63.740  1.00  0.00     0.054 A 
HETATM   30  C17 UNL     1      57.571  78.885  62.786  1.00  0.00     0.031 A 
HETATM   31  C18 UNL     1      56.628  77.977  62.377  1.00  0.00     0.002 A 
HETATM   32  C19 UNL     1      55.376  78.025  62.943  1.00  0.00     0.000 A 
HETATM   33  C20 UNL     1      55.109  78.982  63.903  1.00  0.00     0.002 A 
HETATM   34  C21 UNL     1      56.075  79.892  64.305  1.00  0.00     0.031 A 
ENDBRANCH  25  29
ENDBRANCH  22  23
ENDBRANCH  21  22
BRANCH  21  35
HETATM   35  C22 UNL     1      62.075  85.210  63.814  1.00  0.00     0.109 C 
BRANCH  35  36
HETATM   36  C23 UNL     1      63.399  84.531  64.057  1.00  0.00     0.020 A 
HETATM   37  C24 UNL     1      64.612  84.919  63.555  1.00  0.00     0.021 A 
HETATM   38  C25 UNL     1      65.685  84.185  63.893  1.00  0.00     0.008 A 
HETATM   39  C26 UNL     1      65.472  83.109  64.715  1.00  0.00     0.050 A 
HETATM   40  S1  UNL     1      63.792  83.157  64.986  1.00  0.00    -0.101 SA
ENDBRANCH  35  36
ENDBRANCH  21  35
ENDBRANCH   1  21
TORSDOF 14
ENDMDL
MODEL 2
REMARK VINA RESULT: -9.867406573      0.716      1.105
REMARK  14 active torsions:
REMARK  status: ('A' for Active; 'I' for Inactive)
REMARK    1  A    between atoms: C2_2  and  N1_3 
REMARK    2  A    between atoms: C6_9  and  N3_10 
REMARK    3  A    between atoms: N3_10  and  C7_12 
REMARK    4  A    between atoms: C7_12  and  C8_13 
REMARK    5  A    between atoms: C8_13  and  C9_14 
REMARK    6  A    between atoms: C9_14  and  C10_15 
REMARK    7  A    between atoms: C10_15  and  C11_16 
REMARK    8  A    between atoms: C11_16  and  C12_17 
REMARK    9  A    between atoms: C12_17  and  N4_18 
REMARK   10  A    between atoms: N4_18  and  C13_19 
REMARK   11  A    between atoms: N4_18  and  C22_32 
REMARK   12  A    between atoms: C13_19  and  C14_20 
REMARK   13  A    between atoms: N5_22  and  C16_23 
REMARK   14  A    between atoms: C22_32  and  C23_33 
ROOT
HETATM    1  C12 UNL     1      60.085  85.115  62.898  1.00  0.00     0.064 C 
ENDROOT
BRANCH   1   2
HETATM    2  C11 UNL     1      60.867  86.069  62.014  1.00  0.00     0.044 C 
BRANCH   2   3
HETATM    3  C10 UNL     1      60.700  85.719  60.541  1.00  0.00     0.005 C 
BRANCH   3   4
HETATM    4  C9  UNL     1      61.828  84.897  60.072  1.00  0.00     0.005 C 
BRANCH   4   5
HETATM    5  C8  UNL     1      63.112  85.601  59.896  1.00  0.00     0.044 C 
BRANCH   5   6
HETATM    6  C7  UNL     1      63.166  86.791  59.039  1.00  0.00     0.061 C 
BRANCH   6   7
HETATM    7  N3  UNL     1      63.559  86.737  57.681  1.00  0.00    -0.369 N 
ATOM      8  H3  UNL     1      64.501  86.992  57.383  1.00  0.00     0.165 HD
BRANCH   7   9
HETATM    9  C6  UNL     1      62.555  86.303  56.741  1.00  0.00     0.034 A 
HETATM   10  C5  UNL     1      61.286  86.797  56.871  1.00  0.00     0.061 A 
HETATM   11  C4  UNL     1      60.303  86.394  55.999  1.00  0.00     0.062 A 
HETATM   12  N2  UNL     1      58.932  86.733  55.896  1.00  0.00    -0.350 N 
HETATM   13  C29 UNL     1      60.599  85.485  54.986  1.00  0.00     0.062 A 
HETATM   14  C3  UNL     1      58.399  86.086  54.894  1.00  0.00     0.183 A 
ATOM     15  H2  UNL     1      58.437  87.381  56.509  1.00  0.00     0.166 HD
HETATM   16  N1  UNL     1      59.381  85.290  54.281  1.00  0.00    -0.342 N 
HETATM   17  C28 UNL     1      61.871  84.987  54.853  1.00  0.00     0.034 A 
HETATM   18  C27 UNL     1      62.857  85.389  55.725  1.00  0.00     0.032 A 
BRANCH  16  19
HETATM   19  C2  UNL     1      59.227  84.411  53.139  1.00  0.00     0.125 C 
HETATM   20  C1  UNL     1      59.725  85.086  51.865  1.00  0.00     0.027 C 
ENDBRANCH  16  19
ENDBRANCH   7   9
ENDBRANCH   6   7
ENDBRANCH   5   6
ENDBRANCH   4   5
ENDBRANCH   3   4
ENDBRANCH   2   3
ENDBRANCH   1   2
BRANCH   1  21
HETATM   21  N4  UNL     1      60.971  84.517  63.809  1.00  0.00    -0.363 N 
BRANCH  21  22
HETATM   22  C13 UNL     1      60.435  83.808  64.914  1.00  0.00     0.187 C 
BRANCH  22  23
HETATM   23  C14 UNL     1      59.968  82.435  64.589  1.00  0.00     0.059 A 
HETATM   24  C15 UNL     1      58.712  82.004  64.225  1.00  0.00     0.142 A 
HETATM   25  N5  UNL     1      58.732  80.655  64.013  1.00  0.00    -0.249 N 
HETATM   26  N6  UNL     1      59.984  80.301  64.251  1.00  0.00    -0.015 NA
HETATM   27  N7  UNL     1      60.731  81.335  64.592  1.00  0.00    -0.285 N 
ATOM     28  H7  UNL     1      61.724  81.301  64.821  1.00  0.00     0.184 HD
BRANCH  25  29
HETATM   29  C16 UNL     1      57.631  79.841  63.623  1.00  0.00     0.054 A 
HETATM   30  C17 UNL     1      56.447  79.937  64.319  1.00  0.00     0.031 A 
HETATM   31  C18 UNL     1      55.335  79.193  64.018  1.00  0.00     0.002 A 
HETATM   32  C19 UNL     1      55.399  78.304  62.971  1.00  0.00     0.000 A 
HETATM   33  C20 UNL     1      56.577  78.190  62.257  1.00  0.00     0.002 A 
HETATM   34  C21 UNL     1      57.691  78.952  62.575  1.00  0.00     0.031 A 
ENDBRANCH  25  29
ENDBRANCH  22  23
ENDBRANCH  21  22
BRANCH  21  35
HETATM   35  C22 UNL     1      62.273  85.000  63.886  1.00  0.00     0.109 C 
BRANCH  35  36
HETATM   36  C23 UNL     1      63.288  83.885  63.842  1.00  0.00     0.020 A 
HETATM   37  C24 UNL     1      63.433  82.962  62.842  1.00  0.00     0.021 A 
HETATM   38  C25 UNL     1      64.405  82.046  62.983  1.00  0.00     0.008 A 
HETATM   39  C26 UNL     1      65.169  82.115  64.118  1.00  0.00     0.050 A 
HETATM   40  S1  UNL     1      64.509  83.448  64.947  1.00  0.00    -0.101 SA
ENDBRANCH  35  36
ENDBRANCH  21  35
ENDBRANCH   1  21
TORSDOF 14
ENDMDL
MODEL 3
REMARK VINA RESULT: -9.817096235      1.104      1.733
REMARK  14 active torsions:
REMARK  status: ('A' for Active; 'I' for Inactive)
REMARK    1  A    between atoms: C2_2  and  N1_3 
REMARK    2  A    between atoms: C6_9  and  N3_10 
REMARK    3  A    between atoms: N3_10  and  C7_12 
REMARK    4  A    between atoms: C7_12  and  C8_13 
REMARK    5  A    between atoms: C8_13  and  C9_14 
REMARK    6  A    between atoms: C9_14  and  C10_15 
REMARK    7  A    between atoms: C10_15  and  C11_16 
REMARK    8  A    between atoms: C11_16  and  C12_17 
REMARK    9  A    between atoms: C12_17  and  N4_18 
REMARK   10  A    between atoms: N4_18  and  C13_19 
REMARK   11  A    between atoms: N4_18  and  C22_32 
REMARK   12  A    between atoms: C13_19  and  C14_20 
REMARK   13  A    between atoms: N5_22  and  C16_23 
REMARK   14  A    between atoms: C22_32  and  C23_33 
ROOT
HETATM    1  C12 UNL     1      60.621  85.618  62.174  1.00  0.00     0.064 C 
ENDROOT
BRANCH   1   2
HETATM    2  C11 UNL     1      60.797  85.416  60.681  1.00  0.00     0.044 C 
BRANCH   2   3
HETATM    3  C10 UNL     1      61.736  86.460  60.090  1.00  0.00     0.005 C 
BRANCH   3   4
HETATM    4  C9  UNL     1      62.971  85.827  59.597  1.00  0.00     0.005 C 
BRANCH   4   5
HETATM    5  C8  UNL     1      62.810  84.508  58.957  1.00  0.00     0.044 C 
BRANCH   5   6
HETATM    6  C7  UNL     1      63.216  84.335  57.557  1.00  0.00     0.061 C 
BRANCH   6   7
HETATM    7  N3  UNL     1      63.167  85.386  56.612  1.00  0.00    -0.369 N 
ATOM      8  H3  UNL     1      63.968  85.993  56.441  1.00  0.00     0.165 HD
BRANCH   7   9
HETATM    9  C6  UNL     1      61.922  85.550  55.902  1.00  0.00     0.034 A 
HETATM   10  C5  UNL     1      61.777  84.927  54.693  1.00  0.00     0.061 A 
HETATM   11  C4  UNL     1      60.608  85.074  53.985  1.00  0.00     0.062 A 
HETATM   12  N2  UNL     1      60.187  84.557  52.735  1.00  0.00    -0.350 N 
HETATM   13  C29 UNL     1      59.574  85.854  54.498  1.00  0.00     0.062 A 
HETATM   14  C3  UNL     1      58.977  84.979  52.477  1.00  0.00     0.183 A 
ATOM     15  H2  UNL     1      60.741  83.950  52.131  1.00  0.00     0.166 HD
HETATM   16  N1  UNL     1      58.534  85.792  53.533  1.00  0.00    -0.342 N 
HETATM   17  C28 UNL     1      59.717  86.480  55.711  1.00  0.00     0.034 A 
HETATM   18  C27 UNL     1      60.886  86.336  56.422  1.00  0.00     0.032 A 
BRANCH  16  19
HETATM   19  C2  UNL     1      57.258  86.468  53.659  1.00  0.00     0.125 C 
HETATM   20  C1  UNL     1      56.704  86.838  52.287  1.00  0.00     0.027 C 
ENDBRANCH  16  19
ENDBRANCH   7   9
ENDBRANCH   6   7
ENDBRANCH   5   6
ENDBRANCH   4   5
ENDBRANCH   3   4
ENDBRANCH   2   3
ENDBRANCH   1   2
BRANCH   1  21
HETATM   21  N4  UNL     1      60.762  84.376  62.815  1.00  0.00    -0.363 N 
BRANCH  21  22
HETATM   22  C13 UNL     1      60.264  84.231  64.135  1.00  0.00     0.187 C 
BRANCH  22  23
HETATM   23  C14 UNL     1      59.606  82.925  64.398  1.00  0.00     0.059 A 
HETATM   24  C15 UNL     1      58.623  82.283  63.679  1.00  0.00     0.142 A 
HETATM   25  N5  UNL     1      58.313  81.097  64.281  1.00  0.00    -0.249 N 
HETATM   26  N6  UNL     1      59.104  81.045  65.339  1.00  0.00    -0.015 NA
HETATM   27  N7  UNL     1      59.876  82.113  65.429  1.00  0.00    -0.285 N 
ATOM     28  H7  UNL     1      60.563  82.291  66.161  1.00  0.00     0.184 HD
BRANCH  25  29
HETATM   29  C16 UNL     1      57.346  80.148  63.839  1.00  0.00     0.054 A 
HETATM   30  C17 UNL     1      57.684  79.263  62.840  1.00  0.00     0.031 A 
HETATM   31  C18 UNL     1      56.821  78.317  62.350  1.00  0.00     0.002 A 
HETATM   32  C19 UNL     1      55.553  78.245  62.875  1.00  0.00     0.000 A 
HETATM   33  C20 UNL     1      55.190  79.124  63.879  1.00  0.00     0.002 A 
HETATM   34  C21 UNL     1      56.077  80.073  64.363  1.00  0.00     0.031 A 
ENDBRANCH  25  29
ENDBRANCH  22  23
ENDBRANCH  21  22
BRANCH  21  35
HETATM   35  C22 UNL     1      61.749  83.504  62.368  1.00  0.00     0.109 C 
BRANCH  35  36
HETATM   36  C23 UNL     1      63.037  83.676  63.133  1.00  0.00     0.020 A 
HETATM   37  C24 UNL     1      64.022  84.588  62.865  1.00  0.00     0.021 A 
HETATM   38  C25 UNL     1      65.097  84.591  63.670  1.00  0.00     0.008 A 
HETATM   39  C26 UNL     1      65.115  83.679  64.693  1.00  0.00     0.050 A 
HETATM   40  S1  UNL     1      63.640  82.853  64.499  1.00  0.00    -0.101 SA
ENDBRANCH  35  36
ENDBRANCH  21  35
ENDBRANCH   1  21
TORSDOF 14
ENDMDL
MODEL 4
REMARK VINA RESULT: -9.722386494      0.872      1.634
REMARK  14 active torsions:
REMARK  status: ('A' for Active; 'I' for Inactive)
REMARK    1  A    between atoms: C2_2  and  N1_3 
REMARK    2  A    between atoms: C6_9  and  N3_10 
REMARK    3  A    between atoms: N3_10  and  C7_12 
REMARK    4  A    between atoms: C7_12  and  C8_13 
REMARK    5  A    between atoms: C8_13  and  C9_14 
REMARK    6  A    between atoms: C9_14  and  C10_15 
REMARK    7  A    between atoms: C10_15  and  C11_16 
REMARK    8  A    between atoms: C11_16  and  C12_17 
REMARK    9  A    between atoms: C12_17  and  N4_18 
REMARK   10  A    between atoms: N4_18  and  C13_19 
REMARK   11  A    between atoms: N4_18  and  C22_32 
REMARK   12  A    between atoms: C13_19  and  C14_20 
REMARK   13  A    between atoms: N5_22  and  C16_23 
REMARK   14  A    between atoms: C22_32  and  C23_33 
ROOT
HETATM    1  C12 UNL     1      61.301  84.324  61.909  1.00  0.00     0.064 C 
ENDROOT
BRANCH   1   2
HETATM    2  C11 UNL     1      60.348  85.315  61.267  1.00  0.00     0.044 C 
BRANCH   2   3
HETATM    3  C10 UNL     1      61.021  86.066  60.125  1.00  0.00     0.005 C 
BRANCH   3   4
HETATM    4  C9  UNL     1      62.440  85.687  60.020  1.00  0.00     0.005 C 
BRANCH   4   5
HETATM    5  C8  UNL     1      63.322  86.664  59.354  1.00  0.00     0.044 C 
BRANCH   5   6
HETATM    6  C7  UNL     1      63.288  86.783  57.892  1.00  0.00     0.061 C 
BRANCH   6   7
HETATM    7  N3  UNL     1      63.042  85.681  57.041  1.00  0.00    -0.369 N 
ATOM      8  H3  UNL     1      63.662  84.872  57.016  1.00  0.00     0.165 HD
BRANCH   7   9
HETATM    9  C6  UNL     1      61.865  85.763  56.211  1.00  0.00     0.034 A 
HETATM   10  C5  UNL     1      61.864  85.093  55.018  1.00  0.00     0.061 A 
HETATM   11  C4  UNL     1      60.763  85.161  54.198  1.00  0.00     0.062 A 
HETATM   12  N2  UNL     1      60.486  84.583  52.935  1.00  0.00    -0.350 N 
HETATM   13  C29 UNL     1      59.651  85.908  54.581  1.00  0.00     0.062 A 
HETATM   14  C3  UNL     1      59.290  84.938  52.547  1.00  0.00     0.183 A 
ATOM     15  H2  UNL     1      61.122  83.982  52.410  1.00  0.00     0.166 HD
HETATM   16  N1  UNL     1      58.712  85.765  53.526  1.00  0.00    -0.342 N 
HETATM   17  C28 UNL     1      59.650  86.581  55.778  1.00  0.00     0.034 A 
HETATM   18  C27 UNL     1      60.750  86.516  56.600  1.00  0.00     0.032 A 
BRANCH  16  19
HETATM   19  C2  UNL     1      57.402  86.384  53.504  1.00  0.00     0.125 C 
HETATM   20  C1  UNL     1      56.931  86.605  52.070  1.00  0.00     0.027 C 
ENDBRANCH  16  19
ENDBRANCH   7   9
ENDBRANCH   6   7
ENDBRANCH   5   6
ENDBRANCH   4   5
ENDBRANCH   3   4
ENDBRANCH   2   3
ENDBRANCH   1   2
BRANCH   1  21
HETATM   21  N4  UNL     1      61.231  84.474  63.304  1.00  0.00    -0.363 N 
BRANCH  21  22
HETATM   22  C13 UNL     1      59.994  84.233  63.953  1.00  0.00     0.187 C 
BRANCH  22  23
HETATM   23  C14 UNL     1      59.598  82.801  63.999  1.00  0.00     0.059 A 
HETATM   24  C15 UNL     1      58.419  82.209  63.606  1.00  0.00     0.142 A 
HETATM   25  N5  UNL     1      58.486  80.862  63.822  1.00  0.00    -0.249 N 
HETATM   26  N6  UNL     1      59.690  80.669  64.335  1.00  0.00    -0.015 NA
HETATM   27  N7  UNL     1      60.364  81.799  64.449  1.00  0.00    -0.285 N 
ATOM     28  H7  UNL     1      61.310  81.893  64.818  1.00  0.00     0.184 HD
BRANCH  25  29
HETATM   29  C16 UNL     1      57.468  79.906  63.545  1.00  0.00     0.054 A 
HETATM   30  C17 UNL     1      56.295  79.948  64.264  1.00  0.00     0.031 A 
HETATM   31  C18 UNL     1      55.261  79.069  64.069  1.00  0.00     0.002 A 
HETATM   32  C19 UNL     1      55.396  78.094  63.109  1.00  0.00     0.000 A 
HETATM   33  C20 UNL     1      56.564  78.032  62.374  1.00  0.00     0.002 A 
HETATM   34  C21 UNL     1      57.599  78.930  62.585  1.00  0.00     0.031 A 
ENDBRANCH  25  29
ENDBRANCH  22  23
ENDBRANCH  21  22
BRANCH  21  35
HETATM   35  C22 UNL     1      62.180  85.271  63.937  1.00  0.00     0.109 C 
BRANCH  35  36
HETATM   36  C23 UNL     1      63.471  84.527  64.170  1.00  0.00     0.020 A 
HETATM   37  C24 UNL     1      64.703  84.870  63.681  1.00  0.00     0.021 A 
HETATM   38  C25 UNL     1      65.739  84.081  64.007  1.00  0.00     0.008 A 
HETATM   39  C26 UNL     1      65.473  82.997  64.802  1.00  0.00     0.050 A 
HETATM   40  S1  UNL     1      63.796  83.115  65.067  1.00  0.00    -0.101 SA
ENDBRANCH  35  36
ENDBRANCH  21  35
ENDBRANCH   1  21
TORSDOF 14
ENDMDL
MODEL 5
REMARK VINA RESULT: -9.654783104      0.998      1.135
REMARK  14 active torsions:
REMARK  status: ('A' for Active; 'I' for Inactive)
REMARK    1  A    between atoms: C2_2  and  N1_3 
REMARK    2  A    between atoms: C6_9  and  N3_10 
REMARK    3  A    between atoms: N3_10  and  C7_12 
REMARK    4  A    between atoms: C7_12  and  C8_13 
REMARK    5  A    between atoms: C8_13  and  C9_14 
REMARK    6  A    between atoms: C9_14  and  C10_15 
REMARK    7  A    between atoms: C10_15  and  C11_16 
REMARK    8  A    between atoms: C11_16  and  C12_17 
REMARK    9  A    between atoms: C12_17  and  N4_18 
REMARK   10  A    between atoms: N4_18  and  C13_19 
REMARK   11  A    between atoms: N4_18  and  C22_32 
REMARK   12  A    between atoms: C13_19  and  C14_20 
REMARK   13  A    between atoms: N5_22  and  C16_23 
REMARK   14  A    between atoms: C22_32  and  C23_33 
ROOT
HETATM    1  C12 UNL     1      61.949  84.984  62.537  1.00  0.00     0.064 C 
ENDROOT
BRANCH   1   2
HETATM    2  C11 UNL     1      61.343  84.221  61.374  1.00  0.00     0.044 C 
BRANCH   2   3
HETATM    3  C10 UNL     1      61.557  84.960  60.059  1.00  0.00     0.005 C 
BRANCH   3   4
HETATM    4  C9  UNL     1      61.775  86.395  60.300  1.00  0.00     0.005 C 
BRANCH   4   5
HETATM    5  C8  UNL     1      63.061  86.942  59.826  1.00  0.00     0.044 C 
BRANCH   5   6
HETATM    6  C7  UNL     1      63.236  87.230  58.398  1.00  0.00     0.061 C 
BRANCH   6   7
HETATM    7  N3  UNL     1      63.550  86.230  57.449  1.00  0.00    -0.369 N 
ATOM      8  H3  UNL     1      64.451  85.752  57.450  1.00  0.00     0.165 HD
BRANCH   7   9
HETATM    9  C6  UNL     1      62.527  85.921  56.481  1.00  0.00     0.034 A 
HETATM   10  C5  UNL     1      61.296  86.499  56.631  1.00  0.00     0.061 A 
HETATM   11  C4  UNL     1      60.294  86.217  55.733  1.00  0.00     0.062 A 
HETATM   12  N2  UNL     1      58.953  86.660  55.641  1.00  0.00    -0.350 N 
HETATM   13  C29 UNL     1      60.533  85.345  54.672  1.00  0.00     0.062 A 
HETATM   14  C3  UNL     1      58.384  86.109  54.601  1.00  0.00     0.183 A 
ATOM     15  H2  UNL     1      58.500  87.309  56.285  1.00  0.00     0.166 HD
HETATM   16  N1  UNL     1      59.311  85.277  53.951  1.00  0.00    -0.342 N 
HETATM   17  C28 UNL     1      61.767  84.763  54.520  1.00  0.00     0.034 A 
HETATM   18  C27 UNL     1      62.771  85.044  55.418  1.00  0.00     0.032 A 
BRANCH  16  19
HETATM   19  C2  UNL     1      59.105  84.475  52.763  1.00  0.00     0.125 C 
HETATM   20  C1  UNL     1      59.898  85.036  51.586  1.00  0.00     0.027 C 
ENDBRANCH  16  19
ENDBRANCH   7   9
ENDBRANCH   6   7
ENDBRANCH   5   6
ENDBRANCH   4   5
ENDBRANCH   3   4
ENDBRANCH   2   3
ENDBRANCH   1   2
BRANCH   1  21
HETATM   21  N4  UNL     1      61.652  84.299  63.727  1.00  0.00    -0.363 N 
BRANCH  21  22
HETATM   22  C13 UNL     1      60.338  84.387  64.252  1.00  0.00     0.187 C 
BRANCH  22  23
HETATM   23  C14 UNL     1      59.687  83.071  64.488  1.00  0.00     0.059 A 
HETATM   24  C15 UNL     1      58.787  82.390  63.701  1.00  0.00     0.142 A 
HETATM   25  N5  UNL     1      58.451  81.211  64.302  1.00  0.00    -0.249 N 
HETATM   26  N6  UNL     1      59.144  81.203  65.428  1.00  0.00    -0.015 NA
HETATM   27  N7  UNL     1      59.881  82.291  65.559  1.00  0.00    -0.285 N 
ATOM     28  H7  UNL     1      60.495  82.502  66.345  1.00  0.00     0.184 HD
BRANCH  25  29
HETATM   29  C16 UNL     1      57.549  80.229  63.800  1.00  0.00     0.054 A 
HETATM   30  C17 UNL     1      57.941  79.438  62.743  1.00  0.00     0.031 A 
HETATM   31  C18 UNL     1      57.141  78.470  62.192  1.00  0.00     0.002 A 
HETATM   32  C19 UNL     1      55.885  78.274  62.715  1.00  0.00     0.000 A 
HETATM   33  C20 UNL     1      55.470  79.056  63.776  1.00  0.00     0.002 A 
HETATM   34  C21 UNL     1      56.293  80.029  64.322  1.00  0.00     0.031 A 
ENDBRANCH  25  29
ENDBRANCH  22  23
ENDBRANCH  21  22
BRANCH  21  35
HETATM   35  C22 UNL     1      62.698  83.963  64.581  1.00  0.00     0.109 C 
BRANCH  35  36
HETATM   36  C23 UNL     1      63.525  82.827  64.032  1.00  0.00     0.020 A 
HETATM   37  C24 UNL     1      64.876  82.842  63.815  1.00  0.00     0.021 A 
HETATM   38  C25 UNL     1      65.435  81.724  63.325  1.00  0.00     0.008 A 
HETATM   39  C26 UNL     1      64.603  80.662  63.084  1.00  0.00     0.050 A 
HETATM   40  S1  UNL     1      63.077  81.256  63.547  1.00  0.00    -0.101 SA
ENDBRANCH  35  36
ENDBRANCH  21  35
ENDBRANCH   1  21
TORSDOF 14
ENDMDL
