MODEL 1
REMARK VINA RESULT: -9.967380912      0.000      0.000
REMARK  15 active torsions:
REMARK  status: ('A' for Active; 'I' for Inactive)
REMARK    1  A    between atoms: N1_1  and  C1_5 
REMARK    2  A    between atoms: C1_5  and  C2_6 
REMARK    3  A    between atoms: C2_6  and  C3_7 
REMARK    4  A    between atoms: C3_7  and  C4_8 
REMARK    5  A    between atoms: C4_8  and  C5_9 
REMARK    6  A    between atoms: C5_9  and  N2_10 
REMARK    7  A    between atoms: N2_10  and  C6_12 
REMARK    8  A    between atoms: C9_15  and  N3_16 
REMARK    9  A    between atoms: N5_25  and  C14_26 
REMARK   10  A    between atoms: C14_26  and  C15_27 
REMARK   11  A    between atoms: C15_27  and  C16_28 
REMARK   12  A    between atoms: C16_28  and  C17_29 
REMARK   13  A    between atoms: C17_29  and  C18_30 
REMARK   14  A    between atoms: C18_30  and  C19_31 
REMARK   15  A    between atoms: C19_31  and  N6_32 
ROOT
HETATM    1  C6  UNL     1      61.362  82.564  63.364  1.00  0.00     0.117 A 
HETATM    2  C7  UNL     1      61.468  81.157  63.320  1.00  0.00     0.037 A 
HETATM    3  C8  UNL     1      62.695  80.531  63.178  1.00  0.00     0.053 A 
HETATM    4  C9  UNL     1      62.836  79.135  63.136  1.00  0.00     0.103 A 
HETATM    5  C10 UNL     1      61.688  78.398  63.244  1.00  0.00     0.038 A 
HETATM    6  C11 UNL     1      60.457  78.976  63.386  1.00  0.00     0.033 A 
HETATM    7  C12 UNL     1      60.345  80.368  63.426  1.00  0.00     0.047 A 
HETATM    8  N4  UNL     1      59.104  80.901  63.572  1.00  0.00    -0.351 N 
ATOM      9  H4  UNL     1      58.276  80.311  63.648  1.00  0.00     0.166 HD
HETATM   10  C13 UNL     1      59.017  82.224  63.613  1.00  0.00     0.185 A 
HETATM   11  N5  UNL     1      60.079  83.032  63.516  1.00  0.00    -0.329 N 
ENDROOT
BRANCH  11  12
HETATM   12  C14 UNL     1      59.890  84.472  63.609  1.00  0.00     0.131 C 
BRANCH  12  13
HETATM   13  C15 UNL     1      59.370  85.021  62.287  1.00  0.00     0.020 C 
BRANCH  13  14
HETATM   14  C16 UNL     1      60.467  85.967  61.757  1.00  0.00     0.002 C 
BRANCH  14  15
HETATM   15  C17 UNL     1      60.661  85.707  60.293  1.00  0.00     0.002 C 
BRANCH  15  16
HETATM   16  C18 UNL     1      61.994  85.997  59.744  1.00  0.00     0.020 C 
BRANCH  16  17
HETATM   17  C19 UNL     1      62.040  86.845  58.517  1.00  0.00     0.129 C 
BRANCH  17  18
HETATM   18  N6  UNL     1      61.967  86.061  57.303  1.00  0.00    -0.349 N 
HETATM   19  C20 UNL     1      63.013  85.255  56.934  1.00  0.00     0.019 A 
HETATM   20  C21 UNL     1      62.654  84.690  55.743  1.00  0.00    -0.023 A 
HETATM   21  C31 UNL     1      64.333  84.938  57.568  1.00  0.00     0.058 C 
HETATM   22  C22 UNL     1      61.402  85.129  55.358  1.00  0.00    -0.001 A 
HETATM   23  C28 UNL     1      63.642  83.755  55.123  1.00  0.00     0.041 C 
HETATM   24  C23 UNL     1      60.602  84.882  54.254  1.00  0.00     0.014 A 
HETATM   25  C27 UNL     1      61.005  85.999  56.380  1.00  0.00     0.045 A 
HETATM   26  C24 UNL     1      59.372  85.477  54.100  1.00  0.00     0.001 A 
HETATM   27  C25 UNL     1      58.981  86.333  55.103  1.00  0.00     0.002 A 
HETATM   28  C26 UNL     1      59.772  86.583  56.200  1.00  0.00     0.030 A 
HETATM   29  C29 UNL     1      64.984  84.455  55.186  1.00  0.00     0.005 C 
HETATM   30  C30 UNL     1      65.429  84.774  56.571  1.00  0.00     0.006 C 
ENDBRANCH  17  18
ENDBRANCH  16  17
ENDBRANCH  15  16
ENDBRANCH  14  15
ENDBRANCH  13  14
ENDBRANCH  12  13
ENDBRANCH  11  12
BRANCH   1  31
HETATM   31  N2  UNL     1      62.306  83.347  63.219  1.00  0.00    -0.375 N 
ATOM     32  H2  UNL     1      62.361  83.865  64.096  1.00  0.00     0.161 HD
BRANCH  31  33
HETATM   33  C5  UNL     1      63.303  83.845  62.452  1.00  0.00     0.121 C 
BRANCH  33  34
HETATM   34  C4  UNL     1      63.958  85.105  63.051  1.00  0.00     0.020 C 
BRANCH  34  35
HETATM   35  C3  UNL     1      64.376  84.951  64.455  1.00  0.00     0.003 C 
BRANCH  35  36
HETATM   36  C2  UNL     1      65.562  84.070  64.617  1.00  0.00     0.027 C 
BRANCH  36  37
HETATM   37  C1  UNL     1      65.467  82.885  65.491  1.00  0.00     0.229 C 
BRANCH  37  38
HETATM   38  N1  UNL     1      65.523  81.596  64.866  1.00  0.00    -0.079 N 
ATOM     39  H13 UNL     1      66.422  81.487  64.398  1.00  0.00     0.274 HD
ATOM     40  H12 UNL     1      65.592  80.875  65.585  1.00  0.00     0.274 HD
ATOM     41  H11 UNL     1      64.774  81.355  64.217  1.00  0.00     0.274 HD
ENDBRANCH  37  38
ENDBRANCH  36  37
ENDBRANCH  35  36
ENDBRANCH  34  35
ENDBRANCH  33  34
ENDBRANCH  31  33
ENDBRANCH   1  31
BRANCH   4  42
HETATM   42  N3  UNL     1      64.117  78.552  62.989  1.00  0.00    -0.116 N 
HETATM   43  O1  UNL     1      65.155  79.226  63.023  1.00  0.00    -0.532 OA
HETATM   44  O2  UNL     1      64.208  77.202  62.801  1.00  0.00    -0.532 OA
ENDBRANCH   4  42
TORSDOF 15
ENDMDL
MODEL 2
REMARK VINA RESULT: -9.933333803      1.362      3.575
REMARK  15 active torsions:
REMARK  status: ('A' for Active; 'I' for Inactive)
REMARK    1  A    between atoms: N1_1  and  C1_5 
REMARK    2  A    between atoms: C1_5  and  C2_6 
REMARK    3  A    between atoms: C2_6  and  C3_7 
REMARK    4  A    between atoms: C3_7  and  C4_8 
REMARK    5  A    between atoms: C4_8  and  C5_9 
REMARK    6  A    between atoms: C5_9  and  N2_10 
REMARK    7  A    between atoms: N2_10  and  C6_12 
REMARK    8  A    between atoms: C9_15  and  N3_16 
REMARK    9  A    between atoms: N5_25  and  C14_26 
REMARK   10  A    between atoms: C14_26  and  C15_27 
REMARK   11  A    between atoms: C15_27  and  C16_28 
REMARK   12  A    between atoms: C16_28  and  C17_29 
REMARK   13  A    between atoms: C17_29  and  C18_30 
REMARK   14  A    between atoms: C18_30  and  C19_31 
REMARK   15  A    between atoms: C19_31  and  N6_32 
ROOT
HETATM    1  C6  UNL     1      62.759  83.463  62.916  1.00  0.00     0.117 A 
HETATM    2  C7  UNL     1      63.510  82.300  63.190  1.00  0.00     0.037 A 
HETATM    3  C8  UNL     1      62.943  81.040  63.108  1.00  0.00     0.053 A 
HETATM    4  C9  UNL     1      63.663  79.863  63.369  1.00  0.00     0.103 A 
HETATM    5  C10 UNL     1      64.979  80.013  63.715  1.00  0.00     0.038 A 
HETATM    6  C11 UNL     1      65.578  81.238  63.807  1.00  0.00     0.033 A 
HETATM    7  C12 UNL     1      64.838  82.393  63.541  1.00  0.00     0.047 A 
HETATM    8  N4  UNL     1      65.473  83.591  63.640  1.00  0.00    -0.351 N 
ATOM      9  H4  UNL     1      66.456  83.652  63.903  1.00  0.00     0.166 HD
HETATM   10  C13 UNL     1      64.756  84.676  63.379  1.00  0.00     0.185 A 
HETATM   11  N5  UNL     1      63.465  84.637  63.033  1.00  0.00    -0.329 N 
ENDROOT
BRANCH  11  12
HETATM   12  C14 UNL     1      62.769  85.878  62.729  1.00  0.00     0.131 C 
BRANCH  12  13
HETATM   13  C15 UNL     1      63.683  86.818  61.955  1.00  0.00     0.020 C 
BRANCH  13  14
HETATM   14  C16 UNL     1      62.967  87.107  60.621  1.00  0.00     0.002 C 
BRANCH  14  15
HETATM   15  C17 UNL     1      61.653  86.384  60.615  1.00  0.00     0.002 C 
BRANCH  15  16
HETATM   16  C18 UNL     1      61.202  85.848  59.321  1.00  0.00     0.020 C 
BRANCH  16  17
HETATM   17  C19 UNL     1      61.477  86.687  58.119  1.00  0.00     0.129 C 
BRANCH  17  18
HETATM   18  N6  UNL     1      61.643  85.894  56.921  1.00  0.00    -0.349 N 
HETATM   19  C20 UNL     1      62.778  85.148  56.732  1.00  0.00     0.019 A 
HETATM   20  C21 UNL     1      62.646  84.558  55.509  1.00  0.00    -0.023 A 
HETATM   21  C31 UNL     1      63.997  84.913  57.572  1.00  0.00     0.058 C 
HETATM   22  C22 UNL     1      61.448  84.921  54.924  1.00  0.00    -0.001 A 
HETATM   23  C28 UNL     1      63.771  83.678  55.066  1.00  0.00     0.041 C 
HETATM   24  C23 UNL     1      60.848  84.621  53.711  1.00  0.00     0.014 A 
HETATM   25  C27 UNL     1      60.845  85.771  55.858  1.00  0.00     0.045 A 
HETATM   26  C24 UNL     1      59.626  85.142  53.356  1.00  0.00     0.001 A 
HETATM   27  C25 UNL     1      59.034  85.980  54.272  1.00  0.00     0.002 A 
HETATM   28  C26 UNL     1      59.624  86.281  55.476  1.00  0.00     0.030 A 
HETATM   29  C29 UNL     1      65.044  84.456  55.330  1.00  0.00     0.005 C 
HETATM   30  C30 UNL     1      65.245  84.808  56.764  1.00  0.00     0.006 C 
ENDBRANCH  17  18
ENDBRANCH  16  17
ENDBRANCH  15  16
ENDBRANCH  14  15
ENDBRANCH  13  14
ENDBRANCH  12  13
ENDBRANCH  11  12
BRANCH   1  31
HETATM   31  N2  UNL     1      61.552  83.476  62.652  1.00  0.00    -0.375 N 
ATOM     32  H2  UNL     1      61.465  82.963  61.774  1.00  0.00     0.161 HD
BRANCH  31  33
HETATM   33  C5  UNL     1      60.290  83.847  62.971  1.00  0.00     0.121 C 
BRANCH  33  34
HETATM   34  C4  UNL     1      59.671  82.989  64.092  1.00  0.00     0.020 C 
BRANCH  34  35
HETATM   35  C3  UNL     1      58.635  82.052  63.624  1.00  0.00     0.003 C 
BRANCH  35  36
HETATM   36  C2  UNL     1      59.019  80.626  63.789  1.00  0.00     0.027 C 
BRANCH  36  37
HETATM   37  C1  UNL     1      58.367  79.601  62.952  1.00  0.00     0.229 C 
BRANCH  37  38
HETATM   38  N1  UNL     1      59.215  78.721  62.203  1.00  0.00    -0.079 N 
ATOM     39  H13 UNL     1      59.993  79.252  61.813  1.00  0.00     0.274 HD
ATOM     40  H12 UNL     1      59.709  78.101  62.846  1.00  0.00     0.274 HD
ATOM     41  H11 UNL     1      58.782  78.165  61.465  1.00  0.00     0.274 HD
ENDBRANCH  37  38
ENDBRANCH  36  37
ENDBRANCH  35  36
ENDBRANCH  34  35
ENDBRANCH  33  34
ENDBRANCH  31  33
ENDBRANCH   1  31
BRANCH   4  42
HETATM   42  N3  UNL     1      63.029  78.602  63.269  1.00  0.00    -0.116 N 
HETATM   43  O1  UNL     1      63.596  77.617  62.780  1.00  0.00    -0.532 OA
HETATM   44  O2  UNL     1      61.748  78.472  63.727  1.00  0.00    -0.532 OA
ENDBRANCH   4  42
TORSDOF 15
ENDMDL
MODEL 3
REMARK VINA RESULT: -9.839413567      1.499      3.959
REMARK  15 active torsions:
REMARK  status: ('A' for Active; 'I' for Inactive)
REMARK    1  A    between atoms: N1_1  and  C1_5 
REMARK    2  A    between atoms: C1_5  and  C2_6 
REMARK    3  A    between atoms: C2_6  and  C3_7 
REMARK    4  A    between atoms: C3_7  and  C4_8 
REMARK    5  A    between atoms: C4_8  and  C5_9 
REMARK    6  A    between atoms: C5_9  and  N2_10 
REMARK    7  A    between atoms: N2_10  and  C6_12 
REMARK    8  A    between atoms: C9_15  and  N3_16 
REMARK    9  A    between atoms: N5_25  and  C14_26 
REMARK   10  A    between atoms: C14_26  and  C15_27 
REMARK   11  A    between atoms: C15_27  and  C16_28 
REMARK   12  A    between atoms: C16_28  and  C17_29 
REMARK   13  A    between atoms: C17_29  and  C18_30 
REMARK   14  A    between atoms: C18_30  and  C19_31 
REMARK   15  A    between atoms: C19_31  and  N6_32 
ROOT
HETATM    1  C6  UNL     1      61.737  81.845  63.275  1.00  0.00     0.117 A 
HETATM    2  C7  UNL     1      63.075  81.396  63.261  1.00  0.00     0.037 A 
HETATM    3  C8  UNL     1      63.381  80.046  63.246  1.00  0.00     0.053 A 
HETATM    4  C9  UNL     1      64.700  79.566  63.227  1.00  0.00     0.103 A 
HETATM    5  C10 UNL     1      65.696  80.505  63.223  1.00  0.00     0.038 A 
HETATM    6  C11 UNL     1      65.437  81.847  63.237  1.00  0.00     0.033 A 
HETATM    7  C12 UNL     1      64.115  82.298  63.255  1.00  0.00     0.047 A 
HETATM    8  N4  UNL     1      63.901  83.640  63.264  1.00  0.00    -0.351 N 
ATOM      9  H4  UNL     1      64.676  84.302  63.262  1.00  0.00     0.166 HD
HETATM   10  C13 UNL     1      62.640  84.050  63.276  1.00  0.00     0.185 A 
HETATM   11  N5  UNL     1      61.596  83.213  63.281  1.00  0.00    -0.329 N 
ENDROOT
BRANCH  11  12
HETATM   12  C14 UNL     1      60.246  83.755  63.257  1.00  0.00     0.131 C 
BRANCH  12  13
HETATM   13  C15 UNL     1      60.279  85.235  62.899  1.00  0.00     0.020 C 
BRANCH  13  14
HETATM   14  C16 UNL     1      59.913  85.320  61.404  1.00  0.00     0.002 C 
BRANCH  14  15
HETATM   15  C17 UNL     1      60.999  86.062  60.684  1.00  0.00     0.002 C 
BRANCH  15  16
HETATM   16  C18 UNL     1      61.425  85.512  59.388  1.00  0.00     0.020 C 
BRANCH  16  17
HETATM   17  C19 UNL     1      61.438  86.459  58.234  1.00  0.00     0.129 C 
BRANCH  17  18
HETATM   18  N6  UNL     1      61.638  85.784  56.971  1.00  0.00    -0.349 N 
HETATM   19  C20 UNL     1      62.792  85.081  56.733  1.00  0.00     0.019 A 
HETATM   20  C21 UNL     1      62.689  84.604  55.458  1.00  0.00    -0.023 A 
HETATM   21  C31 UNL     1      64.003  84.793  57.567  1.00  0.00     0.058 C 
HETATM   22  C22 UNL     1      61.492  84.995  54.890  1.00  0.00    -0.001 A 
HETATM   23  C28 UNL     1      63.839  83.791  54.955  1.00  0.00     0.041 C 
HETATM   24  C23 UNL     1      60.917  84.798  53.645  1.00  0.00     0.014 A 
HETATM   25  C27 UNL     1      60.858  85.743  55.888  1.00  0.00     0.045 A 
HETATM   26  C24 UNL     1      59.690  85.325  53.319  1.00  0.00     0.001 A 
HETATM   27  C25 UNL     1      59.066  86.063  54.298  1.00  0.00     0.002 A 
HETATM   28  C26 UNL     1      59.633  86.262  55.535  1.00  0.00     0.030 A 
HETATM   29  C29 UNL     1      65.091  84.566  55.310  1.00  0.00     0.005 C 
HETATM   30  C30 UNL     1      65.264  84.788  56.773  1.00  0.00     0.006 C 
ENDBRANCH  17  18
ENDBRANCH  16  17
ENDBRANCH  15  16
ENDBRANCH  14  15
ENDBRANCH  13  14
ENDBRANCH  12  13
ENDBRANCH  11  12
BRANCH   1  31
HETATM   31  N2  UNL     1      60.747  81.109  63.340  1.00  0.00    -0.375 N 
ATOM     32  H2  UNL     1      60.467  80.953  62.371  1.00  0.00     0.161 HD
BRANCH  31  33
HETATM   33  C5  UNL     1      59.856  80.412  64.082  1.00  0.00     0.121 C 
BRANCH  33  34
HETATM   34  C4  UNL     1      60.006  78.885  63.933  1.00  0.00     0.020 C 
BRANCH  34  35
HETATM   35  C3  UNL     1      59.659  78.379  62.594  1.00  0.00     0.003 C 
BRANCH  35  36
HETATM   36  C2  UNL     1      58.253  78.664  62.208  1.00  0.00     0.027 C 
BRANCH  36  37
HETATM   37  C1  UNL     1      57.194  77.706  62.578  1.00  0.00     0.229 C 
BRANCH  37  38
HETATM   38  N1  UNL     1      55.857  78.000  62.151  1.00  0.00    -0.079 N 
ATOM     39  H13 UNL     1      55.620  78.954  62.420  1.00  0.00     0.274 HD
ATOM     40  H12 UNL     1      55.837  78.076  61.134  1.00  0.00     0.274 HD
ATOM     41  H11 UNL     1      55.116  77.369  62.457  1.00  0.00     0.274 HD
ENDBRANCH  37  38
ENDBRANCH  36  37
ENDBRANCH  35  36
ENDBRANCH  34  35
ENDBRANCH  33  34
ENDBRANCH  31  33
ENDBRANCH   1  31
BRANCH   4  42
HETATM   42  N3  UNL     1      64.952  78.173  63.213  1.00  0.00    -0.116 N 
HETATM   43  O1  UNL     1      64.095  77.353  62.857  1.00  0.00    -0.532 OA
HETATM   44  O2  UNL     1      66.180  77.722  63.605  1.00  0.00    -0.532 OA
ENDBRANCH   4  42
TORSDOF 15
ENDMDL
MODEL 4
REMARK VINA RESULT: -9.798620976      1.103      1.984
REMARK  15 active torsions:
REMARK  status: ('A' for Active; 'I' for Inactive)
REMARK    1  A    between atoms: N1_1  and  C1_5 
REMARK    2  A    between atoms: C1_5  and  C2_6 
REMARK    3  A    between atoms: C2_6  and  C3_7 
REMARK    4  A    between atoms: C3_7  and  C4_8 
REMARK    5  A    between atoms: C4_8  and  C5_9 
REMARK    6  A    between atoms: C5_9  and  N2_10 
REMARK    7  A    between atoms: N2_10  and  C6_12 
REMARK    8  A    between atoms: C9_15  and  N3_16 
REMARK    9  A    between atoms: N5_25  and  C14_26 
REMARK   10  A    between atoms: C14_26  and  C15_27 
REMARK   11  A    between atoms: C15_27  and  C16_28 
REMARK   12  A    between atoms: C16_28  and  C17_29 
REMARK   13  A    between atoms: C17_29  and  C18_30 
REMARK   14  A    between atoms: C18_30  and  C19_31 
REMARK   15  A    between atoms: C19_31  and  N6_32 
ROOT
HETATM    1  C6  UNL     1      61.641  82.403  63.590  1.00  0.00     0.117 A 
HETATM    2  C7  UNL     1      61.773  81.018  63.351  1.00  0.00     0.037 A 
HETATM    3  C8  UNL     1      63.017  80.419  63.256  1.00  0.00     0.053 A 
HETATM    4  C9  UNL     1      63.183  79.044  63.023  1.00  0.00     0.103 A 
HETATM    5  C10 UNL     1      62.041  78.301  62.891  1.00  0.00     0.038 A 
HETATM    6  C11 UNL     1      60.793  78.853  62.979  1.00  0.00     0.033 A 
HETATM    7  C12 UNL     1      60.657  80.224  63.211  1.00  0.00     0.047 A 
HETATM    8  N4  UNL     1      59.399  80.732  63.295  1.00  0.00    -0.351 N 
ATOM      9  H4  UNL     1      58.577  80.138  63.189  1.00  0.00     0.166 HD
HETATM   10  C13 UNL     1      59.289  82.034  63.521  1.00  0.00     0.185 A 
HETATM   11  N5  UNL     1      60.342  82.846  63.665  1.00  0.00    -0.329 N 
ENDROOT
BRANCH  11  12
HETATM   12  C14 UNL     1      60.123  84.256  63.949  1.00  0.00     0.131 C 
BRANCH  12  13
HETATM   13  C15 UNL     1      59.451  84.934  62.761  1.00  0.00     0.020 C 
BRANCH  13  14
HETATM   14  C16 UNL     1      60.572  85.674  62.003  1.00  0.00     0.002 C 
BRANCH  14  15
HETATM   15  C17 UNL     1      60.298  85.581  60.532  1.00  0.00     0.002 C 
BRANCH  15  16
HETATM   16  C18 UNL     1      61.468  85.421  59.653  1.00  0.00     0.020 C 
BRANCH  16  17
HETATM   17  C19 UNL     1      61.627  86.429  58.564  1.00  0.00     0.129 C 
BRANCH  17  18
HETATM   18  N6  UNL     1      61.713  85.818  57.257  1.00  0.00    -0.349 N 
HETATM   19  C20 UNL     1      62.826  85.100  56.897  1.00  0.00     0.019 A 
HETATM   20  C21 UNL     1      62.616  84.694  55.611  1.00  0.00    -0.023 A 
HETATM   21  C31 UNL     1      64.087  84.739  57.622  1.00  0.00     0.058 C 
HETATM   22  C22 UNL     1      61.392  85.145  55.155  1.00  0.00    -0.001 A 
HETATM   23  C28 UNL     1      63.702  83.882  54.982  1.00  0.00     0.041 C 
HETATM   24  C23 UNL     1      60.720  85.027  53.949  1.00  0.00     0.014 A 
HETATM   25  C27 UNL     1      60.855  85.854  56.235  1.00  0.00     0.045 A 
HETATM   26  C24 UNL     1      59.488  85.601  53.744  1.00  0.00     0.001 A 
HETATM   27  C25 UNL     1      58.960  86.301  54.803  1.00  0.00     0.002 A 
HETATM   28  C26 UNL     1      59.622  86.421  56.003  1.00  0.00     0.030 A 
HETATM   29  C29 UNL     1      64.998  84.606  55.280  1.00  0.00     0.005 C 
HETATM   30  C30 UNL     1      65.285  84.745  56.736  1.00  0.00     0.006 C 
ENDBRANCH  17  18
ENDBRANCH  16  17
ENDBRANCH  15  16
ENDBRANCH  14  15
ENDBRANCH  13  14
ENDBRANCH  12  13
ENDBRANCH  11  12
BRANCH   1  31
HETATM   31  N2  UNL     1      62.584  83.197  63.670  1.00  0.00    -0.375 N 
ATOM     32  H2  UNL     1      62.635  83.644  62.754  1.00  0.00     0.161 HD
BRANCH  31  33
HETATM   33  C5  UNL     1      63.582  83.757  64.393  1.00  0.00     0.121 C 
BRANCH  33  34
HETATM   34  C4  UNL     1      63.770  85.259  64.104  1.00  0.00     0.020 C 
BRANCH  34  35
HETATM   35  C3  UNL     1      64.191  85.555  62.724  1.00  0.00     0.003 C 
BRANCH  35  36
HETATM   36  C2  UNL     1      64.366  87.008  62.465  1.00  0.00     0.027 C 
BRANCH  36  37
HETATM   37  C1  UNL     1      63.477  87.681  61.499  1.00  0.00     0.229 C 
BRANCH  37  38
HETATM   38  N1  UNL     1      63.798  89.030  61.134  1.00  0.00    -0.079 N 
ATOM     39  H13 UNL     1      63.373  89.671  61.803  1.00  0.00     0.274 HD
ATOM     40  H12 UNL     1      64.789  89.200  61.308  1.00  0.00     0.274 HD
ATOM     41  H11 UNL     1      63.566  89.329  60.187  1.00  0.00     0.274 HD
ENDBRANCH  37  38
ENDBRANCH  36  37
ENDBRANCH  35  36
ENDBRANCH  34  35
ENDBRANCH  33  34
ENDBRANCH  31  33
ENDBRANCH   1  31
BRANCH   4  42
HETATM   42  N3  UNL     1      64.481  78.488  62.936  1.00  0.00    -0.116 N 
HETATM   43  O1  UNL     1      64.676  77.266  62.947  1.00  0.00    -0.532 OA
HETATM   44  O2  UNL     1      65.553  79.330  62.838  1.00  0.00    -0.532 OA
ENDBRANCH   4  42
TORSDOF 15
ENDMDL
MODEL 5
REMARK VINA RESULT: -9.679709296      0.634      2.606
REMARK  15 active torsions:
REMARK  status: ('A' for Active; 'I' for Inactive)
REMARK    1  A    between atoms: N1_1  and  C1_5 
REMARK    2  A    between atoms: C1_5  and  C2_6 
REMARK    3  A    between atoms: C2_6  and  C3_7 
REMARK    4  A    between atoms: C3_7  and  C4_8 
REMARK    5  A    between atoms: C4_8  and  C5_9 
REMARK    6  A    between atoms: C5_9  and  N2_10 
REMARK    7  A    between atoms: N2_10  and  C6_12 
REMARK    8  A    between atoms: C9_15  and  N3_16 
REMARK    9  A    between atoms: N5_25  and  C14_26 
REMARK   10  A    between atoms: C14_26  and  C15_27 
REMARK   11  A    between atoms: C15_27  and  C16_28 
REMARK   12  A    between atoms: C16_28  and  C17_29 
REMARK   13  A    between atoms: C17_29  and  C18_30 
REMARK   14  A    between atoms: C18_30  and  C19_31 
REMARK   15  A    between atoms: C19_31  and  N6_32 
ROOT
HETATM    1  C6  UNL     1      61.547  82.532  63.410  1.00  0.00     0.117 A 
HETATM    2  C7  UNL     1      61.679  81.132  63.287  1.00  0.00     0.037 A 
HETATM    3  C8  UNL     1      62.920  80.533  63.160  1.00  0.00     0.053 A 
HETATM    4  C9  UNL     1      63.086  79.144  63.041  1.00  0.00     0.103 A 
HETATM    5  C10 UNL     1      61.947  78.386  63.055  1.00  0.00     0.038 A 
HETATM    6  C11 UNL     1      60.701  78.937  63.179  1.00  0.00     0.033 A 
HETATM    7  C12 UNL     1      60.565  80.322  63.296  1.00  0.00     0.047 A 
HETATM    8  N4  UNL     1      59.310  80.829  63.421  1.00  0.00    -0.351 N 
ATOM      9  H4  UNL     1      58.490  80.223  63.426  1.00  0.00     0.166 HD
HETATM   10  C13 UNL     1      59.200  82.145  63.537  1.00  0.00     0.185 A 
HETATM   11  N5  UNL     1      60.251  82.972  63.535  1.00  0.00    -0.329 N 
ENDROOT
BRANCH  11  12
HETATM   12  C14 UNL     1      60.036  84.401  63.705  1.00  0.00     0.131 C 
BRANCH  12  13
HETATM   13  C15 UNL     1      59.282  84.967  62.508  1.00  0.00     0.020 C 
BRANCH  13  14
HETATM   14  C16 UNL     1      60.305  85.810  61.721  1.00  0.00     0.002 C 
BRANCH  14  15
HETATM   15  C17 UNL     1      60.708  85.051  60.492  1.00  0.00     0.002 C 
BRANCH  15  16
HETATM   16  C18 UNL     1      61.792  85.633  59.684  1.00  0.00     0.020 C 
BRANCH  16  17
HETATM   17  C19 UNL     1      61.381  86.546  58.578  1.00  0.00     0.129 C 
BRANCH  17  18
HETATM   18  N6  UNL     1      61.731  86.025  57.275  1.00  0.00    -0.349 N 
HETATM   19  C20 UNL     1      60.834  86.085  56.239  1.00  0.00     0.019 A 
HETATM   20  C21 UNL     1      61.443  85.485  55.175  1.00  0.00    -0.023 A 
HETATM   21  C31 UNL     1      59.450  86.647  56.117  1.00  0.00     0.058 C 
HETATM   22  C22 UNL     1      62.706  85.047  55.524  1.00  0.00    -0.001 A 
HETATM   23  C28 UNL     1      60.658  85.423  53.904  1.00  0.00     0.041 C 
HETATM   24  C23 UNL     1      63.708  84.378  54.839  1.00  0.00     0.014 A 
HETATM   25  C27 UNL     1      62.845  85.412  56.868  1.00  0.00     0.045 A 
HETATM   26  C24 UNL     1      64.896  84.035  55.441  1.00  0.00     0.001 A 
HETATM   27  C25 UNL     1      65.032  84.391  56.762  1.00  0.00     0.002 A 
HETATM   28  C26 UNL     1      64.041  85.054  57.447  1.00  0.00     0.030 A 
HETATM   29  C29 UNL     1      59.277  84.932  54.284  1.00  0.00     0.005 C 
HETATM   30  C30 UNL     1      58.567  85.823  55.244  1.00  0.00     0.006 C 
ENDBRANCH  17  18
ENDBRANCH  16  17
ENDBRANCH  15  16
ENDBRANCH  14  15
ENDBRANCH  13  14
ENDBRANCH  12  13
ENDBRANCH  11  12
BRANCH   1  31
HETATM   31  N2  UNL     1      62.484  83.335  63.353  1.00  0.00    -0.375 N 
ATOM     32  H2  UNL     1      62.498  83.794  64.264  1.00  0.00     0.161 HD
BRANCH  31  33
HETATM   33  C5  UNL     1      63.501  83.897  62.658  1.00  0.00     0.121 C 
BRANCH  33  34
HETATM   34  C4  UNL     1      64.398  84.804  63.523  1.00  0.00     0.020 C 
BRANCH  34  35
HETATM   35  C3  UNL     1      65.696  84.203  63.872  1.00  0.00     0.003 C 
BRANCH  35  36
HETATM   36  C2  UNL     1      65.570  82.851  64.477  1.00  0.00     0.027 C 
BRANCH  36  37
HETATM   37  C1  UNL     1      65.668  82.703  65.941  1.00  0.00     0.229 C 
BRANCH  37  38
HETATM   38  N1  UNL     1      66.690  83.449  66.614  1.00  0.00    -0.079 N 
ATOM     39  H13 UNL     1      66.432  83.567  67.594  1.00  0.00     0.274 HD
ATOM     40  H12 UNL     1      67.527  82.872  66.704  1.00  0.00     0.274 HD
ATOM     41  H11 UNL     1      66.947  84.355  66.222  1.00  0.00     0.274 HD
ENDBRANCH  37  38
ENDBRANCH  36  37
ENDBRANCH  35  36
ENDBRANCH  34  35
ENDBRANCH  33  34
ENDBRANCH  31  33
ENDBRANCH   1  31
BRANCH   4  42
HETATM   42  N3  UNL     1      64.382  78.589  62.914  1.00  0.00    -0.116 N 
HETATM   43  O1  UNL     1      65.391  79.295  62.792  1.00  0.00    -0.532 OA
HETATM   44  O2  UNL     1      64.519  77.230  62.926  1.00  0.00    -0.532 OA
ENDBRANCH   4  42
TORSDOF 15
ENDMDL
