MODEL 1
REMARK VINA RESULT: -9.757663728      0.000      0.000
REMARK  12 active torsions:
REMARK  status: ('A' for Active; 'I' for Inactive)
REMARK    1  A    between atoms: C2_2  and  C3_3 
REMARK    2  A    between atoms: C3_3  and  C4_4 
REMARK    3  A    between atoms: C4_4  and  C5_5 
REMARK    4  A    between atoms: C5_5  and  C6_6 
REMARK    5  A    between atoms: C6_6  and  C7_7 
REMARK    6  A    between atoms: C7_7  and  C8_8 
REMARK       I    between atoms: C8_8  and  N1_10 
REMARK    7  A    between atoms: N1_10  and  S1_12 
REMARK    8  A    between atoms: S1_12  and  C9_15 
REMARK    9  A    between atoms: C14_20  and  C15_21 
REMARK   10  A    between atoms: C18_24  and  C19_25 
REMARK   11  A    between atoms: C19_25  and  N2_26 
REMARK   12  A    between atoms: C21_32  and  C22_33 
ROOT
HETATM    1  C9  UNL     1      61.599  84.230  63.453  1.00  0.00     0.090 A 
HETATM    2  C10 UNL     1      60.887  83.760  64.542  1.00  0.00     0.026 A 
HETATM    3  C11 UNL     1      59.542  83.513  64.421  1.00  0.00     0.002 A 
HETATM    4  C12 UNL     1      58.892  83.729  63.228  1.00  0.00     0.001 A 
HETATM    5  C13 UNL     1      59.607  84.197  62.151  1.00  0.00     0.014 A 
HETATM    6  C14 UNL     1      60.982  84.451  62.264  1.00  0.00    -0.003 A 
ENDROOT
BRANCH   6   7
HETATM    7  C15 UNL     1      61.654  84.914  61.076  1.00  0.00    -0.024 A 
HETATM    8  C16 UNL     1      62.338  84.151  60.167  1.00  0.00     0.013 A 
HETATM    9  C17 UNL     1      62.963  84.702  59.059  1.00  0.00     0.010 A 
HETATM   10  C18 UNL     1      62.933  86.081  58.794  1.00  0.00    -0.038 A 
HETATM   11  C26 UNL     1      62.253  86.838  59.694  1.00  0.00     0.010 A 
HETATM   12  C27 UNL     1      61.627  86.281  60.808  1.00  0.00     0.013 A 
BRANCH  10  13
HETATM   13  C19 UNL     1      63.648  86.571  57.609  1.00  0.00     0.189 C 
BRANCH  13  14
HETATM   14  N2  UNL     1      63.699  85.609  56.529  1.00  0.00    -0.270 N 
HETATM   15  N3  UNL     1      64.860  84.937  56.283  1.00  0.00    -0.292 N 
HETATM   16  C20 UNL     1      64.693  84.143  55.237  1.00  0.00     0.199 A 
ATOM     17  H3  UNL     1      65.722  85.030  56.821  1.00  0.00     0.188 HD
HETATM   18  N4  UNL     1      63.436  84.315  54.828  1.00  0.00    -0.335 N 
HETATM   19  C21 UNL     1      62.803  85.239  55.640  1.00  0.00     0.140 A 
ATOM     20  H4  UNL     1      63.007  83.837  54.036  1.00  0.00     0.168 HD
BRANCH  19  21
HETATM   21  C22 UNL     1      61.409  85.614  55.469  1.00  0.00     0.050 A 
HETATM   22  C23 UNL     1      60.550  86.378  56.163  1.00  0.00     0.023 A 
HETATM   23  C24 UNL     1      59.282  86.506  55.723  1.00  0.00     0.009 A 
HETATM   24  C25 UNL     1      58.947  85.841  54.580  1.00  0.00     0.050 A 
HETATM   25  S2  UNL     1      60.397  85.065  54.159  1.00  0.00    -0.098 SA
ENDBRANCH  19  21
ENDBRANCH  13  14
ENDBRANCH  10  13
ENDBRANCH   6   7
BRANCH   1  26
HETATM   26  S1  UNL     1      63.281  84.559  63.681  1.00  0.00     0.266 S 
HETATM   27  O2  UNL     1      63.606  85.900  63.045  1.00  0.00    -0.200 OA
HETATM   28  O3  UNL     1      63.664  84.662  65.131  1.00  0.00    -0.200 OA
BRANCH  26  29
HETATM   29  N1  UNL     1      64.279  83.356  62.924  1.00  0.00    -0.250 N 
HETATM   30  C8  UNL     1      64.424  82.070  63.565  1.00  0.00     0.231 C 
HETATM   31  O1  UNL     1      63.823  81.883  64.632  1.00  0.00    -0.273 OA
ATOM     32  H1  UNL     1      64.754  83.553  62.044  1.00  0.00     0.181 HD
BRANCH  30  33
HETATM   33  C7  UNL     1      65.270  81.074  62.919  1.00  0.00     0.103 C 
BRANCH  33  34
HETATM   34  C6  UNL     1      65.251  79.743  63.575  1.00  0.00     0.009 C 
BRANCH  34  35
HETATM   35  C5  UNL     1      64.959  78.648  62.617  1.00  0.00     0.000 C 
BRANCH  35  36
HETATM   36  C4  UNL     1      63.779  77.802  63.069  1.00  0.00     0.000 C 
BRANCH  36  37
HETATM   37  C3  UNL     1      62.663  78.621  63.651  1.00  0.00    -0.000 C 
BRANCH  37  38
HETATM   38  C2  UNL     1      61.566  78.908  62.670  1.00  0.00    -0.005 C 
HETATM   39  C1  UNL     1      61.168  80.355  62.837  1.00  0.00     0.005 C 
ENDBRANCH  37  38
ENDBRANCH  36  37
ENDBRANCH  35  36
ENDBRANCH  34  35
ENDBRANCH  33  34
ENDBRANCH  30  33
ENDBRANCH  26  29
ENDBRANCH   1  26
TORSDOF 12
ENDMDL
MODEL 2
REMARK VINA RESULT: -9.505234548      1.336      2.051
REMARK  12 active torsions:
REMARK  status: ('A' for Active; 'I' for Inactive)
REMARK    1  A    between atoms: C2_2  and  C3_3 
REMARK    2  A    between atoms: C3_3  and  C4_4 
REMARK    3  A    between atoms: C4_4  and  C5_5 
REMARK    4  A    between atoms: C5_5  and  C6_6 
REMARK    5  A    between atoms: C6_6  and  C7_7 
REMARK    6  A    between atoms: C7_7  and  C8_8 
REMARK       I    between atoms: C8_8  and  N1_10 
REMARK    7  A    between atoms: N1_10  and  S1_12 
REMARK    8  A    between atoms: S1_12  and  C9_15 
REMARK    9  A    between atoms: C14_20  and  C15_21 
REMARK   10  A    between atoms: C18_24  and  C19_25 
REMARK   11  A    between atoms: C19_25  and  N2_26 
REMARK   12  A    between atoms: C21_32  and  C22_33 
ROOT
HETATM    1  C9  UNL     1      61.658  84.050  63.521  1.00  0.00     0.090 A 
HETATM    2  C10 UNL     1      61.012  83.456  64.591  1.00  0.00     0.026 A 
HETATM    3  C11 UNL     1      59.652  83.276  64.550  1.00  0.00     0.002 A 
HETATM    4  C12 UNL     1      58.921  83.680  63.457  1.00  0.00     0.001 A 
HETATM    5  C13 UNL     1      59.571  84.269  62.398  1.00  0.00     0.014 A 
HETATM    6  C14 UNL     1      60.961  84.456  62.429  1.00  0.00    -0.003 A 
ENDROOT
BRANCH   6   7
HETATM    7  C15 UNL     1      61.560  85.058  61.264  1.00  0.00    -0.024 A 
HETATM    8  C16 UNL     1      61.866  86.382  61.087  1.00  0.00     0.013 A 
HETATM    9  C17 UNL     1      62.432  86.860  59.916  1.00  0.00     0.010 A 
HETATM   10  C18 UNL     1      62.730  86.017  58.833  1.00  0.00    -0.038 A 
HETATM   11  C26 UNL     1      62.429  84.705  59.008  1.00  0.00     0.010 A 
HETATM   12  C27 UNL     1      61.859  84.227  60.187  1.00  0.00     0.013 A 
BRANCH  10  13
HETATM   13  C19 UNL     1      63.303  86.625  57.625  1.00  0.00     0.189 C 
BRANCH  13  14
HETATM   14  N2  UNL     1      63.600  85.665  56.584  1.00  0.00    -0.270 N 
HETATM   15  N3  UNL     1      64.836  85.089  56.533  1.00  0.00    -0.292 N 
HETATM   16  C20 UNL     1      64.898  84.279  55.489  1.00  0.00     0.199 A 
ATOM     17  H3  UNL     1      65.592  85.256  57.197  1.00  0.00     0.188 HD
HETATM   18  N4  UNL     1      63.712  84.344  54.886  1.00  0.00    -0.335 N 
HETATM   19  C21 UNL     1      62.887  85.217  55.573  1.00  0.00     0.140 A 
ATOM     20  H4  UNL     1      63.452  83.829  54.045  1.00  0.00     0.168 HD
BRANCH  19  21
HETATM   21  C22 UNL     1      61.511  85.475  55.180  1.00  0.00     0.050 A 
HETATM   22  C23 UNL     1      60.448  86.027  55.789  1.00  0.00     0.023 A 
HETATM   23  C24 UNL     1      59.277  86.099  55.125  1.00  0.00     0.009 A 
HETATM   24  C25 UNL     1      59.246  85.600  53.856  1.00  0.00     0.050 A 
HETATM   25  S2  UNL     1      60.836  85.050  53.629  1.00  0.00    -0.098 SA
ENDBRANCH  19  21
ENDBRANCH  13  14
ENDBRANCH  10  13
ENDBRANCH   6   7
BRANCH   1  26
HETATM   26  S1  UNL     1      63.366  84.284  63.651  1.00  0.00     0.266 S 
HETATM   27  O2  UNL     1      64.031  83.723  62.406  1.00  0.00    -0.200 OA
HETATM   28  O3  UNL     1      63.750  85.735  63.732  1.00  0.00    -0.200 OA
BRANCH  26  29
HETATM   29  N1  UNL     1      64.026  83.454  65.027  1.00  0.00    -0.250 N 
HETATM   30  C8  UNL     1      65.457  83.459  65.221  1.00  0.00     0.231 C 
HETATM   31  O1  UNL     1      66.152  84.062  64.392  1.00  0.00    -0.273 OA
ATOM     32  H1  UNL     1      63.414  82.973  65.685  1.00  0.00     0.181 HD
BRANCH  30  33
HETATM   33  C7  UNL     1      65.993  82.753  66.378  1.00  0.00     0.103 C 
BRANCH  33  34
HETATM   34  C6  UNL     1      65.132  81.650  66.870  1.00  0.00     0.009 C 
BRANCH  34  35
HETATM   35  C5  UNL     1      65.520  80.336  66.299  1.00  0.00     0.000 C 
BRANCH  35  36
HETATM   36  C4  UNL     1      64.387  79.709  65.502  1.00  0.00     0.000 C 
BRANCH  36  37
HETATM   37  C3  UNL     1      64.813  79.265  64.133  1.00  0.00    -0.000 C 
BRANCH  37  38
HETATM   38  C2  UNL     1      64.691  80.342  63.097  1.00  0.00    -0.005 C 
HETATM   39  C1  UNL     1      66.078  80.641  62.581  1.00  0.00     0.005 C 
ENDBRANCH  37  38
ENDBRANCH  36  37
ENDBRANCH  35  36
ENDBRANCH  34  35
ENDBRANCH  33  34
ENDBRANCH  30  33
ENDBRANCH  26  29
ENDBRANCH   1  26
TORSDOF 12
ENDMDL
MODEL 3
REMARK VINA RESULT: -9.436371958      1.112      2.084
REMARK  12 active torsions:
REMARK  status: ('A' for Active; 'I' for Inactive)
REMARK    1  A    between atoms: C2_2  and  C3_3 
REMARK    2  A    between atoms: C3_3  and  C4_4 
REMARK    3  A    between atoms: C4_4  and  C5_5 
REMARK    4  A    between atoms: C5_5  and  C6_6 
REMARK    5  A    between atoms: C6_6  and  C7_7 
REMARK    6  A    between atoms: C7_7  and  C8_8 
REMARK       I    between atoms: C8_8  and  N1_10 
REMARK    7  A    between atoms: N1_10  and  S1_12 
REMARK    8  A    between atoms: S1_12  and  C9_15 
REMARK    9  A    between atoms: C14_20  and  C15_21 
REMARK   10  A    between atoms: C18_24  and  C19_25 
REMARK   11  A    between atoms: C19_25  and  N2_26 
REMARK   12  A    between atoms: C21_32  and  C22_33 
ROOT
HETATM    1  C9  UNL     1      61.588  84.171  63.503  1.00  0.00     0.090 A 
HETATM    2  C10 UNL     1      60.856  83.628  64.544  1.00  0.00     0.026 A 
HETATM    3  C11 UNL     1      59.500  83.464  64.408  1.00  0.00     0.002 A 
HETATM    4  C12 UNL     1      58.858  83.833  63.249  1.00  0.00     0.001 A 
HETATM    5  C13 UNL     1      59.594  84.372  62.219  1.00  0.00     0.014 A 
HETATM    6  C14 UNL     1      60.980  84.543  62.347  1.00  0.00    -0.003 A 
ENDROOT
BRANCH   6   7
HETATM    7  C15 UNL     1      61.673  85.091  61.208  1.00  0.00    -0.024 A 
HETATM    8  C16 UNL     1      61.856  86.416  60.915  1.00  0.00     0.013 A 
HETATM    9  C17 UNL     1      62.531  86.838  59.780  1.00  0.00     0.010 A 
HETATM   10  C18 UNL     1      63.074  85.931  58.856  1.00  0.00    -0.038 A 
HETATM   11  C26 UNL     1      62.895  84.616  59.146  1.00  0.00     0.010 A 
HETATM   12  C27 UNL     1      62.215  84.196  60.288  1.00  0.00     0.013 A 
BRANCH  10  13
HETATM   13  C19 UNL     1      63.747  86.477  57.670  1.00  0.00     0.189 C 
BRANCH  13  14
HETATM   14  N2  UNL     1      63.761  85.565  56.546  1.00  0.00    -0.270 N 
HETATM   15  N3  UNL     1      64.905  84.884  56.249  1.00  0.00    -0.292 N 
HETATM   16  C20 UNL     1      64.705  84.143  55.171  1.00  0.00     0.199 A 
ATOM     17  H3  UNL     1      65.778  84.937  56.775  1.00  0.00     0.188 HD
HETATM   18  N4  UNL     1      63.445  84.356  54.792  1.00  0.00    -0.335 N 
HETATM   19  C21 UNL     1      62.843  85.253  55.658  1.00  0.00     0.140 A 
ATOM     20  H4  UNL     1      62.993  83.923  53.987  1.00  0.00     0.168 HD
BRANCH  19  21
HETATM   21  C22 UNL     1      61.454  85.660  55.528  1.00  0.00     0.050 A 
HETATM   22  C23 UNL     1      60.626  86.421  56.263  1.00  0.00     0.023 A 
HETATM   23  C24 UNL     1      59.353  86.587  55.856  1.00  0.00     0.009 A 
HETATM   24  C25 UNL     1      58.978  85.961  54.702  1.00  0.00     0.050 A 
HETATM   25  S2  UNL     1      60.402  85.168  54.227  1.00  0.00    -0.098 SA
ENDBRANCH  19  21
ENDBRANCH  13  14
ENDBRANCH  10  13
ENDBRANCH   6   7
BRANCH   1  26
HETATM   26  S1  UNL     1      63.286  84.389  63.751  1.00  0.00     0.266 S 
HETATM   27  O2  UNL     1      63.691  85.741  63.188  1.00  0.00    -0.200 OA
HETATM   28  O3  UNL     1      63.666  84.393  65.205  1.00  0.00    -0.200 OA
BRANCH  26  29
HETATM   29  N1  UNL     1      64.216  83.171  62.933  1.00  0.00    -0.250 N 
HETATM   30  C8  UNL     1      64.321  81.860  63.529  1.00  0.00     0.231 C 
HETATM   31  O1  UNL     1      63.736  81.663  64.603  1.00  0.00    -0.273 OA
ATOM     32  H1  UNL     1      64.679  83.378  62.049  1.00  0.00     0.181 HD
BRANCH  30  33
HETATM   33  C7  UNL     1      65.109  80.852  62.831  1.00  0.00     0.103 C 
BRANCH  33  34
HETATM   34  C6  UNL     1      64.485  79.507  62.799  1.00  0.00     0.009 C 
BRANCH  34  35
HETATM   35  C5  UNL     1      65.428  78.439  63.212  1.00  0.00     0.000 C 
BRANCH  35  36
HETATM   36  C4  UNL     1      64.818  77.055  63.055  1.00  0.00     0.000 C 
BRANCH  36  37
HETATM   37  C3  UNL     1      65.837  75.956  63.137  1.00  0.00    -0.000 C 
BRANCH  37  38
HETATM   38  C2  UNL     1      67.154  76.410  63.690  1.00  0.00    -0.005 C 
HETATM   39  C1  UNL     1      68.187  75.368  63.330  1.00  0.00     0.005 C 
ENDBRANCH  37  38
ENDBRANCH  36  37
ENDBRANCH  35  36
ENDBRANCH  34  35
ENDBRANCH  33  34
ENDBRANCH  30  33
ENDBRANCH  26  29
ENDBRANCH   1  26
TORSDOF 12
ENDMDL
MODEL 4
REMARK VINA RESULT: -9.357139426      2.741      3.865
REMARK  12 active torsions:
REMARK  status: ('A' for Active; 'I' for Inactive)
REMARK    1  A    between atoms: C2_2  and  C3_3 
REMARK    2  A    between atoms: C3_3  and  C4_4 
REMARK    3  A    between atoms: C4_4  and  C5_5 
REMARK    4  A    between atoms: C5_5  and  C6_6 
REMARK    5  A    between atoms: C6_6  and  C7_7 
REMARK    6  A    between atoms: C7_7  and  C8_8 
REMARK       I    between atoms: C8_8  and  N1_10 
REMARK    7  A    between atoms: N1_10  and  S1_12 
REMARK    8  A    between atoms: S1_12  and  C9_15 
REMARK    9  A    between atoms: C14_20  and  C15_21 
REMARK   10  A    between atoms: C18_24  and  C19_25 
REMARK   11  A    between atoms: C19_25  and  N2_26 
REMARK   12  A    between atoms: C21_32  and  C22_33 
ROOT
HETATM    1  C9  UNL     1      62.319  83.790  64.121  1.00  0.00     0.090 A 
HETATM    2  C10 UNL     1      62.666  83.214  65.330  1.00  0.00     0.026 A 
HETATM    3  C11 UNL     1      63.947  82.763  65.527  1.00  0.00     0.002 A 
HETATM    4  C12 UNL     1      64.893  82.876  64.534  1.00  0.00     0.001 A 
HETATM    5  C13 UNL     1      64.540  83.450  63.335  1.00  0.00     0.014 A 
HETATM    6  C14 UNL     1      63.233  83.915  63.125  1.00  0.00    -0.003 A 
ENDROOT
BRANCH   6   7
HETATM    7  C15 UNL     1      62.961  84.525  61.848  1.00  0.00    -0.024 A 
HETATM    8  C16 UNL     1      62.286  83.966  60.796  1.00  0.00     0.013 A 
HETATM    9  C17 UNL     1      62.089  84.639  59.600  1.00  0.00     0.010 A 
HETATM   10  C18 UNL     1      62.568  85.942  59.390  1.00  0.00    -0.038 A 
HETATM   11  C26 UNL     1      63.236  86.499  60.433  1.00  0.00     0.010 A 
HETATM   12  C27 UNL     1      63.433  85.819  61.634  1.00  0.00     0.013 A 
BRANCH  10  13
HETATM   13  C19 UNL     1      62.332  86.560  58.079  1.00  0.00     0.189 C 
BRANCH  13  14
HETATM   14  N2  UNL     1      62.910  85.815  56.980  1.00  0.00    -0.270 N 
HETATM   15  N3  UNL     1      64.209  85.406  57.056  1.00  0.00    -0.292 N 
HETATM   16  C20 UNL     1      64.537  84.782  55.936  1.00  0.00     0.199 A 
ATOM     17  H3  UNL     1      64.830  85.558  57.851  1.00  0.00     0.188 HD
HETATM   18  N4  UNL     1      63.453  84.797  55.162  1.00  0.00    -0.335 N 
HETATM   19  C21 UNL     1      62.421  85.448  55.816  1.00  0.00     0.140 A 
ATOM     20  H4  UNL     1      63.393  84.391  54.228  1.00  0.00     0.168 HD
BRANCH  19  21
HETATM   21  C22 UNL     1      61.094  85.597  55.241  1.00  0.00     0.050 A 
HETATM   22  C23 UNL     1      59.934  86.114  55.679  1.00  0.00     0.023 A 
HETATM   23  C24 UNL     1      58.854  86.075  54.873  1.00  0.00     0.009 A 
HETATM   24  C25 UNL     1      59.011  85.505  53.644  1.00  0.00     0.050 A 
HETATM   25  S2  UNL     1      60.645  85.044  53.649  1.00  0.00    -0.098 SA
ENDBRANCH  19  21
ENDBRANCH  13  14
ENDBRANCH  10  13
ENDBRANCH   6   7
BRANCH   1  26
HETATM   26  S1  UNL     1      60.679  84.301  63.922  1.00  0.00     0.266 S 
HETATM   27  O2  UNL     1      60.085  84.578  65.293  1.00  0.00    -0.200 OA
HETATM   28  O3  UNL     1      60.558  85.573  63.130  1.00  0.00    -0.200 OA
BRANCH  26  29
HETATM   29  N1  UNL     1      59.712  83.075  63.161  1.00  0.00    -0.250 N 
HETATM   30  C8  UNL     1      59.217  81.982  63.965  1.00  0.00     0.231 C 
HETATM   31  O1  UNL     1      59.505  81.971  65.170  1.00  0.00    -0.273 OA
ATOM     32  H1  UNL     1      59.498  83.126  62.166  1.00  0.00     0.181 HD
BRANCH  30  33
HETATM   33  C7  UNL     1      58.412  80.960  63.309  1.00  0.00     0.103 C 
BRANCH  33  34
HETATM   34  C6  UNL     1      58.891  79.574  63.530  1.00  0.00     0.009 C 
BRANCH  34  35
HETATM   35  C5  UNL     1      58.438  78.645  62.465  1.00  0.00     0.000 C 
BRANCH  35  36
HETATM   36  C4  UNL     1      57.299  77.755  62.939  1.00  0.00     0.000 C 
BRANCH  36  37
HETATM   37  C3  UNL     1      55.960  78.199  62.425  1.00  0.00    -0.000 C 
BRANCH  37  38
HETATM   38  C2  UNL     1      55.110  78.850  63.474  1.00  0.00    -0.005 C 
HETATM   39  C1  UNL     1      54.589  77.762  64.383  1.00  0.00     0.005 C 
ENDBRANCH  37  38
ENDBRANCH  36  37
ENDBRANCH  35  36
ENDBRANCH  34  35
ENDBRANCH  33  34
ENDBRANCH  30  33
ENDBRANCH  26  29
ENDBRANCH   1  26
TORSDOF 12
ENDMDL
MODEL 5
REMARK VINA RESULT: -9.354642109      2.248      2.911
REMARK  12 active torsions:
REMARK  status: ('A' for Active; 'I' for Inactive)
REMARK    1  A    between atoms: C2_2  and  C3_3 
REMARK    2  A    between atoms: C3_3  and  C4_4 
REMARK    3  A    between atoms: C4_4  and  C5_5 
REMARK    4  A    between atoms: C5_5  and  C6_6 
REMARK    5  A    between atoms: C6_6  and  C7_7 
REMARK    6  A    between atoms: C7_7  and  C8_8 
REMARK       I    between atoms: C8_8  and  N1_10 
REMARK    7  A    between atoms: N1_10  and  S1_12 
REMARK    8  A    between atoms: S1_12  and  C9_15 
REMARK    9  A    between atoms: C14_20  and  C15_21 
REMARK   10  A    between atoms: C18_24  and  C19_25 
REMARK   11  A    between atoms: C19_25  and  N2_26 
REMARK   12  A    between atoms: C21_32  and  C22_33 
ROOT
HETATM    1  C9  UNL     1      61.819  84.017  63.668  1.00  0.00     0.090 A 
HETATM    2  C10 UNL     1      61.155  83.430  64.730  1.00  0.00     0.026 A 
HETATM    3  C11 UNL     1      59.792  83.275  64.678  1.00  0.00     0.002 A 
HETATM    4  C12 UNL     1      59.077  83.699  63.582  1.00  0.00     0.001 A 
HETATM    5  C13 UNL     1      59.746  84.282  62.531  1.00  0.00     0.014 A 
HETATM    6  C14 UNL     1      61.138  84.443  62.574  1.00  0.00    -0.003 A 
ENDROOT
BRANCH   6   7
HETATM    7  C15 UNL     1      61.757  85.040  61.416  1.00  0.00    -0.024 A 
HETATM    8  C16 UNL     1      62.085  86.359  61.247  1.00  0.00     0.013 A 
HETATM    9  C17 UNL     1      62.668  86.833  60.083  1.00  0.00     0.010 A 
HETATM   10  C18 UNL     1      62.964  85.990  58.999  1.00  0.00    -0.038 A 
HETATM   11  C26 UNL     1      62.641  84.681  59.167  1.00  0.00     0.010 A 
HETATM   12  C27 UNL     1      62.053  84.207  60.338  1.00  0.00     0.013 A 
BRANCH  10  13
HETATM   13  C19 UNL     1      63.557  86.593  57.799  1.00  0.00     0.189 C 
BRANCH  13  14
HETATM   14  N2  UNL     1      63.674  85.670  56.690  1.00  0.00    -0.270 N 
HETATM   15  N3  UNL     1      64.861  85.033  56.470  1.00  0.00    -0.292 N 
HETATM   16  C20 UNL     1      64.755  84.273  55.392  1.00  0.00     0.199 A 
ATOM     17  H3  UNL     1      65.697  85.127  57.046  1.00  0.00     0.188 HD
HETATM   18  N4  UNL     1      63.513  84.430  54.936  1.00  0.00    -0.335 N 
HETATM   19  C21 UNL     1      62.825  85.311  55.753  1.00  0.00     0.140 A 
ATOM     20  H4  UNL     1      63.127  83.971  54.111  1.00  0.00     0.168 HD
BRANCH  19  21
HETATM   21  C22 UNL     1      61.430  85.660  55.536  1.00  0.00     0.050 A 
HETATM   22  C23 UNL     1      60.529  86.392  56.212  1.00  0.00     0.023 A 
HETATM   23  C24 UNL     1      59.277  86.503  55.727  1.00  0.00     0.009 A 
HETATM   24  C25 UNL     1      59.000  85.855  54.559  1.00  0.00     0.050 A 
HETATM   25  S2  UNL     1      60.481  85.118  54.177  1.00  0.00    -0.098 SA
ENDBRANCH  19  21
ENDBRANCH  13  14
ENDBRANCH  10  13
ENDBRANCH   6   7
BRANCH   1  26
HETATM   26  S1  UNL     1      63.531  84.219  63.811  1.00  0.00     0.266 S 
HETATM   27  O2  UNL     1      64.196  83.629  62.579  1.00  0.00    -0.200 OA
HETATM   28  O3  UNL     1      63.944  85.662  63.879  1.00  0.00    -0.200 OA
BRANCH  26  29
HETATM   29  N1  UNL     1      64.161  83.392  65.203  1.00  0.00    -0.250 N 
HETATM   30  C8  UNL     1      65.584  83.424  65.445  1.00  0.00     0.231 C 
HETATM   31  O1  UNL     1      66.295  84.047  64.644  1.00  0.00    -0.273 OA
ATOM     32  H1  UNL     1      63.538  82.894  65.838  1.00  0.00     0.181 HD
BRANCH  30  33
HETATM   33  C7  UNL     1      66.096  82.721  66.615  1.00  0.00     0.103 C 
BRANCH  33  34
HETATM   34  C6  UNL     1      65.180  81.683  67.149  1.00  0.00     0.009 C 
BRANCH  34  35
HETATM   35  C5  UNL     1      65.201  81.624  68.632  1.00  0.00     0.000 C 
BRANCH  35  36
HETATM   36  C4  UNL     1      63.838  81.266  69.203  1.00  0.00     0.000 C 
BRANCH  36  37
HETATM   37  C3  UNL     1      62.705  81.894  68.444  1.00  0.00    -0.000 C 
BRANCH  37  38
HETATM   38  C2  UNL     1      61.474  82.092  69.276  1.00  0.00    -0.005 C 
HETATM   39  C1  UNL     1      60.328  82.388  68.337  1.00  0.00     0.005 C 
ENDBRANCH  37  38
ENDBRANCH  36  37
ENDBRANCH  35  36
ENDBRANCH  34  35
ENDBRANCH  33  34
ENDBRANCH  30  33
ENDBRANCH  26  29
ENDBRANCH   1  26
TORSDOF 12
ENDMDL
