MODEL 1
REMARK VINA RESULT: -6.899816111      0.000      0.000
REMARK  3 active torsions:
REMARK  status: ('A' for Active; 'I' for Inactive)
REMARK    1  A    between atoms: C2_2  and  C3_3 
REMARK       I    between atoms: C3_3  and  N1_5 
REMARK       I    between atoms: C4_7  and  N2_8 
REMARK       I    between atoms: C4_7  and  N4_15 
REMARK    2  A    between atoms: N2_8  and  S1_10 
REMARK    3  A    between atoms: S1_10  and  N3_11 
REMARK       I    between atoms: N4_15  and  C5_17 
REMARK       I    between atoms: C5_17  and  N5_19 
REMARK       I    between atoms: N5_19  and  C6_21 
ROOT
HETATM    1  C3  UNL     1       4.505  20.122  21.637  1.00  0.00     0.258 C 
HETATM    2  O1  UNL     1       3.378  20.666  21.791  1.00  0.00    -0.268 OA
HETATM    3  N1  UNL     1       5.197  19.366  22.569  1.00  0.00    -0.155 N 
ATOM      4  H1  UNL     1       6.092  19.029  22.215  1.00  0.00     0.187 HD
HETATM    5  C4  UNL     1       4.957  18.968  23.850  1.00  0.00     0.698 C 
HETATM    6  N2  UNL     1       6.032  18.198  24.314  1.00  0.00    -0.121 N 
ATOM      7  H2  UNL     1       5.986  17.831  25.265  1.00  0.00     0.196 HD
HETATM    8  N4  UNL     1       4.039  19.040  24.880  1.00  0.00    -0.140 N 
ATOM      9  H4  UNL     1       4.380  18.524  25.691  1.00  0.00     0.189 HD
HETATM   10  C5  UNL     1       2.800  19.594  25.154  1.00  0.00     0.342 C 
HETATM   11  O3  UNL     1       2.151  20.281  24.334  1.00  0.00    -0.246 OA
HETATM   12  N5  UNL     1       2.145  19.428  26.415  1.00  0.00    -0.263 N 
ATOM     13  H5  UNL     1       1.238  19.889  26.483  1.00  0.00     0.174 HD
HETATM   14  C6  UNL     1       2.532  18.749  27.561  1.00  0.00     0.336 C 
HETATM   15  N6  UNL     1       1.613  18.777  28.694  1.00  0.00    -0.040 NA
HETATM   16  O4  UNL     1       3.570  18.112  27.748  1.00  0.00    -0.251 OA
ENDROOT
BRANCH   6  17
HETATM   17  S1  UNL     1       7.401  17.843  23.387  1.00  0.00     0.229 S 
HETATM   18  O2  UNL     1       7.162  17.055  22.129  1.00  0.00    -0.212 OA
BRANCH  17  19
HETATM   19  N3  UNL     1       8.426  19.235  23.120  1.00  0.00    -0.332 NA
ATOM     20  H32 UNL     1       8.799  19.618  23.989  1.00  0.00     0.168 HD
ATOM     21  H31 UNL     1       9.099  19.096  22.366  1.00  0.00     0.168 HD
ENDBRANCH  17  19
ENDBRANCH   6  17
BRANCH   1  22
HETATM   22  C2  UNL     1       5.074  20.377  20.272  1.00  0.00     0.065 C 
HETATM   23  C1  UNL     1       4.571  21.255  19.485  1.00  0.00     0.017 C 
ENDBRANCH   1  22
TORSDOF 3
ENDMDL
MODEL 2
REMARK VINA RESULT: -6.696835192      3.165      4.727
REMARK  3 active torsions:
REMARK  status: ('A' for Active; 'I' for Inactive)
REMARK    1  A    between atoms: C2_2  and  C3_3 
REMARK       I    between atoms: C3_3  and  N1_5 
REMARK       I    between atoms: C4_7  and  N2_8 
REMARK       I    between atoms: C4_7  and  N4_15 
REMARK    2  A    between atoms: N2_8  and  S1_10 
REMARK    3  A    between atoms: S1_10  and  N3_11 
REMARK       I    between atoms: N4_15  and  C5_17 
REMARK       I    between atoms: C5_17  and  N5_19 
REMARK       I    between atoms: N5_19  and  C6_21 
ROOT
HETATM    1  C3  UNL     1       2.796  21.804  22.296  1.00  0.00     0.258 C 
HETATM    2  O1  UNL     1       2.595  21.444  23.489  1.00  0.00    -0.268 OA
HETATM    3  N1  UNL     1       3.685  21.238  21.397  1.00  0.00    -0.155 N 
ATOM      4  H1  UNL     1       3.671  21.701  20.489  1.00  0.00     0.187 HD
HETATM    5  C4  UNL     1       4.574  20.207  21.447  1.00  0.00     0.698 C 
HETATM    6  N2  UNL     1       5.222  20.082  20.209  1.00  0.00    -0.121 N 
ATOM      7  H2  UNL     1       5.918  19.344  20.103  1.00  0.00     0.196 HD
HETATM    8  N4  UNL     1       5.086  19.223  22.270  1.00  0.00    -0.140 N 
ATOM      9  H4  UNL     1       5.787  18.676  21.770  1.00  0.00     0.189 HD
HETATM   10  C5  UNL     1       4.943  18.748  23.563  1.00  0.00     0.342 C 
HETATM   11  O3  UNL     1       4.150  19.236  24.398  1.00  0.00    -0.246 OA
HETATM   12  N5  UNL     1       5.701  17.643  24.064  1.00  0.00    -0.263 N 
ATOM     13  H5  UNL     1       5.499  17.396  25.033  1.00  0.00     0.174 HD
HETATM   14  C6  UNL     1       6.665  16.849  23.459  1.00  0.00     0.336 C 
HETATM   15  N6  UNL     1       7.253  15.785  24.266  1.00  0.00    -0.040 NA
HETATM   16  O4  UNL     1       7.095  16.928  22.307  1.00  0.00    -0.251 OA
ENDROOT
BRANCH   6  17
HETATM   17  S1  UNL     1       4.913  21.085  18.884  1.00  0.00     0.229 S 
HETATM   18  O2  UNL     1       3.569  20.921  18.228  1.00  0.00    -0.212 OA
BRANCH  17  19
HETATM   19  N3  UNL     1       5.308  22.762  19.188  1.00  0.00    -0.332 NA
ATOM     20  H32 UNL     1       6.038  22.870  19.894  1.00  0.00     0.168 HD
ATOM     21  H31 UNL     1       5.428  23.305  18.333  1.00  0.00     0.168 HD
ENDBRANCH  17  19
ENDBRANCH   6  17
BRANCH   1  22
HETATM   22  C2  UNL     1       1.936  22.969  21.906  1.00  0.00     0.065 C 
HETATM   23  C1  UNL     1       2.205  23.695  20.884  1.00  0.00     0.017 C 
ENDBRANCH   1  22
TORSDOF 3
ENDMDL
MODEL 3
REMARK VINA RESULT: -6.664868249      2.812      5.539
REMARK  3 active torsions:
REMARK  status: ('A' for Active; 'I' for Inactive)
REMARK    1  A    between atoms: C2_2  and  C3_3 
REMARK       I    between atoms: C3_3  and  N1_5 
REMARK       I    between atoms: C4_7  and  N2_8 
REMARK       I    between atoms: C4_7  and  N4_15 
REMARK    2  A    between atoms: N2_8  and  S1_10 
REMARK    3  A    between atoms: S1_10  and  N3_11 
REMARK       I    between atoms: N4_15  and  C5_17 
REMARK       I    between atoms: C5_17  and  N5_19 
REMARK       I    between atoms: N5_19  and  C6_21 
ROOT
HETATM    1  C3  UNL     1       1.468  18.594  22.680  1.00  0.00     0.258 C 
HETATM    2  O1  UNL     1       1.830  18.464  21.478  1.00  0.00    -0.268 OA
HETATM    3  N1  UNL     1       2.291  18.755  23.782  1.00  0.00    -0.155 N 
ATOM      4  H1  UNL     1       1.768  18.840  24.653  1.00  0.00     0.187 HD
HETATM    5  C4  UNL     1       3.639  18.826  23.971  1.00  0.00     0.698 C 
HETATM    6  N2  UNL     1       3.916  18.999  25.334  1.00  0.00    -0.121 N 
ATOM      7  H2  UNL     1       4.892  19.069  25.622  1.00  0.00     0.196 HD
HETATM    8  N4  UNL     1       4.853  18.791  23.315  1.00  0.00    -0.140 N 
ATOM      9  H4  UNL     1       5.617  18.898  23.982  1.00  0.00     0.189 HD
HETATM   10  C5  UNL     1       5.357  18.657  22.032  1.00  0.00     0.342 C 
HETATM   11  O3  UNL     1       4.641  18.510  21.016  1.00  0.00    -0.246 OA
HETATM   12  N5  UNL     1       6.760  18.674  21.751  1.00  0.00    -0.263 N 
ATOM     13  H5  UNL     1       6.995  18.565  20.764  1.00  0.00     0.174 HD
HETATM   14  C6  UNL     1       7.856  18.814  22.590  1.00  0.00     0.336 C 
HETATM   15  N6  UNL     1       9.177  18.788  21.970  1.00  0.00    -0.040 NA
HETATM   16  O4  UNL     1       7.858  18.960  23.813  1.00  0.00    -0.251 OA
ENDROOT
BRANCH   6  17
HETATM   17  S1  UNL     1       2.723  19.097  26.529  1.00  0.00     0.229 S 
HETATM   18  O2  UNL     1       2.007  17.815  26.857  1.00  0.00    -0.212 OA
BRANCH  17  19
HETATM   19  N3  UNL     1       3.256  19.951  27.960  1.00  0.00    -0.332 NA
ATOM     20  H32 UNL     1       3.678  19.329  28.651  1.00  0.00     0.168 HD
ATOM     21  H31 UNL     1       3.775  20.802  27.747  1.00  0.00     0.168 HD
ENDBRANCH  17  19
ENDBRANCH   6  17
BRANCH   1  22
HETATM   22  C2  UNL     1      -0.025  18.557  22.827  1.00  0.00     0.065 C 
HETATM   23  C1  UNL     1      -0.801  19.119  21.976  1.00  0.00     0.017 C 
ENDBRANCH   1  22
TORSDOF 3
ENDMDL
MODEL 4
REMARK VINA RESULT: -6.269448432      3.837      5.257
REMARK  3 active torsions:
REMARK  status: ('A' for Active; 'I' for Inactive)
REMARK    1  A    between atoms: C2_2  and  C3_3 
REMARK       I    between atoms: C3_3  and  N1_5 
REMARK       I    between atoms: C4_7  and  N2_8 
REMARK       I    between atoms: C4_7  and  N4_15 
REMARK    2  A    between atoms: N2_8  and  S1_10 
REMARK    3  A    between atoms: S1_10  and  N3_11 
REMARK       I    between atoms: N4_15  and  C5_17 
REMARK       I    between atoms: C5_17  and  N5_19 
REMARK       I    between atoms: N5_19  and  C6_21 
ROOT
HETATM    1  C3  UNL     1       5.644  21.153  19.239  1.00  0.00     0.258 C 
HETATM    2  O1  UNL     1       6.881  20.905  19.250  1.00  0.00    -0.268 OA
HETATM    3  N1  UNL     1       4.675  20.579  20.046  1.00  0.00    -0.155 N 
ATOM      4  H1  UNL     1       3.741  20.940  19.855  1.00  0.00     0.187 HD
HETATM    5  C4  UNL     1       4.682  19.643  21.036  1.00  0.00     0.698 C 
HETATM    6  N2  UNL     1       3.378  19.447  21.511  1.00  0.00    -0.121 N 
ATOM      7  H2  UNL     1       3.235  18.769  22.259  1.00  0.00     0.196 HD
HETATM    8  N4  UNL     1       5.504  18.801  21.760  1.00  0.00    -0.140 N 
ATOM      9  H4  UNL     1       4.956  18.268  22.434  1.00  0.00     0.189 HD
HETATM   10  C5  UNL     1       6.842  18.454  21.854  1.00  0.00     0.342 C 
HETATM   11  O3  UNL     1       7.740  18.954  21.140  1.00  0.00    -0.246 OA
HETATM   12  N5  UNL     1       7.321  17.481  22.787  1.00  0.00    -0.263 N 
ATOM     13  H5  UNL     1       8.327  17.321  22.751  1.00  0.00     0.174 HD
HETATM   14  C6  UNL     1       6.651  16.718  23.732  1.00  0.00     0.336 C 
HETATM   15  N6  UNL     1       7.453  15.803  24.538  1.00  0.00    -0.040 NA
HETATM   16  O4  UNL     1       5.445  16.713  23.984  1.00  0.00    -0.251 OA
ENDROOT
BRANCH   6  17
HETATM   17  S1  UNL     1       2.029  20.271  20.912  1.00  0.00     0.229 S 
HETATM   18  O2  UNL     1       1.936  21.731  21.262  1.00  0.00    -0.212 OA
BRANCH  17  19
HETATM   19  N3  UNL     1       1.742  19.971  19.212  1.00  0.00    -0.332 NA
ATOM     20  H32 UNL     1       2.487  19.422  18.782  1.00  0.00     0.168 HD
ATOM     21  H31 UNL     1       0.789  19.666  19.016  1.00  0.00     0.168 HD
ENDBRANCH  17  19
ENDBRANCH   6  17
BRANCH   1  22
HETATM   22  C2  UNL     1       5.284  22.188  18.216  1.00  0.00     0.065 C 
HETATM   23  C1  UNL     1       5.619  22.066  16.984  1.00  0.00     0.017 C 
ENDBRANCH   1  22
TORSDOF 3
ENDMDL
MODEL 5
REMARK VINA RESULT: -6.222071834      2.658      5.655
REMARK  3 active torsions:
REMARK  status: ('A' for Active; 'I' for Inactive)
REMARK    1  A    between atoms: C2_2  and  C3_3 
REMARK       I    between atoms: C3_3  and  N1_5 
REMARK       I    between atoms: C4_7  and  N2_8 
REMARK       I    between atoms: C4_7  and  N4_15 
REMARK    2  A    between atoms: N2_8  and  S1_10 
REMARK    3  A    between atoms: S1_10  and  N3_11 
REMARK       I    between atoms: N4_15  and  C5_17 
REMARK       I    between atoms: C5_17  and  N5_19 
REMARK       I    between atoms: N5_19  and  C6_21 
ROOT
HETATM    1  C3  UNL     1       3.072  17.686  24.416  1.00  0.00     0.258 C 
HETATM    2  O1  UNL     1       1.898  18.132  24.297  1.00  0.00    -0.268 OA
HETATM    3  N1  UNL     1       4.119  17.858  23.526  1.00  0.00    -0.155 N 
ATOM      4  H1  UNL     1       4.977  17.404  23.837  1.00  0.00     0.187 HD
HETATM    5  C4  UNL     1       4.267  18.495  22.330  1.00  0.00     0.698 C 
HETATM    6  N2  UNL     1       5.582  18.335  21.870  1.00  0.00    -0.121 N 
ATOM      7  H2  UNL     1       5.835  18.764  20.980  1.00  0.00     0.196 HD
HETATM    8  N4  UNL     1       3.599  19.250  21.386  1.00  0.00    -0.140 N 
ATOM      9  H4  UNL     1       4.226  19.487  20.617  1.00  0.00     0.189 HD
HETATM   10  C5  UNL     1       2.342  19.785  21.158  1.00  0.00     0.342 C 
HETATM   11  O3  UNL     1       1.377  19.648  21.941  1.00  0.00    -0.246 OA
HETATM   12  N5  UNL     1       2.034  20.553  19.990  1.00  0.00    -0.263 N 
ATOM     13  H5  UNL     1       1.071  20.887  19.947  1.00  0.00     0.174 HD
HETATM   14  C6  UNL     1       2.818  20.920  18.907  1.00  0.00     0.336 C 
HETATM   15  N6  UNL     1       2.183  21.721  17.866  1.00  0.00    -0.040 NA
HETATM   16  O4  UNL     1       4.005  20.653  18.707  1.00  0.00    -0.251 OA
ENDROOT
BRANCH   6  17
HETATM   17  S1  UNL     1       6.770  17.472  22.707  1.00  0.00     0.229 S 
HETATM   18  O2  UNL     1       6.429  16.052  23.065  1.00  0.00    -0.212 OA
BRANCH  17  19
HETATM   19  N3  UNL     1       8.358  17.617  21.985  1.00  0.00    -0.332 NA
ATOM     20  H32 UNL     1       8.695  16.733  21.603  1.00  0.00     0.168 HD
ATOM     21  H31 UNL     1       8.447  18.431  21.378  1.00  0.00     0.168 HD
ENDBRANCH  17  19
ENDBRANCH   6  17
BRANCH   1  22
HETATM   22  C2  UNL     1       3.254  16.903  25.682  1.00  0.00     0.065 C 
HETATM   23  C1  UNL     1       2.259  16.567  26.417  1.00  0.00     0.017 C 
ENDBRANCH   1  22
TORSDOF 3
ENDMDL
