MODEL 1
REMARK VINA RESULT: -7.992863264      0.000      0.000
REMARK  2 active torsions:
REMARK  status: ('A' for Active; 'I' for Inactive)
REMARK       I    between atoms: C1_4  and  N3_6 
REMARK    1  A    between atoms: N3_6  and  S1_8 
REMARK    2  A    between atoms: S1_8  and  N4_11 
REMARK       I    between atoms: N5_15  and  C5_16 
ROOT
HETATM    1  N4  UNL     1       2.796  18.635  25.701  1.00  0.00    -0.251 N 
HETATM    2  C2  UNL     1       3.040  19.676  24.801  1.00  0.00     0.084 C 
HETATM    3  C3  UNL     1       4.424  19.778  24.252  1.00  0.00     0.066 C 
HETATM    4  C4  UNL     1       4.802  18.631  23.344  1.00  0.00     0.131 C 
HETATM    5  N5  UNL     1       5.282  17.559  24.195  1.00  0.00    -0.351 N 
HETATM    6  C5  UNL     1       6.425  16.864  23.732  1.00  0.00     0.184 C 
HETATM    7  N6  UNL     1       7.277  16.348  24.583  1.00  0.00    -0.374 N 
ATOM      8  H61 UNL     1       8.101  15.847  24.250  1.00  0.00     0.158 HD
ATOM      9  H62 UNL     1       7.143  16.431  25.591  1.00  0.00     0.158 HD
HETATM   10  N7  UNL     1       6.611  16.750  22.336  1.00  0.00    -0.064 NA
HETATM   11  C6  UNL     1       4.709  17.139  25.452  1.00  0.00     0.171 C 
HETATM   12  C7  UNL     1       3.219  17.337  25.364  1.00  0.00     0.102 C 
ENDROOT
BRANCH   1  13
HETATM   13  S1  UNL     1       2.675  19.009  27.334  1.00  0.00     0.330 S 
HETATM   14  O1  UNL     1       1.521  19.890  27.695  1.00  0.00    -0.182 OA
HETATM   15  O2  UNL     1       3.928  19.740  27.765  1.00  0.00    -0.182 OA
BRANCH  13  16
HETATM   16  N3  UNL     1       2.594  17.570  28.286  1.00  0.00    -0.241 N 
HETATM   17  C1  UNL     1       1.352  16.970  28.636  1.00  0.00     0.196 C 
HETATM   18  N1  UNL     1       0.925  15.973  27.942  1.00  0.00    -0.373 N 
HETATM   19  N2  UNL     1       0.553  17.417  29.724  1.00  0.00    -0.063 NA
ATOM     20  H12 UNL     1       0.035  15.542  28.193  1.00  0.00     0.158 HD
ATOM     21  H11 UNL     1       1.498  15.652  27.162  1.00  0.00     0.158 HD
ATOM     22  H3  UNL     1       3.460  17.138  28.606  1.00  0.00     0.183 HD
ENDBRANCH  13  16
ENDBRANCH   1  13
TORSDOF 2
ENDMDL
MODEL 2
REMARK VINA RESULT: -7.498833604      2.313      5.769
REMARK  2 active torsions:
REMARK  status: ('A' for Active; 'I' for Inactive)
REMARK       I    between atoms: C1_4  and  N3_6 
REMARK    1  A    between atoms: N3_6  and  S1_8 
REMARK    2  A    between atoms: S1_8  and  N4_11 
REMARK       I    between atoms: N5_15  and  C5_16 
ROOT
HETATM    1  N4  UNL     1       4.388  18.524  25.238  1.00  0.00    -0.251 N 
HETATM    2  C2  UNL     1       3.840  19.715  25.723  1.00  0.00     0.084 C 
HETATM    3  C3  UNL     1       2.484  19.628  26.339  1.00  0.00     0.066 C 
HETATM    4  C4  UNL     1       2.455  18.848  27.633  1.00  0.00     0.131 C 
HETATM    5  N5  UNL     1       2.320  17.447  27.280  1.00  0.00    -0.351 N 
HETATM    6  C5  UNL     1       1.431  16.689  28.077  1.00  0.00     0.184 C 
HETATM    7  N6  UNL     1       0.776  15.677  27.563  1.00  0.00    -0.374 N 
ATOM      8  H61 UNL     1       0.135  15.130  28.138  1.00  0.00     0.158 HD
ATOM      9  H62 UNL     1       0.887  15.410  26.584  1.00  0.00     0.158 HD
HETATM   10  N7  UNL     1       1.276  17.059  29.432  1.00  0.00    -0.064 NA
HETATM   11  C6  UNL     1       3.002  16.764  26.206  1.00  0.00     0.171 C 
HETATM   12  C7  UNL     1       4.365  17.385  26.061  1.00  0.00     0.102 C 
ENDROOT
BRANCH   1  13
HETATM   13  S1  UNL     1       4.406  18.277  23.577  1.00  0.00     0.330 S 
HETATM   14  O1  UNL     1       4.935  19.424  22.775  1.00  0.00    -0.182 OA
HETATM   15  O2  UNL     1       2.991  18.033  23.101  1.00  0.00    -0.182 OA
BRANCH  13  16
HETATM   16  N3  UNL     1       5.309  16.859  23.180  1.00  0.00    -0.241 N 
HETATM   17  C1  UNL     1       6.731  16.834  23.237  1.00  0.00     0.196 C 
HETATM   18  N1  UNL     1       7.303  16.336  24.279  1.00  0.00    -0.373 N 
HETATM   19  N2  UNL     1       7.560  17.331  22.195  1.00  0.00    -0.063 NA
ATOM     20  H12 UNL     1       8.322  16.317  24.320  1.00  0.00     0.158 HD
ATOM     21  H11 UNL     1       6.708  15.979  25.026  1.00  0.00     0.158 HD
ATOM     22  H3  UNL     1       4.810  16.017  22.896  1.00  0.00     0.183 HD
ENDBRANCH  13  16
ENDBRANCH   1  13
TORSDOF 2
ENDMDL
MODEL 3
REMARK VINA RESULT: -7.384619610      2.680      5.989
REMARK  2 active torsions:
REMARK  status: ('A' for Active; 'I' for Inactive)
REMARK       I    between atoms: C1_4  and  N3_6 
REMARK    1  A    between atoms: N3_6  and  S1_8 
REMARK    2  A    between atoms: S1_8  and  N4_11 
REMARK       I    between atoms: N5_15  and  C5_16 
ROOT
HETATM    1  N4  UNL     1       4.654  18.510  24.755  1.00  0.00    -0.251 N 
HETATM    2  C2  UNL     1       3.957  19.721  24.802  1.00  0.00     0.084 C 
HETATM    3  C3  UNL     1       2.578  19.681  25.371  1.00  0.00     0.066 C 
HETATM    4  C4  UNL     1       2.541  19.367  26.848  1.00  0.00     0.131 C 
HETATM    5  N5  UNL     1       2.572  17.922  26.975  1.00  0.00    -0.351 N 
HETATM    6  C5  UNL     1       1.711  17.365  27.950  1.00  0.00     0.184 C 
HETATM    7  N6  UNL     1       1.198  16.172  27.780  1.00  0.00    -0.374 N 
ATOM      8  H61 UNL     1       0.578  15.771  28.484  1.00  0.00     0.158 HD
ATOM      9  H62 UNL     1       1.401  15.616  26.949  1.00  0.00     0.158 HD
HETATM   10  N7  UNL     1       1.429  18.135  29.101  1.00  0.00    -0.064 NA
HETATM   11  C6  UNL     1       3.389  17.011  26.209  1.00  0.00     0.171 C 
HETATM   12  C7  UNL     1       4.690  17.706  25.908  1.00  0.00     0.102 C 
ENDROOT
BRANCH   1  13
HETATM   13  S1  UNL     1       4.808  17.740  23.271  1.00  0.00     0.330 S 
HETATM   14  O1  UNL     1       3.543  17.638  22.479  1.00  0.00    -0.182 OA
HETATM   15  O2  UNL     1       5.290  16.324  23.499  1.00  0.00    -0.182 OA
BRANCH  13  16
HETATM   16  N3  UNL     1       6.008  18.517  22.302  1.00  0.00    -0.241 N 
HETATM   17  C1  UNL     1       7.390  18.476  22.641  1.00  0.00     0.196 C 
HETATM   18  N1  UNL     1       8.149  17.615  22.057  1.00  0.00    -0.373 N 
HETATM   19  N2  UNL     1       7.981  19.346  23.598  1.00  0.00    -0.063 NA
ATOM     20  H12 UNL     1       9.140  17.586  22.300  1.00  0.00     0.158 HD
ATOM     21  H11 UNL     1       7.725  16.991  21.370  1.00  0.00     0.158 HD
ATOM     22  H3  UNL     1       5.719  19.019  21.463  1.00  0.00     0.183 HD
ENDBRANCH  13  16
ENDBRANCH   1  13
TORSDOF 2
ENDMDL
MODEL 4
REMARK VINA RESULT: -7.338534312      3.048      6.040
REMARK  2 active torsions:
REMARK  status: ('A' for Active; 'I' for Inactive)
REMARK       I    between atoms: C1_4  and  N3_6 
REMARK    1  A    between atoms: N3_6  and  S1_8 
REMARK    2  A    between atoms: S1_8  and  N4_11 
REMARK       I    between atoms: N5_15  and  C5_16 
ROOT
HETATM    1  N4  UNL     1       3.522  18.585  23.166  1.00  0.00    -0.251 N 
HETATM    2  C2  UNL     1       3.777  17.259  23.532  1.00  0.00     0.084 C 
HETATM    3  C3  UNL     1       4.177  17.019  24.950  1.00  0.00     0.066 C 
HETATM    4  C4  UNL     1       3.076  17.298  25.946  1.00  0.00     0.131 C 
HETATM    5  N5  UNL     1       3.118  18.719  26.236  1.00  0.00    -0.351 N 
HETATM    6  C5  UNL     1       2.940  19.081  27.593  1.00  0.00     0.184 C 
HETATM    7  N6  UNL     1       3.519  20.153  28.076  1.00  0.00    -0.374 N 
ATOM      8  H61 UNL     1       3.391  20.413  29.053  1.00  0.00     0.158 HD
ATOM      9  H62 UNL     1       4.108  20.750  27.495  1.00  0.00     0.158 HD
HETATM   10  N7  UNL     1       2.124  18.254  28.397  1.00  0.00    -0.064 NA
HETATM   11  C6  UNL     1       3.321  19.784  25.282  1.00  0.00     0.171 C 
HETATM   12  C7  UNL     1       2.685  19.363  23.985  1.00  0.00     0.102 C 
ENDROOT
BRANCH   1  13
HETATM   13  S1  UNL     1       4.678  19.391  22.253  1.00  0.00     0.330 S 
HETATM   14  O1  UNL     1       4.378  20.833  21.988  1.00  0.00    -0.182 OA
HETATM   15  O2  UNL     1       4.794  18.719  20.902  1.00  0.00    -0.182 OA
BRANCH  13  16
HETATM   16  N3  UNL     1       6.233  19.275  22.995  1.00  0.00    -0.241 N 
HETATM   17  C1  UNL     1       7.220  18.361  22.531  1.00  0.00     0.196 C 
HETATM   18  N1  UNL     1       8.146  18.790  21.746  1.00  0.00    -0.373 N 
HETATM   19  N2  UNL     1       7.238  16.987  22.896  1.00  0.00    -0.063 NA
ATOM     20  H12 UNL     1       8.854  18.134  21.414  1.00  0.00     0.158 HD
ATOM     21  H11 UNL     1       8.134  19.775  21.485  1.00  0.00     0.158 HD
ATOM     22  H3  UNL     1       6.451  19.879  23.787  1.00  0.00     0.183 HD
ENDBRANCH  13  16
ENDBRANCH   1  13
TORSDOF 2
ENDMDL
MODEL 5
REMARK VINA RESULT: -7.235542557      3.139      6.171
REMARK  2 active torsions:
REMARK  status: ('A' for Active; 'I' for Inactive)
REMARK       I    between atoms: C1_4  and  N3_6 
REMARK    1  A    between atoms: N3_6  and  S1_8 
REMARK    2  A    between atoms: S1_8  and  N4_11 
REMARK       I    between atoms: N5_15  and  C5_16 
ROOT
HETATM    1  N4  UNL     1       4.509  19.438  23.406  1.00  0.00    -0.251 N 
HETATM    2  C2  UNL     1       3.322  20.174  23.363  1.00  0.00     0.084 C 
HETATM    3  C3  UNL     1       2.186  19.666  24.188  1.00  0.00     0.066 C 
HETATM    4  C4  UNL     1       2.430  19.757  25.676  1.00  0.00     0.131 C 
HETATM    5  N5  UNL     1       3.164  18.566  26.059  1.00  0.00    -0.351 N 
HETATM    6  C5  UNL     1       2.764  17.952  27.269  1.00  0.00     0.184 C 
HETATM    7  N6  UNL     1       2.877  16.656  27.426  1.00  0.00    -0.374 N 
ATOM      8  H61 UNL     1       2.589  16.214  28.299  1.00  0.00     0.158 HD
ATOM      9  H62 UNL     1       3.252  16.059  26.688  1.00  0.00     0.158 HD
HETATM   10  N7  UNL     1       2.244  18.779  28.291  1.00  0.00    -0.064 NA
HETATM   11  C6  UNL     1       4.251  17.957  25.329  1.00  0.00     0.171 C 
HETATM   12  C7  UNL     1       5.026  19.060  24.658  1.00  0.00     0.102 C 
ENDROOT
BRANCH   1  13
HETATM   13  S1  UNL     1       4.889  18.469  22.088  1.00  0.00     0.330 S 
HETATM   14  O1  UNL     1       4.751  19.134  20.756  1.00  0.00    -0.182 OA
HETATM   15  O2  UNL     1       3.962  17.273  22.072  1.00  0.00    -0.182 OA
BRANCH  13  16
HETATM   16  N3  UNL     1       6.493  17.844  22.232  1.00  0.00    -0.241 N 
HETATM   17  C1  UNL     1       7.636  18.689  22.179  1.00  0.00     0.196 C 
HETATM   18  N1  UNL     1       8.187  19.062  23.282  1.00  0.00    -0.373 N 
HETATM   19  N2  UNL     1       8.210  19.146  20.961  1.00  0.00    -0.063 NA
ATOM     20  H12 UNL     1       9.007  19.667  23.244  1.00  0.00     0.158 HD
ATOM     21  H11 UNL     1       7.777  18.734  24.157  1.00  0.00     0.158 HD
ATOM     22  H3  UNL     1       6.625  16.841  22.359  1.00  0.00     0.183 HD
ENDBRANCH  13  16
ENDBRANCH   1  13
TORSDOF 2
ENDMDL
