MODEL 1
REMARK VINA RESULT: -7.099638480      0.000      0.000
REMARK  7 active torsions:
REMARK  status: ('A' for Active; 'I' for Inactive)
REMARK    1  A    between atoms: C2_2  and  N1_3 
REMARK    2  A    between atoms: C2_2  and  C3_7 
REMARK    3  A    between atoms: C3_7  and  N2_8 
REMARK    4  A    between atoms: C3_7  and  C5_15 
REMARK       I    between atoms: N2_8  and  C4_10 
REMARK       I    between atoms: C5_15  and  N5_17 
REMARK    5  A    between atoms: N5_17  and  C6_19 
REMARK    6  A    between atoms: C6_19  and  O2_20 
REMARK    7  A    between atoms: C6_19  and  N6_22 
ROOT
HETATM    1  C3  UNL     1       5.592  19.590  23.293  1.00  0.00     0.206 C 
ENDROOT
BRANCH   1   2
HETATM    2  C2  UNL     1       5.377  18.991  21.974  1.00  0.00     0.211 C 
HETATM    3  C1  UNL     1       5.149  19.839  20.787  1.00  0.00     0.042 C 
BRANCH   2   4
HETATM    4  N1  UNL     1       4.343  17.937  22.080  1.00  0.00    -0.073 N 
ATOM      5  H13 UNL     1       4.587  17.115  21.529  1.00  0.00     0.274 HD
ATOM      6  H12 UNL     1       4.338  17.508  23.006  1.00  0.00     0.274 HD
ATOM      7  H11 UNL     1       3.424  18.300  21.828  1.00  0.00     0.274 HD
ENDBRANCH   2   4
ENDBRANCH   1   2
BRANCH   1   8
HETATM    8  N2  UNL     1       6.790  18.918  23.867  1.00  0.00    -0.349 N 
HETATM    9  C4  UNL     1       7.256  17.676  23.412  1.00  0.00     0.182 C 
HETATM   10  N3  UNL     1       7.330  16.696  24.269  1.00  0.00    -0.374 N 
HETATM   11  N4  UNL     1       7.653  17.418  22.071  1.00  0.00    -0.064 NA
ATOM     12  H32 UNL     1       7.045  16.882  25.230  1.00  0.00     0.158 HD
ATOM     13  H31 UNL     1       7.669  15.794  23.937  1.00  0.00     0.158 HD
ATOM     14  H2  UNL     1       7.292  19.380  24.626  1.00  0.00     0.163 HD
ENDBRANCH   1   8
BRANCH   1  15
HETATM   15  C5  UNL     1       4.565  19.573  24.333  1.00  0.00     0.249 C 
HETATM   16  O1  UNL     1       3.428  20.017  23.909  1.00  0.00    -0.271 OA
HETATM   17  N5  UNL     1       4.672  19.160  25.640  1.00  0.00    -0.291 N 
ATOM     18  H5  UNL     1       5.613  18.828  25.854  1.00  0.00     0.172 HD
BRANCH  17  19
HETATM   19  C6  UNL     1       3.829  19.075  26.754  1.00  0.00     0.222 C 
BRANCH  19  20
HETATM   20  O2  UNL     1       4.056  20.047  27.675  1.00  0.00    -0.332 OA
ATOM     21  H2  UNL     1       3.272  20.526  27.919  1.00  0.00     0.220 HD
ENDBRANCH  19  20
BRANCH  19  22
HETATM   22  N6  UNL     1       2.808  18.259  27.185  1.00  0.00    -0.343 N 
HETATM   23  C7  UNL     1       2.661  16.855  26.962  1.00  0.00     0.152 C 
HETATM   24  C8  UNL     1       1.364  16.368  27.703  1.00  0.00     0.187 C 
HETATM   25  O3  UNL     1       1.616  16.706  29.032  1.00  0.00    -0.388 OA
HETATM   26  C9  UNL     1       1.299  18.062  29.140  1.00  0.00     0.187 C 
HETATM   27  C10 UNL     1       1.709  18.886  27.968  1.00  0.00     0.152 C 
ENDBRANCH  19  22
ENDBRANCH  17  19
ENDBRANCH   1  15
TORSDOF 7
ENDMDL
MODEL 2
REMARK VINA RESULT: -7.063507625      1.352      2.554
REMARK  7 active torsions:
REMARK  status: ('A' for Active; 'I' for Inactive)
REMARK    1  A    between atoms: C2_2  and  N1_3 
REMARK    2  A    between atoms: C2_2  and  C3_7 
REMARK    3  A    between atoms: C3_7  and  N2_8 
REMARK    4  A    between atoms: C3_7  and  C5_15 
REMARK       I    between atoms: N2_8  and  C4_10 
REMARK       I    between atoms: C5_15  and  N5_17 
REMARK    5  A    between atoms: N5_17  and  C6_19 
REMARK    6  A    between atoms: C6_19  and  O2_20 
REMARK    7  A    between atoms: C6_19  and  N6_22 
ROOT
HETATM    1  C3  UNL     1       5.784  18.004  23.269  1.00  0.00     0.206 C 
ENDROOT
BRANCH   1   2
HETATM    2  C2  UNL     1       7.244  18.005  23.384  1.00  0.00     0.211 C 
HETATM    3  C1  UNL     1       8.096  18.182  22.191  1.00  0.00     0.042 C 
BRANCH   2   4
HETATM    4  N1  UNL     1       7.672  16.827  24.172  1.00  0.00    -0.073 N 
ATOM      5  H13 UNL     1       8.549  16.441  23.824  1.00  0.00     0.274 HD
ATOM      6  H12 UNL     1       7.979  17.093  25.108  1.00  0.00     0.274 HD
ATOM      7  H11 UNL     1       6.936  16.121  24.203  1.00  0.00     0.274 HD
ENDBRANCH   2   4
ENDBRANCH   1   2
BRANCH   1   8
HETATM    8  N2  UNL     1       5.416  19.287  22.610  1.00  0.00    -0.349 N 
HETATM    9  C4  UNL     1       4.609  19.349  21.465  1.00  0.00     0.182 C 
HETATM   10  N3  UNL     1       5.103  19.908  20.395  1.00  0.00    -0.374 N 
HETATM   11  N4  UNL     1       3.284  18.838  21.395  1.00  0.00    -0.064 NA
ATOM     12  H32 UNL     1       6.054  20.274  20.445  1.00  0.00     0.158 HD
ATOM     13  H31 UNL     1       4.516  19.953  19.563  1.00  0.00     0.158 HD
ATOM     14  H2  UNL     1       5.766  20.158  23.008  1.00  0.00     0.163 HD
ENDBRANCH   1   8
BRANCH   1  15
HETATM   15  C5  UNL     1       4.911  17.868  24.433  1.00  0.00     0.249 C 
HETATM   16  O1  UNL     1       4.358  16.701  24.501  1.00  0.00    -0.271 OA
HETATM   17  N5  UNL     1       4.629  18.794  25.409  1.00  0.00    -0.291 N 
ATOM     18  H5  UNL     1       5.125  19.671  25.250  1.00  0.00     0.172 HD
BRANCH  17  19
HETATM   19  C6  UNL     1       3.839  18.849  26.563  1.00  0.00     0.222 C 
BRANCH  19  20
HETATM   20  O2  UNL     1       4.171  19.871  27.394  1.00  0.00    -0.332 OA
ATOM     21  H2  UNL     1       3.594  19.949  28.145  1.00  0.00     0.220 HD
ENDBRANCH  19  20
BRANCH  19  22
HETATM   22  N6  UNL     1       2.792  18.136  27.103  1.00  0.00    -0.343 N 
HETATM   23  C7  UNL     1       2.574  16.725  27.038  1.00  0.00     0.152 C 
HETATM   24  C8  UNL     1       1.276  16.387  27.856  1.00  0.00     0.187 C 
HETATM   25  O3  UNL     1       1.579  16.854  29.134  1.00  0.00    -0.388 OA
HETATM   26  C9  UNL     1       1.329  18.227  29.100  1.00  0.00     0.187 C 
HETATM   27  C10 UNL     1       1.746  18.898  27.836  1.00  0.00     0.152 C 
ENDBRANCH  19  22
ENDBRANCH  17  19
ENDBRANCH   1  15
TORSDOF 7
ENDMDL
MODEL 3
REMARK VINA RESULT: -7.043197572      0.870      1.431
REMARK  7 active torsions:
REMARK  status: ('A' for Active; 'I' for Inactive)
REMARK    1  A    between atoms: C2_2  and  N1_3 
REMARK    2  A    between atoms: C2_2  and  C3_7 
REMARK    3  A    between atoms: C3_7  and  N2_8 
REMARK    4  A    between atoms: C3_7  and  C5_15 
REMARK       I    between atoms: N2_8  and  C4_10 
REMARK       I    between atoms: C5_15  and  N5_17 
REMARK    5  A    between atoms: N5_17  and  C6_19 
REMARK    6  A    between atoms: C6_19  and  O2_20 
REMARK    7  A    between atoms: C6_19  and  N6_22 
ROOT
HETATM    1  C3  UNL     1       5.217  19.481  23.717  1.00  0.00     0.206 C 
ENDROOT
BRANCH   1   2
HETATM    2  C2  UNL     1       4.883  19.089  22.346  1.00  0.00     0.211 C 
HETATM    3  C1  UNL     1       4.544  20.106  21.331  1.00  0.00     0.042 C 
BRANCH   2   4
HETATM    4  N1  UNL     1       3.869  18.013  22.379  1.00  0.00    -0.073 N 
ATOM      5  H13 UNL     1       2.928  18.387  22.503  1.00  0.00     0.274 HD
ATOM      6  H12 UNL     1       3.746  17.583  21.462  1.00  0.00     0.274 HD
ATOM      7  H11 UNL     1       4.094  17.319  23.092  1.00  0.00     0.274 HD
ENDBRANCH   2   4
ENDBRANCH   1   2
BRANCH   1   8
HETATM    8  N2  UNL     1       6.286  18.550  24.170  1.00  0.00    -0.349 N 
HETATM    9  C4  UNL     1       7.483  18.365  23.462  1.00  0.00     0.182 C 
HETATM   10  N3  UNL     1       7.771  17.162  23.048  1.00  0.00    -0.374 N 
HETATM   11  N4  UNL     1       8.402  19.408  23.165  1.00  0.00    -0.064 NA
ATOM     12  H32 UNL     1       7.111  16.414  23.262  1.00  0.00     0.158 HD
ATOM     13  H31 UNL     1       8.641  17.028  22.534  1.00  0.00     0.158 HD
ATOM     14  H2  UNL     1       6.143  18.025  25.033  1.00  0.00     0.163 HD
ENDBRANCH   1   8
BRANCH   1  15
HETATM   15  C5  UNL     1       4.216  19.516  24.782  1.00  0.00     0.249 C 
HETATM   16  O1  UNL     1       3.102  20.045  24.394  1.00  0.00    -0.271 OA
HETATM   17  N5  UNL     1       4.325  19.072  26.079  1.00  0.00    -0.291 N 
ATOM     18  H5  UNL     1       5.244  18.672  26.264  1.00  0.00     0.172 HD
BRANCH  17  19
HETATM   19  C6  UNL     1       3.504  19.025  27.211  1.00  0.00     0.222 C 
BRANCH  19  20
HETATM   20  O2  UNL     1       3.497  20.185  27.919  1.00  0.00    -0.332 OA
ATOM     21  H2  UNL     1       4.347  20.414  28.276  1.00  0.00     0.220 HD
ENDBRANCH  19  20
BRANCH  19  22
HETATM   22  N6  UNL     1       2.681  18.106  27.823  1.00  0.00    -0.343 N 
HETATM   23  C7  UNL     1       1.611  18.365  28.734  1.00  0.00     0.152 C 
HETATM   24  C8  UNL     1       0.936  16.997  29.107  1.00  0.00     0.187 C 
HETATM   25  O3  UNL     1       0.519  16.505  27.871  1.00  0.00    -0.388 OA
HETATM   26  C9  UNL     1       1.649  15.915  27.303  1.00  0.00     0.187 C 
HETATM   27  C10 UNL     1       2.916  16.667  27.527  1.00  0.00     0.152 C 
ENDBRANCH  19  22
ENDBRANCH  17  19
ENDBRANCH   1  15
TORSDOF 7
ENDMDL
MODEL 4
REMARK VINA RESULT: -6.991385706      2.560      6.017
REMARK  7 active torsions:
REMARK  status: ('A' for Active; 'I' for Inactive)
REMARK    1  A    between atoms: C2_2  and  N1_3 
REMARK    2  A    between atoms: C2_2  and  C3_7 
REMARK    3  A    between atoms: C3_7  and  N2_8 
REMARK    4  A    between atoms: C3_7  and  C5_15 
REMARK       I    between atoms: N2_8  and  C4_10 
REMARK       I    between atoms: C5_15  and  N5_17 
REMARK    5  A    between atoms: N5_17  and  C6_19 
REMARK    6  A    between atoms: C6_19  and  O2_20 
REMARK    7  A    between atoms: C6_19  and  N6_22 
ROOT
HETATM    1  C3  UNL     1       4.249  17.309  24.481  1.00  0.00     0.206 C 
ENDROOT
BRANCH   1   2
HETATM    2  C2  UNL     1       3.699  17.364  25.837  1.00  0.00     0.211 C 
HETATM    3  C1  UNL     1       2.591  16.475  26.239  1.00  0.00     0.042 C 
BRANCH   2   4
HETATM    4  N1  UNL     1       3.406  18.771  26.188  1.00  0.00    -0.073 N 
ATOM      5  H13 UNL     1       3.674  18.983  27.148  1.00  0.00     0.274 HD
ATOM      6  H12 UNL     1       4.032  19.417  25.705  1.00  0.00     0.274 HD
ATOM      7  H11 UNL     1       2.426  18.996  26.013  1.00  0.00     0.274 HD
ENDBRANCH   2   4
ENDBRANCH   1   2
BRANCH   1   8
HETATM    8  N2  UNL     1       5.716  17.520  24.615  1.00  0.00    -0.349 N 
HETATM    9  C4  UNL     1       6.661  16.754  23.918  1.00  0.00     0.182 C 
HETATM   10  N3  UNL     1       7.540  16.084  24.612  1.00  0.00    -0.374 N 
HETATM   11  N4  UNL     1       6.722  16.659  22.501  1.00  0.00    -0.064 NA
ATOM     12  H32 UNL     1       7.496  16.152  25.629  1.00  0.00     0.158 HD
ATOM     13  H31 UNL     1       8.227  15.526  24.105  1.00  0.00     0.158 HD
ATOM     14  H2  UNL     1       6.048  18.254  25.241  1.00  0.00     0.163 HD
ENDBRANCH   1   8
BRANCH   1  15
HETATM   15  C5  UNL     1       3.794  18.206  23.419  1.00  0.00     0.249 C 
HETATM   16  O1  UNL     1       2.505  18.265  23.343  1.00  0.00    -0.271 OA
HETATM   17  N5  UNL     1       4.546  18.950  22.542  1.00  0.00    -0.291 N 
ATOM     18  H5  UNL     1       5.545  18.825  22.703  1.00  0.00     0.172 HD
BRANCH  17  19
HETATM   19  C6  UNL     1       4.300  19.836  21.487  1.00  0.00     0.222 C 
BRANCH  19  20
HETATM   20  O2  UNL     1       4.869  19.449  20.316  1.00  0.00    -0.332 OA
ATOM     21  H2  UNL     1       5.132  20.178  19.765  1.00  0.00     0.220 HD
ENDBRANCH  19  20
BRANCH  19  22
HETATM   22  N6  UNL     1       3.624  21.021  21.302  1.00  0.00    -0.343 N 
HETATM   23  C7  UNL     1       3.079  21.879  22.307  1.00  0.00     0.152 C 
HETATM   24  C8  UNL     1       2.456  23.136  21.601  1.00  0.00     0.187 C 
HETATM   25  O3  UNL     1       3.542  23.683  20.918  1.00  0.00    -0.388 OA
HETATM   26  C9  UNL     1       3.654  22.943  19.740  1.00  0.00     0.187 C 
HETATM   27  C10 UNL     1       3.411  21.482  19.904  1.00  0.00     0.152 C 
ENDBRANCH  19  22
ENDBRANCH  17  19
ENDBRANCH   1  15
TORSDOF 7
ENDMDL
MODEL 5
REMARK VINA RESULT: -6.952183826      2.682      5.984
REMARK  7 active torsions:
REMARK  status: ('A' for Active; 'I' for Inactive)
REMARK    1  A    between atoms: C2_2  and  N1_3 
REMARK    2  A    between atoms: C2_2  and  C3_7 
REMARK    3  A    between atoms: C3_7  and  N2_8 
REMARK    4  A    between atoms: C3_7  and  C5_15 
REMARK       I    between atoms: N2_8  and  C4_10 
REMARK       I    between atoms: C5_15  and  N5_17 
REMARK    5  A    between atoms: N5_17  and  C6_19 
REMARK    6  A    between atoms: C6_19  and  O2_20 
REMARK    7  A    between atoms: C6_19  and  N6_22 
ROOT
HETATM    1  C3  UNL     1       4.476  18.035  24.392  1.00  0.00     0.206 C 
ENDROOT
BRANCH   1   2
HETATM    2  C2  UNL     1       4.095  17.534  25.714  1.00  0.00     0.211 C 
HETATM    3  C1  UNL     1       2.866  16.735  25.893  1.00  0.00     0.042 C 
BRANCH   2   4
HETATM    4  N1  UNL     1       4.154  18.644  26.691  1.00  0.00    -0.073 N 
ATOM      5  H13 UNL     1       3.470  18.524  27.438  1.00  0.00     0.274 HD
ATOM      6  H12 UNL     1       5.005  18.605  27.253  1.00  0.00     0.274 HD
ATOM      7  H11 UNL     1       4.051  19.546  26.227  1.00  0.00     0.274 HD
ENDBRANCH   2   4
ENDBRANCH   1   2
BRANCH   1   8
HETATM    8  N2  UNL     1       5.959  17.922  24.313  1.00  0.00    -0.349 N 
HETATM    9  C4  UNL     1       6.611  16.747  23.913  1.00  0.00     0.182 C 
HETATM   10  N3  UNL     1       7.450  16.197  24.746  1.00  0.00    -0.374 N 
HETATM   11  N4  UNL     1       6.414  16.116  22.654  1.00  0.00    -0.064 NA
ATOM     12  H32 UNL     1       7.591  16.650  25.649  1.00  0.00     0.158 HD
ATOM     13  H31 UNL     1       7.924  15.343  24.455  1.00  0.00     0.158 HD
ATOM     14  H2  UNL     1       6.524  18.735  24.561  1.00  0.00     0.163 HD
ENDBRANCH   1   8
BRANCH   1  15
HETATM   15  C5  UNL     1       4.137  19.385  23.942  1.00  0.00     0.249 C 
HETATM   16  O1  UNL     1       5.075  20.238  24.196  1.00  0.00    -0.271 OA
HETATM   17  N5  UNL     1       2.994  19.820  23.316  1.00  0.00    -0.291 N 
ATOM     18  H5  UNL     1       2.333  19.058  23.167  1.00  0.00     0.172 HD
BRANCH  17  19
HETATM   19  C6  UNL     1       2.499  21.036  22.829  1.00  0.00     0.222 C 
BRANCH  19  20
HETATM   20  O2  UNL     1       1.552  21.591  23.629  1.00  0.00    -0.332 OA
ATOM     21  H2  UNL     1       0.666  21.463  23.308  1.00  0.00     0.220 HD
ENDBRANCH  19  20
BRANCH  19  22
HETATM   22  N6  UNL     1       2.712  21.845  21.736  1.00  0.00    -0.343 N 
HETATM   23  C7  UNL     1       2.562  23.265  21.660  1.00  0.00     0.152 C 
HETATM   24  C8  UNL     1       2.979  23.731  20.219  1.00  0.00     0.187 C 
HETATM   25  O3  UNL     1       4.300  23.297  20.119  1.00  0.00    -0.388 OA
HETATM   26  C9  UNL     1       4.224  21.945  19.776  1.00  0.00     0.187 C 
HETATM   27  C10 UNL     1       3.140  21.193  20.469  1.00  0.00     0.152 C 
ENDBRANCH  19  22
ENDBRANCH  17  19
ENDBRANCH   1  15
TORSDOF 7
ENDMDL
