MODEL 1
REMARK VINA RESULT: -6.731676910      0.000      0.000
REMARK  4 active torsions:
REMARK  status: ('A' for Active; 'I' for Inactive)
REMARK    1  A    between atoms: C1_2  and  C2_4 
REMARK    2  A    between atoms: C2_4  and  N2_5 
REMARK       I    between atoms: N2_5  and  C3_7 
REMARK    3  A    between atoms: C3_7  and  C4_9 
REMARK       I    between atoms: C4_9  and  N3_11 
REMARK    4  A    between atoms: C5_13  and  N4_14 
ROOT
HETATM    1  N2  UNL     1       4.504  19.675  22.968  1.00  0.00    -0.335 N 
ATOM      2  H2  UNL     1       4.453  20.643  23.285  1.00  0.00     0.164 HD
HETATM    3  C3  UNL     1       4.464  19.429  21.583  1.00  0.00     0.310 C 
HETATM    4  O2  UNL     1       4.529  18.218  21.180  1.00  0.00    -0.262 OA
ENDROOT
BRANCH   3   5
HETATM    5  C4  UNL     1       4.353  20.487  20.594  1.00  0.00     0.314 C 
HETATM    6  O3  UNL     1       3.534  21.410  20.755  1.00  0.00    -0.262 OA
HETATM    7  N3  UNL     1       5.174  20.464  19.454  1.00  0.00    -0.315 N 
HETATM    8  C5  UNL     1       5.677  21.576  19.043  1.00  0.00     0.185 C 
ATOM      9  H3  UNL     1       5.367  19.590  18.965  1.00  0.00     0.170 HD
BRANCH   8  10
HETATM   10  N4  UNL     1       6.508  21.571  17.893  1.00  0.00    -0.329 N 
HETATM   11  C6  UNL     1       7.709  21.166  18.008  1.00  0.00     0.201 C 
HETATM   12  N5  UNL     1       8.203  20.732  19.253  1.00  0.00    -0.066 NA
HETATM   13  N6  UNL     1       8.559  21.150  16.879  1.00  0.00    -0.066 NA
ATOM     14  H4  UNL     1       6.149  21.885  16.992  1.00  0.00     0.168 HD
ENDBRANCH   8  10
ENDBRANCH   3   5
BRANCH   1  15
HETATM   15  C2  UNL     1       4.611  18.639  23.963  1.00  0.00     0.112 C 
HETATM   16  C7  UNL     1       3.544  17.605  23.854  1.00  0.00     0.040 C 
HETATM   17  C8  UNL     1       2.908  17.461  25.206  1.00  0.00     0.003 C 
HETATM   18  C9  UNL     1       3.860  18.131  26.160  1.00  0.00     0.003 C 
HETATM   19  C10 UNL     1       4.479  19.223  25.342  1.00  0.00     0.040 C 
BRANCH  15  20
HETATM   20  C1  UNL     1       5.987  18.015  23.904  1.00  0.00     0.259 C 
HETATM   21  N1  UNL     1       6.205  16.638  23.796  1.00  0.00    -0.060 NA
HETATM   22  O1  UNL     1       6.956  18.842  23.959  1.00  0.00    -0.274 OA
ENDBRANCH  15  20
ENDBRANCH   1  15
TORSDOF 4
ENDMDL
MODEL 2
REMARK VINA RESULT: -6.636902763      2.597      4.155
REMARK  4 active torsions:
REMARK  status: ('A' for Active; 'I' for Inactive)
REMARK    1  A    between atoms: C1_2  and  C2_4 
REMARK    2  A    between atoms: C2_4  and  N2_5 
REMARK       I    between atoms: N2_5  and  C3_7 
REMARK    3  A    between atoms: C3_7  and  C4_9 
REMARK       I    between atoms: C4_9  and  N3_11 
REMARK    4  A    between atoms: C5_13  and  N4_14 
ROOT
HETATM    1  N2  UNL     1       4.834  18.495  25.334  1.00  0.00    -0.335 N 
ATOM      2  H2  UNL     1       5.549  19.207  25.479  1.00  0.00     0.164 HD
HETATM    3  C3  UNL     1       5.194  17.326  24.640  1.00  0.00     0.310 C 
HETATM    4  O2  UNL     1       4.301  16.429  24.457  1.00  0.00    -0.262 OA
ENDROOT
BRANCH   3   5
HETATM    5  C4  UNL     1       6.532  17.092  24.124  1.00  0.00     0.314 C 
HETATM    6  O3  UNL     1       7.145  16.052  24.427  1.00  0.00    -0.262 OA
HETATM    7  N3  UNL     1       7.131  18.044  23.283  1.00  0.00    -0.315 N 
HETATM    8  C5  UNL     1       7.811  17.622  22.273  1.00  0.00     0.185 C 
ATOM      9  H3  UNL     1       7.032  19.042  23.467  1.00  0.00     0.170 HD
BRANCH   8  10
HETATM   10  N4  UNL     1       8.422  18.570  21.413  1.00  0.00    -0.329 N 
HETATM   11  C6  UNL     1       7.683  19.392  20.783  1.00  0.00     0.201 C 
HETATM   12  N5  UNL     1       6.284  19.359  20.936  1.00  0.00    -0.066 NA
HETATM   13  N6  UNL     1       8.266  20.347  19.919  1.00  0.00    -0.066 NA
ATOM     14  H4  UNL     1       9.436  18.593  21.303  1.00  0.00     0.168 HD
ENDBRANCH   8  10
ENDBRANCH   3   5
BRANCH   1  15
HETATM   15  C2  UNL     1       3.512  18.746  25.850  1.00  0.00     0.112 C 
HETATM   16  C7  UNL     1       3.492  19.744  26.956  1.00  0.00     0.040 C 
HETATM   17  C8  UNL     1       2.747  19.135  28.108  1.00  0.00     0.003 C 
HETATM   18  C9  UNL     1       2.024  17.950  27.524  1.00  0.00     0.003 C 
HETATM   19  C10 UNL     1       2.927  17.485  26.424  1.00  0.00     0.040 C 
BRANCH  15  20
HETATM   20  C1  UNL     1       2.592  19.158  24.723  1.00  0.00     0.259 C 
HETATM   21  N1  UNL     1       1.769  18.262  24.034  1.00  0.00    -0.060 NA
HETATM   22  O1  UNL     1       2.616  20.400  24.436  1.00  0.00    -0.274 OA
ENDBRANCH  15  20
ENDBRANCH   1  15
TORSDOF 4
ENDMDL
MODEL 3
REMARK VINA RESULT: -6.593124942      3.821      7.878
REMARK  4 active torsions:
REMARK  status: ('A' for Active; 'I' for Inactive)
REMARK    1  A    between atoms: C1_2  and  C2_4 
REMARK    2  A    between atoms: C2_4  and  N2_5 
REMARK       I    between atoms: N2_5  and  C3_7 
REMARK    3  A    between atoms: C3_7  and  C4_9 
REMARK       I    between atoms: C4_9  and  N3_11 
REMARK    4  A    between atoms: C5_13  and  N4_14 
ROOT
HETATM    1  N2  UNL     1       2.481  19.797  23.637  1.00  0.00    -0.335 N 
ATOM      2  H2  UNL     1       1.574  19.518  24.012  1.00  0.00     0.164 HD
HETATM    3  C3  UNL     1       3.638  19.332  24.287  1.00  0.00     0.310 C 
HETATM    4  O2  UNL     1       4.777  19.678  23.820  1.00  0.00    -0.262 OA
ENDROOT
BRANCH   3   5
HETATM    5  C4  UNL     1       3.598  18.478  25.461  1.00  0.00     0.314 C 
HETATM    6  O3  UNL     1       4.474  17.610  25.632  1.00  0.00    -0.262 OA
HETATM    7  N3  UNL     1       2.566  18.633  26.401  1.00  0.00    -0.315 N 
HETATM    8  C5  UNL     1       2.864  18.549  27.652  1.00  0.00     0.185 C 
ATOM      9  H3  UNL     1       1.607  18.808  26.102  1.00  0.00     0.170 HD
BRANCH   8  10
HETATM   10  N4  UNL     1       1.834  18.704  28.614  1.00  0.00    -0.329 N 
HETATM   11  C6  UNL     1       1.127  17.692  28.923  1.00  0.00     0.201 C 
HETATM   12  N5  UNL     1       1.363  16.442  28.318  1.00  0.00    -0.066 NA
HETATM   13  N6  UNL     1       0.093  17.817  29.878  1.00  0.00    -0.066 NA
ATOM     14  H4  UNL     1       1.664  19.609  29.052  1.00  0.00     0.168 HD
ENDBRANCH   8  10
ENDBRANCH   3   5
BRANCH   1  15
HETATM   15  C2  UNL     1       2.501  20.647  22.473  1.00  0.00     0.112 C 
HETATM   16  C7  UNL     1       3.368  21.847  22.636  1.00  0.00     0.040 C 
HETATM   17  C8  UNL     1       2.550  23.053  22.276  1.00  0.00     0.003 C 
HETATM   18  C9  UNL     1       1.348  22.509  21.550  1.00  0.00     0.003 C 
HETATM   19  C10 UNL     1       1.121  21.171  22.185  1.00  0.00     0.040 C 
BRANCH  15  20
HETATM   20  C1  UNL     1       2.904  19.840  21.259  1.00  0.00     0.259 C 
HETATM   21  N1  UNL     1       4.062  20.091  20.517  1.00  0.00    -0.060 NA
HETATM   22  O1  UNL     1       2.103  18.896  20.951  1.00  0.00    -0.274 OA
ENDBRANCH  15  20
ENDBRANCH   1  15
TORSDOF 4
ENDMDL
MODEL 4
REMARK VINA RESULT: -6.578559398      3.765      7.739
REMARK  4 active torsions:
REMARK  status: ('A' for Active; 'I' for Inactive)
REMARK    1  A    between atoms: C1_2  and  C2_4 
REMARK    2  A    between atoms: C2_4  and  N2_5 
REMARK       I    between atoms: N2_5  and  C3_7 
REMARK    3  A    between atoms: C3_7  and  C4_9 
REMARK       I    between atoms: C4_9  and  N3_11 
REMARK    4  A    between atoms: C5_13  and  N4_14 
ROOT
HETATM    1  N2  UNL     1       2.509  18.590  22.788  1.00  0.00    -0.335 N 
ATOM      2  H2  UNL     1       2.051  17.728  22.492  1.00  0.00     0.164 HD
HETATM    3  C3  UNL     1       3.198  18.588  24.014  1.00  0.00     0.310 C 
HETATM    4  O2  UNL     1       3.775  19.666  24.388  1.00  0.00    -0.262 OA
ENDROOT
BRANCH   3   5
HETATM    5  C4  UNL     1       3.283  17.419  24.872  1.00  0.00     0.314 C 
HETATM    6  O3  UNL     1       4.215  16.606  24.729  1.00  0.00    -0.262 OA
HETATM    7  N3  UNL     1       2.310  17.209  25.863  1.00  0.00    -0.315 N 
HETATM    8  C5  UNL     1       2.695  16.773  27.013  1.00  0.00     0.185 C 
ATOM      9  H3  UNL     1       1.325  17.395  25.677  1.00  0.00     0.170 HD
BRANCH   8  10
HETATM   10  N4  UNL     1       1.725  16.556  28.024  1.00  0.00    -0.329 N 
HETATM   11  C6  UNL     1       1.387  17.531  28.769  1.00  0.00     0.201 C 
HETATM   12  N5  UNL     1       1.967  18.802  28.591  1.00  0.00    -0.066 NA
HETATM   13  N6  UNL     1       0.423  17.342  29.785  1.00  0.00    -0.066 NA
ATOM     14  H4  UNL     1       1.306  15.635  28.152  1.00  0.00     0.168 HD
ENDBRANCH   8  10
ENDBRANCH   3   5
BRANCH   1  15
HETATM   15  C2  UNL     1       2.412  19.740  21.924  1.00  0.00     0.112 C 
HETATM   16  C7  UNL     1       1.807  20.926  22.591  1.00  0.00     0.040 C 
HETATM   17  C8  UNL     1       0.688  21.419  21.720  1.00  0.00     0.003 C 
HETATM   18  C9  UNL     1       0.904  20.749  20.389  1.00  0.00     0.003 C 
HETATM   19  C10 UNL     1       1.529  19.436  20.745  1.00  0.00     0.040 C 
BRANCH  15  20
HETATM   20  C1  UNL     1       3.774  20.066  21.354  1.00  0.00     0.259 C 
HETATM   21  N1  UNL     1       4.592  19.123  20.726  1.00  0.00    -0.060 NA
HETATM   22  O1  UNL     1       4.134  21.283  21.484  1.00  0.00    -0.274 OA
ENDBRANCH  15  20
ENDBRANCH   1  15
TORSDOF 4
ENDMDL
MODEL 5
REMARK VINA RESULT: -6.524922776      3.720      6.197
REMARK  4 active torsions:
REMARK  status: ('A' for Active; 'I' for Inactive)
REMARK    1  A    between atoms: C1_2  and  C2_4 
REMARK    2  A    between atoms: C2_4  and  N2_5 
REMARK       I    between atoms: N2_5  and  C3_7 
REMARK    3  A    between atoms: C3_7  and  C4_9 
REMARK       I    between atoms: C4_9  and  N3_11 
REMARK    4  A    between atoms: C5_13  and  N4_14 
ROOT
HETATM    1  N2  UNL     1       2.059  20.110  21.106  1.00  0.00    -0.335 N 
ATOM      2  H2  UNL     1       2.714  20.451  20.401  1.00  0.00     0.164 HD
HETATM    3  C3  UNL     1       2.528  19.947  22.422  1.00  0.00     0.310 C 
HETATM    4  O2  UNL     1       1.712  19.523  23.309  1.00  0.00    -0.262 OA
ENDROOT
BRANCH   3   5
HETATM    5  C4  UNL     1       3.895  20.239  22.817  1.00  0.00     0.314 C 
HETATM    6  O3  UNL     1       4.224  21.401  23.119  1.00  0.00    -0.262 OA
HETATM    7  N3  UNL     1       4.846  19.205  22.856  1.00  0.00    -0.315 N 
HETATM    8  C5  UNL     1       5.685  19.186  23.833  1.00  0.00     0.185 C 
ATOM      9  H3  UNL     1       4.871  18.489  22.131  1.00  0.00     0.170 HD
BRANCH   8  10
HETATM   10  N4  UNL     1       6.651  18.149  23.887  1.00  0.00    -0.329 N 
HETATM   11  C6  UNL     1       6.259  16.956  24.093  1.00  0.00     0.201 C 
HETATM   12  N5  UNL     1       4.890  16.672  24.264  1.00  0.00    -0.066 NA
HETATM   13  N6  UNL     1       7.200  15.903  24.153  1.00  0.00    -0.066 NA
ATOM     14  H4  UNL     1       7.642  18.356  23.764  1.00  0.00     0.168 HD
ENDBRANCH   8  10
ENDBRANCH   3   5
BRANCH   1  15
HETATM   15  C2  UNL     1       0.708  19.824  20.695  1.00  0.00     0.112 C 
HETATM   16  C7  UNL     1       0.231  18.484  21.135  1.00  0.00     0.040 C 
HETATM   17  C8  UNL     1      -0.308  17.772  19.929  1.00  0.00     0.003 C 
HETATM   18  C9  UNL     1      -0.483  18.845  18.886  1.00  0.00     0.003 C 
HETATM   19  C10 UNL     1       0.606  19.825  19.195  1.00  0.00     0.040 C 
BRANCH  15  20
HETATM   20  C1  UNL     1      -0.215  20.921  21.177  1.00  0.00     0.259 C 
HETATM   21  N1  UNL     1      -1.339  20.686  21.975  1.00  0.00    -0.060 NA
HETATM   22  O1  UNL     1       0.105  22.097  20.802  1.00  0.00    -0.274 OA
ENDBRANCH  15  20
ENDBRANCH   1  15
TORSDOF 4
ENDMDL
