MODEL 1
REMARK VINA RESULT: -8.254314685      0.000      0.000
REMARK  11 active torsions:
REMARK  status: ('A' for Active; 'I' for Inactive)
REMARK    1  A    between atoms: N1_1  and  C1_5 
REMARK    2  A    between atoms: C1_5  and  C2_6 
REMARK    3  A    between atoms: C2_6  and  N2_7 
REMARK    4  A    between atoms: N2_7  and  C3_9 
REMARK    5  A    between atoms: N3_13  and  C6_14 
REMARK    6  A    between atoms: C6_14  and  O2_15 
REMARK    7  A    between atoms: O2_15  and  C7_16 
REMARK    8  A    between atoms: C7_16  and  N4_17 
REMARK    9  A    between atoms: C8_20  and  N5_21 
REMARK   10  A    between atoms: N5_21  and  C9_23 
REMARK   11  A    between atoms: N8_31  and  O5_32 
ROOT
HETATM    1  C3  UNL     1      23.733  50.082   6.243  1.00  0.00     0.122 A 
HETATM    2  C4  UNL     1      22.656  50.605   5.561  1.00  0.00     0.123 A 
HETATM    3  C5  UNL     1      21.723  49.754   5.004  1.00  0.00     0.267 A 
HETATM    4  O1  UNL     1      20.715  50.203   4.366  1.00  0.00    -0.267 OA
HETATM    5  N3  UNL     1      21.832  48.418   5.110  1.00  0.00    -0.125 N 
HETATM    6  C8  UNL     1      22.893  47.925   5.783  1.00  0.00     0.691 A 
HETATM    7  N9  UNL     1      23.815  48.734   6.332  1.00  0.00    -0.176 N 
ATOM      8  H9  UNL     1      24.601  48.318   6.832  1.00  0.00     0.186 HD
ENDROOT
BRANCH   6   9
HETATM    9  N5  UNL     1      22.989  46.649   5.878  1.00  0.00    -0.191 N 
ATOM     10  H5  UNL     1      23.237  46.119   5.042  1.00  0.00     0.184 HD
BRANCH   9  11
HETATM   11  C9  UNL     1      22.770  45.935   7.085  1.00  0.00     0.051 A 
HETATM   12  C10 UNL     1      23.036  46.509   8.304  1.00  0.00     0.032 A 
HETATM   13  C11 UNL     1      22.839  45.856   9.503  1.00  0.00     0.036 A 
HETATM   14  C12 UNL     1      22.352  44.563   9.470  1.00  0.00     0.080 A 
HETATM   15  N6  UNL     1      22.042  43.639  10.414  1.00  0.00    -0.282 N 
HETATM   16  C13 UNL     1      22.069  43.940   8.271  1.00  0.00     0.113 A 
HETATM   17  N7  UNL     1      21.601  42.530   9.824  1.00  0.00    -0.215 N 
ATOM     18  H6  UNL     1      22.134  43.774  11.421  1.00  0.00     0.188 HD
HETATM   19  N8  UNL     1      21.609  42.692   8.532  1.00  0.00    -0.147 N 
ATOM     20  H7  UNL     1      21.302  41.684  10.309  1.00  0.00     0.211 HD
HETATM   21  C14 UNL     1      22.281  44.635   7.083  1.00  0.00     0.066 A 
BRANCH  19  22
HETATM   22  O5  UNL     1      21.237  41.813   7.525  1.00  0.00    -0.266 OA
ATOM     23  H5  UNL     1      20.371  41.577   7.214  1.00  0.00     0.247 HD
ENDBRANCH  19  22
ENDBRANCH   9  11
ENDBRANCH   6   9
BRANCH   5  24
HETATM   24  C6  UNL     1      20.840  47.556   4.519  1.00  0.00     0.323 C 
BRANCH  24  25
HETATM   25  O2  UNL     1      19.866  47.259   5.464  1.00  0.00    -0.346 OA
BRANCH  25  26
HETATM   26  C7  UNL     1      18.594  47.584   5.038  1.00  0.00     0.371 C 
BRANCH  26  27
HETATM   27  N4  UNL     1      17.763  47.798   6.208  1.00  0.00    -0.131 N 
HETATM   28  O3  UNL     1      17.957  48.748   6.989  1.00  0.00    -0.535 OA
HETATM   29  O4  UNL     1      16.710  46.950   6.507  1.00  0.00    -0.535 OA
ENDBRANCH  26  27
ENDBRANCH  25  26
ENDBRANCH  24  25
ENDBRANCH   5  24
BRANCH   1  30
HETATM   30  N2  UNL     1      24.731  50.908   6.841  1.00  0.00    -0.374 N 
ATOM     31  H2  UNL     1      25.709  50.618   6.875  1.00  0.00     0.161 HD
BRANCH  30  32
HETATM   32  C2  UNL     1      24.301  52.182   7.400  1.00  0.00     0.148 C 
BRANCH  32  33
HETATM   33  C1  UNL     1      24.546  52.187   8.881  1.00  0.00     0.249 C 
BRANCH  33  34
HETATM   34  N1  UNL     1      24.186  53.485   9.420  1.00  0.00    -0.078 N 
ATOM     35  H13 UNL     1      24.414  54.247   8.781  1.00  0.00     0.274 HD
ATOM     36  H12 UNL     1      23.176  53.623   9.455  1.00  0.00     0.274 HD
ATOM     37  H11 UNL     1      24.624  53.603  10.334  1.00  0.00     0.274 HD
ENDBRANCH  33  34
ENDBRANCH  32  33
ENDBRANCH  30  32
ENDBRANCH   1  30
TORSDOF 11
ENDMDL
MODEL 2
REMARK VINA RESULT: -8.252835716      2.507      5.256
REMARK  11 active torsions:
REMARK  status: ('A' for Active; 'I' for Inactive)
REMARK    1  A    between atoms: N1_1  and  C1_5 
REMARK    2  A    between atoms: C1_5  and  C2_6 
REMARK    3  A    between atoms: C2_6  and  N2_7 
REMARK    4  A    between atoms: N2_7  and  C3_9 
REMARK    5  A    between atoms: N3_13  and  C6_14 
REMARK    6  A    between atoms: C6_14  and  O2_15 
REMARK    7  A    between atoms: O2_15  and  C7_16 
REMARK    8  A    between atoms: C7_16  and  N4_17 
REMARK    9  A    between atoms: C8_20  and  N5_21 
REMARK   10  A    between atoms: N5_21  and  C9_23 
REMARK   11  A    between atoms: N8_31  and  O5_32 
ROOT
HETATM    1  C3  UNL     1      20.856  49.099   4.854  1.00  0.00     0.122 A 
HETATM    2  C4  UNL     1      21.241  50.374   4.499  1.00  0.00     0.123 A 
HETATM    3  C5  UNL     1      22.339  50.947   5.105  1.00  0.00     0.267 A 
HETATM    4  O1  UNL     1      22.723  52.125   4.802  1.00  0.00    -0.267 OA
HETATM    5  N3  UNL     1      23.055  50.294   6.038  1.00  0.00    -0.125 N 
HETATM    6  C8  UNL     1      22.663  49.046   6.370  1.00  0.00     0.691 A 
HETATM    7  N9  UNL     1      21.596  48.468   5.795  1.00  0.00    -0.176 N 
ATOM      8  H9  UNL     1      21.335  47.523   6.077  1.00  0.00     0.186 HD
ENDROOT
BRANCH   6   9
HETATM    9  N5  UNL     1      23.351  48.430   7.262  1.00  0.00    -0.191 N 
ATOM     10  H5  UNL     1      23.798  48.983   7.994  1.00  0.00     0.184 HD
BRANCH   9  11
HETATM   11  C9  UNL     1      23.523  47.021   7.283  1.00  0.00     0.051 A 
HETATM   12  C10 UNL     1      24.331  46.395   6.366  1.00  0.00     0.032 A 
HETATM   13  C11 UNL     1      24.530  45.030   6.346  1.00  0.00     0.036 A 
HETATM   14  C12 UNL     1      23.883  44.262   7.296  1.00  0.00     0.080 A 
HETATM   15  N6  UNL     1      23.839  42.936   7.578  1.00  0.00    -0.282 N 
HETATM   16  C13 UNL     1      23.060  44.843   8.240  1.00  0.00     0.113 A 
HETATM   17  N7  UNL     1      23.042  42.729   8.624  1.00  0.00    -0.215 N 
ATOM     18  H6  UNL     1      24.340  42.209   7.066  1.00  0.00     0.188 HD
HETATM   19  N8  UNL     1      22.563  43.866   9.038  1.00  0.00    -0.147 N 
ATOM     20  H7  UNL     1      22.838  41.818   9.038  1.00  0.00     0.211 HD
HETATM   21  C14 UNL     1      22.886  46.225   8.225  1.00  0.00     0.066 A 
BRANCH  19  22
HETATM   22  O5  UNL     1      21.698  44.135  10.088  1.00  0.00    -0.266 OA
ATOM     23  H5  UNL     1      21.646  44.898  10.653  1.00  0.00     0.247 HD
ENDBRANCH  19  22
ENDBRANCH   9  11
ENDBRANCH   6   9
BRANCH   5  24
HETATM   24  C6  UNL     1      24.199  50.920   6.651  1.00  0.00     0.323 C 
BRANCH  24  25
HETATM   25  O2  UNL     1      23.828  51.454   7.879  1.00  0.00    -0.346 OA
BRANCH  25  26
HETATM   26  C7  UNL     1      24.792  52.287   8.410  1.00  0.00     0.371 C 
BRANCH  26  27
HETATM   27  N4  UNL     1      24.291  53.647   8.369  1.00  0.00    -0.131 N 
HETATM   28  O3  UNL     1      24.223  54.356   9.391  1.00  0.00    -0.535 OA
HETATM   29  O4  UNL     1      23.866  54.222   7.183  1.00  0.00    -0.535 OA
ENDBRANCH  26  27
ENDBRANCH  25  26
ENDBRANCH  24  25
ENDBRANCH   5  24
BRANCH   1  30
HETATM   30  N2  UNL     1      19.729  48.451   4.264  1.00  0.00    -0.374 N 
ATOM     31  H2  UNL     1      19.346  48.763   3.372  1.00  0.00     0.161 HD
BRANCH  30  32
HETATM   32  C2  UNL     1      19.149  47.327   4.985  1.00  0.00     0.148 C 
BRANCH  32  33
HETATM   33  C1  UNL     1      18.180  47.837   6.012  1.00  0.00     0.249 C 
BRANCH  33  34
HETATM   34  N1  UNL     1      17.009  46.980   6.032  1.00  0.00    -0.078 N 
ATOM     35  H13 UNL     1      16.145  47.501   5.883  1.00  0.00     0.274 HD
ATOM     36  H12 UNL     1      16.957  46.377   5.211  1.00  0.00     0.274 HD
ATOM     37  H11 UNL     1      16.996  46.450   6.903  1.00  0.00     0.274 HD
ENDBRANCH  33  34
ENDBRANCH  32  33
ENDBRANCH  30  32
ENDBRANCH   1  30
TORSDOF 11
ENDMDL
MODEL 3
REMARK VINA RESULT: -8.112376951      0.919      1.096
REMARK  11 active torsions:
REMARK  status: ('A' for Active; 'I' for Inactive)
REMARK    1  A    between atoms: N1_1  and  C1_5 
REMARK    2  A    between atoms: C1_5  and  C2_6 
REMARK    3  A    between atoms: C2_6  and  N2_7 
REMARK    4  A    between atoms: N2_7  and  C3_9 
REMARK    5  A    between atoms: N3_13  and  C6_14 
REMARK    6  A    between atoms: C6_14  and  O2_15 
REMARK    7  A    between atoms: O2_15  and  C7_16 
REMARK    8  A    between atoms: C7_16  and  N4_17 
REMARK    9  A    between atoms: C8_20  and  N5_21 
REMARK   10  A    between atoms: N5_21  and  C9_23 
REMARK   11  A    between atoms: N8_31  and  O5_32 
ROOT
HETATM    1  C3  UNL     1      23.702  50.557   6.099  1.00  0.00     0.122 A 
HETATM    2  C4  UNL     1      22.569  51.074   5.508  1.00  0.00     0.123 A 
HETATM    3  C5  UNL     1      21.620  50.218   4.990  1.00  0.00     0.267 A 
HETATM    4  O1  UNL     1      20.560  50.661   4.436  1.00  0.00    -0.267 OA
HETATM    5  N3  UNL     1      21.764  48.882   5.047  1.00  0.00    -0.125 N 
HETATM    6  C8  UNL     1      22.879  48.395   5.630  1.00  0.00     0.691 A 
HETATM    7  N9  UNL     1      23.819  49.210   6.140  1.00  0.00    -0.176 N 
ATOM      8  H9  UNL     1      24.647  48.798   6.571  1.00  0.00     0.186 HD
ENDROOT
BRANCH   6   9
HETATM    9  N5  UNL     1      23.010  47.120   5.679  1.00  0.00    -0.191 N 
ATOM     10  H5  UNL     1      23.140  46.613   4.802  1.00  0.00     0.184 HD
BRANCH   9  11
HETATM   11  C9  UNL     1      22.985  46.375   6.887  1.00  0.00     0.051 A 
HETATM   12  C10 UNL     1      22.620  46.965   8.072  1.00  0.00     0.032 A 
HETATM   13  C11 UNL     1      22.579  46.284   9.271  1.00  0.00     0.036 A 
HETATM   14  C12 UNL     1      22.924  44.946   9.274  1.00  0.00     0.080 A 
HETATM   15  N6  UNL     1      23.000  43.985  10.228  1.00  0.00    -0.282 N 
HETATM   16  C13 UNL     1      23.299  44.306   8.109  1.00  0.00     0.113 A 
HETATM   17  N7  UNL     1      23.394  42.839   9.677  1.00  0.00    -0.215 N 
ATOM     18  H6  UNL     1      22.787  44.120  11.217  1.00  0.00     0.188 HD
HETATM   19  N8  UNL     1      23.579  43.011   8.400  1.00  0.00    -0.147 N 
ATOM     20  H7  UNL     1      23.530  41.960  10.178  1.00  0.00     0.211 HD
HETATM   21  C14 UNL     1      23.326  45.029   6.920  1.00  0.00     0.066 A 
BRANCH  19  22
HETATM   22  O5  UNL     1      23.987  42.106   7.432  1.00  0.00    -0.266 OA
ATOM     23  H5  UNL     1      23.595  41.896   6.592  1.00  0.00     0.247 HD
ENDBRANCH  19  22
ENDBRANCH   9  11
ENDBRANCH   6   9
BRANCH   5  24
HETATM   24  C6  UNL     1      20.753  48.015   4.498  1.00  0.00     0.323 C 
BRANCH  24  25
HETATM   25  O2  UNL     1      19.947  47.539   5.525  1.00  0.00    -0.346 OA
BRANCH  25  26
HETATM   26  C7  UNL     1      18.646  47.316   5.121  1.00  0.00     0.371 C 
BRANCH  26  27
HETATM   27  N4  UNL     1      17.760  47.723   6.195  1.00  0.00    -0.131 N 
HETATM   28  O3  UNL     1      16.700  47.116   6.441  1.00  0.00    -0.535 OA
HETATM   29  O4  UNL     1      18.057  48.809   7.001  1.00  0.00    -0.535 OA
ENDBRANCH  26  27
ENDBRANCH  25  26
ENDBRANCH  24  25
ENDBRANCH   5  24
BRANCH   1  30
HETATM   30  N2  UNL     1      24.721  51.389   6.652  1.00  0.00    -0.374 N 
ATOM     31  H2  UNL     1      25.705  51.244   6.426  1.00  0.00     0.161 HD
BRANCH  30  32
HETATM   32  C2  UNL     1      24.301  52.454   7.552  1.00  0.00     0.148 C 
BRANCH  32  33
HETATM   33  C1  UNL     1      24.565  52.044   8.972  1.00  0.00     0.249 C 
BRANCH  33  34
HETATM   34  N1  UNL     1      24.164  53.117   9.862  1.00  0.00    -0.078 N 
ATOM     35  H13 UNL     1      23.694  53.876   9.367  1.00  0.00     0.274 HD
ATOM     36  H12 UNL     1      23.394  52.846  10.473  1.00  0.00     0.274 HD
ATOM     37  H11 UNL     1      24.977  53.442  10.384  1.00  0.00     0.274 HD
ENDBRANCH  33  34
ENDBRANCH  32  33
ENDBRANCH  30  32
ENDBRANCH   1  30
TORSDOF 11
ENDMDL
MODEL 4
REMARK VINA RESULT: -7.742317597      1.378      1.736
REMARK  11 active torsions:
REMARK  status: ('A' for Active; 'I' for Inactive)
REMARK    1  A    between atoms: N1_1  and  C1_5 
REMARK    2  A    between atoms: C1_5  and  C2_6 
REMARK    3  A    between atoms: C2_6  and  N2_7 
REMARK    4  A    between atoms: N2_7  and  C3_9 
REMARK    5  A    between atoms: N3_13  and  C6_14 
REMARK    6  A    between atoms: C6_14  and  O2_15 
REMARK    7  A    between atoms: O2_15  and  C7_16 
REMARK    8  A    between atoms: C7_16  and  N4_17 
REMARK    9  A    between atoms: C8_20  and  N5_21 
REMARK   10  A    between atoms: N5_21  and  C9_23 
REMARK   11  A    between atoms: N8_31  and  O5_32 
ROOT
HETATM    1  C3  UNL     1      23.752  50.335   7.001  1.00  0.00     0.122 A 
HETATM    2  C4  UNL     1      23.138  50.345   5.767  1.00  0.00     0.123 A 
HETATM    3  C5  UNL     1      22.266  49.330   5.433  1.00  0.00     0.267 A 
HETATM    4  O1  UNL     1      21.680  49.307   4.300  1.00  0.00    -0.267 OA
HETATM    5  N3  UNL     1      21.992  48.324   6.281  1.00  0.00    -0.125 N 
HETATM    6  C8  UNL     1      22.602  48.332   7.484  1.00  0.00     0.691 A 
HETATM    7  N9  UNL     1      23.457  49.309   7.832  1.00  0.00    -0.176 N 
ATOM      8  H9  UNL     1      23.896  49.276   8.752  1.00  0.00     0.186 HD
ENDROOT
BRANCH   6   9
HETATM    9  N5  UNL     1      22.336  47.367   8.288  1.00  0.00    -0.191 N 
ATOM     10  H5  UNL     1      21.763  47.566   9.108  1.00  0.00     0.184 HD
BRANCH   9  11
HETATM   11  C9  UNL     1      22.798  46.039   8.096  1.00  0.00     0.051 A 
HETATM   12  C10 UNL     1      23.801  45.762   7.200  1.00  0.00     0.032 A 
HETATM   13  C11 UNL     1      24.283  44.488   6.979  1.00  0.00     0.036 A 
HETATM   14  C12 UNL     1      23.726  43.446   7.696  1.00  0.00     0.080 A 
HETATM   15  N6  UNL     1      23.935  42.107   7.745  1.00  0.00    -0.282 N 
HETATM   16  C13 UNL     1      22.715  43.671   8.609  1.00  0.00     0.113 A 
HETATM   17  N7  UNL     1      23.104  41.558   8.630  1.00  0.00    -0.215 N 
ATOM     18  H6  UNL     1      24.623  41.598   7.189  1.00  0.00     0.188 HD
HETATM   19  N8  UNL     1      22.361  42.484   9.161  1.00  0.00    -0.147 N 
ATOM     20  H7  UNL     1      23.058  40.564   8.856  1.00  0.00     0.211 HD
HETATM   21  C14 UNL     1      22.257  44.972   8.802  1.00  0.00     0.066 A 
BRANCH  19  22
HETATM   22  O5  UNL     1      21.364  42.381  10.121  1.00  0.00    -0.266 OA
ATOM     23  H5  UNL     1      20.846  43.062  10.534  1.00  0.00     0.247 HD
ENDBRANCH  19  22
ENDBRANCH   9  11
ENDBRANCH   6   9
BRANCH   5  24
HETATM   24  C6  UNL     1      21.075  47.279   5.902  1.00  0.00     0.323 C 
BRANCH  24  25
HETATM   25  O2  UNL     1      19.851  47.491   6.526  1.00  0.00    -0.346 OA
BRANCH  25  26
HETATM   26  C7  UNL     1      18.799  47.530   5.634  1.00  0.00     0.371 C 
BRANCH  26  27
HETATM   27  N4  UNL     1      17.590  47.847   6.370  1.00  0.00    -0.131 N 
HETATM   28  O3  UNL     1      16.584  47.113   6.335  1.00  0.00    -0.535 OA
HETATM   29  O4  UNL     1      17.502  48.987   7.152  1.00  0.00    -0.535 OA
ENDBRANCH  26  27
ENDBRANCH  25  26
ENDBRANCH  24  25
ENDBRANCH   5  24
BRANCH   1  30
HETATM   30  N2  UNL     1      24.664  51.356   7.407  1.00  0.00    -0.374 N 
ATOM     31  H2  UNL     1      25.578  51.126   7.797  1.00  0.00     0.161 HD
BRANCH  30  32
HETATM   32  C2  UNL     1      24.239  52.739   7.243  1.00  0.00     0.148 C 
BRANCH  32  33
HETATM   33  C1  UNL     1      24.306  53.444   8.566  1.00  0.00     0.249 C 
BRANCH  33  34
HETATM   34  N1  UNL     1      24.333  52.459   9.632  1.00  0.00    -0.078 N 
ATOM     35  H13 UNL     1      24.491  51.513   9.281  1.00  0.00     0.274 HD
ATOM     36  H12 UNL     1      25.169  52.539  10.211  1.00  0.00     0.274 HD
ATOM     37  H11 UNL     1      23.475  52.531  10.178  1.00  0.00     0.274 HD
ENDBRANCH  33  34
ENDBRANCH  32  33
ENDBRANCH  30  32
ENDBRANCH   1  30
TORSDOF 11
ENDMDL
MODEL 5
REMARK VINA RESULT: -7.581150199      1.532      1.849
REMARK  11 active torsions:
REMARK  status: ('A' for Active; 'I' for Inactive)
REMARK    1  A    between atoms: N1_1  and  C1_5 
REMARK    2  A    between atoms: C1_5  and  C2_6 
REMARK    3  A    between atoms: C2_6  and  N2_7 
REMARK    4  A    between atoms: N2_7  and  C3_9 
REMARK    5  A    between atoms: N3_13  and  C6_14 
REMARK    6  A    between atoms: C6_14  and  O2_15 
REMARK    7  A    between atoms: O2_15  and  C7_16 
REMARK    8  A    between atoms: C7_16  and  N4_17 
REMARK    9  A    between atoms: C8_20  and  N5_21 
REMARK   10  A    between atoms: N5_21  and  C9_23 
REMARK   11  A    between atoms: N8_31  and  O5_32 
ROOT
HETATM    1  C3  UNL     1      23.633  51.996   6.710  1.00  0.00     0.122 A 
HETATM    2  C4  UNL     1      22.503  52.188   5.945  1.00  0.00     0.123 A 
HETATM    3  C5  UNL     1      21.948  51.121   5.270  1.00  0.00     0.267 A 
HETATM    4  O1  UNL     1      20.903  51.262   4.553  1.00  0.00    -0.267 OA
HETATM    5  N3  UNL     1      22.478  49.887   5.338  1.00  0.00    -0.125 N 
HETATM    6  C8  UNL     1      23.584  49.719   6.093  1.00  0.00     0.691 A 
HETATM    7  N9  UNL     1      24.144  50.744   6.758  1.00  0.00    -0.176 N 
ATOM      8  H9  UNL     1      24.979  50.572   7.317  1.00  0.00     0.186 HD
ENDROOT
BRANCH   6   9
HETATM    9  N5  UNL     1      24.085  48.539   6.151  1.00  0.00    -0.191 N 
ATOM     10  H5  UNL     1      24.877  48.320   5.545  1.00  0.00     0.184 HD
BRANCH   9  11
HETATM   11  C9  UNL     1      23.596  47.522   7.012  1.00  0.00     0.051 A 
HETATM   12  C10 UNL     1      22.937  47.839   8.175  1.00  0.00     0.032 A 
HETATM   13  C11 UNL     1      22.444  46.887   9.044  1.00  0.00     0.036 A 
HETATM   14  C12 UNL     1      22.626  45.555   8.724  1.00  0.00     0.080 A 
HETATM   15  N6  UNL     1      22.290  44.381   9.315  1.00  0.00    -0.282 N 
HETATM   16  C13 UNL     1      23.282  45.184   7.568  1.00  0.00     0.113 A 
HETATM   17  N7  UNL     1      22.716  43.366   8.565  1.00  0.00    -0.215 N 
ATOM     18  H6  UNL     1      21.789  44.289  10.199  1.00  0.00     0.188 HD
HETATM   19  N8  UNL     1      23.316  43.830   7.507  1.00  0.00    -0.147 N 
ATOM     20  H7  UNL     1      22.591  42.378   8.785  1.00  0.00     0.211 HD
HETATM   21  C14 UNL     1      23.764  46.176   6.717  1.00  0.00     0.066 A 
BRANCH  19  22
HETATM   22  O5  UNL     1      23.913  43.150   6.456  1.00  0.00    -0.266 OA
ATOM     23  H5  UNL     1      23.997  43.397   5.542  1.00  0.00     0.247 HD
ENDBRANCH  19  22
ENDBRANCH   9  11
ENDBRANCH   6   9
BRANCH   5  24
HETATM   24  C6  UNL     1      21.874  48.793   4.622  1.00  0.00     0.323 C 
BRANCH  24  25
HETATM   25  O2  UNL     1      20.916  48.188   5.427  1.00  0.00    -0.346 OA
BRANCH  25  26
HETATM   26  C7  UNL     1      19.752  47.901   4.745  1.00  0.00     0.371 C 
BRANCH  26  27
HETATM   27  N4  UNL     1      18.670  47.812   5.707  1.00  0.00    -0.131 N 
HETATM   28  O3  UNL     1      18.618  48.550   6.710  1.00  0.00    -0.535 OA
HETATM   29  O4  UNL     1      17.642  46.898   5.553  1.00  0.00    -0.535 OA
ENDBRANCH  26  27
ENDBRANCH  25  26
ENDBRANCH  24  25
ENDBRANCH   5  24
BRANCH   1  30
HETATM   30  N2  UNL     1      24.255  53.059   7.432  1.00  0.00    -0.374 N 
ATOM     31  H2  UNL     1      24.695  52.898   8.338  1.00  0.00     0.161 HD
BRANCH  30  32
HETATM   32  C2  UNL     1      24.236  54.383   6.826  1.00  0.00     0.148 C 
BRANCH  32  33
HETATM   33  C1  UNL     1      24.324  55.427   7.900  1.00  0.00     0.249 C 
BRANCH  33  34
HETATM   34  N1  UNL     1      23.935  54.841   9.169  1.00  0.00    -0.078 N 
ATOM     35  H13 UNL     1      24.573  54.103   9.467  1.00  0.00     0.274 HD
ATOM     36  H12 UNL     1      24.080  55.480   9.951  1.00  0.00     0.274 HD
ATOM     37  H11 UNL     1      22.970  54.518   9.108  1.00  0.00     0.274 HD
ENDBRANCH  33  34
ENDBRANCH  32  33
ENDBRANCH  30  32
ENDBRANCH   1  30
TORSDOF 11
ENDMDL
