MODEL 1
REMARK VINA RESULT: -5.789525432      0.000      0.000
REMARK  10 active torsions:
REMARK  status: ('A' for Active; 'I' for Inactive)
REMARK    1  A    between atoms: C2_2  and  N1_3 
REMARK    2  A    between atoms: C4_8  and  N3_9 
REMARK    3  A    between atoms: N3_9  and  C5_10 
REMARK    4  A    between atoms: N3_9  and  C7_14 
REMARK    5  A    between atoms: C5_10  and  C6_11 
REMARK    6  A    between atoms: C6_11  and  O1_12 
REMARK    7  A    between atoms: C7_14  and  C8_15 
REMARK    8  A    between atoms: C8_15  and  O2_16 
REMARK    9  A    between atoms: C10_21  and  N5_22 
REMARK   10  A    between atoms: C15_31  and  N8_32 
ROOT
HETATM    1  N1  UNL     1      25.043  57.658   8.000  1.00  0.00    -0.374 N 
ATOM      2  H1  UNL     1      25.247  58.564   7.577  1.00  0.00     0.161 HD
HETATM    3  C3  UNL     1      24.815  56.704   7.195  1.00  0.00     0.146 A 
HETATM    4  N2  UNL     1      24.856  56.960   5.842  1.00  0.00    -0.174 N 
ATOM      5  H2  UNL     1      25.074  57.903   5.520  1.00  0.00     0.186 HD
HETATM    6  C4  UNL     1      24.620  56.012   4.948  1.00  0.00     0.686 A 
HETATM    7  N4  UNL     1      24.330  54.760   5.291  1.00  0.00    -0.185 N 
ATOM      8  H4  UNL     1      24.153  54.047   4.583  1.00  0.00     0.184 HD
HETATM    9  C9  UNL     1      24.277  54.463   6.608  1.00  0.00     0.124 A 
HETATM   10  C10 UNL     1      23.987  53.178   6.991  1.00  0.00     0.150 A 
HETATM   11  N7  UNL     1      23.945  52.884   8.326  1.00  0.00    -0.175 N 
ATOM     12  H7  UNL     1      23.732  51.936   8.636  1.00  0.00     0.186 HD
HETATM   13  C15 UNL     1      24.183  53.837   9.213  1.00  0.00     0.678 A 
HETATM   14  N9  UNL     1      24.466  55.091   8.886  1.00  0.00    -0.186 N 
ATOM     15  H9  UNL     1      24.640  55.788   9.611  1.00  0.00     0.184 HD
HETATM   16  C16 UNL     1      24.520  55.429   7.592  1.00  0.00     0.124 A 
ENDROOT
BRANCH   6  17
HETATM   17  N3  UNL     1      24.692  56.416   3.510  1.00  0.00    -0.193 N 
BRANCH  17  18
HETATM   18  C5  UNL     1      24.044  57.631   3.266  1.00  0.00     0.108 C 
BRANCH  18  19
HETATM   19  C6  UNL     1      22.635  57.723   2.836  1.00  0.00     0.209 C 
BRANCH  19  20
HETATM   20  O1  UNL     1      22.565  57.425   1.422  1.00  0.00    -0.396 OA
ATOM     21  H1  UNL     1      21.845  57.918   1.045  1.00  0.00     0.209 HD
ENDBRANCH  19  20
ENDBRANCH  18  19
ENDBRANCH  17  18
BRANCH  17  22
HETATM   22  C7  UNL     1      25.390  55.454   2.748  1.00  0.00     0.172 C 
BRANCH  22  23
HETATM   23  C8  UNL     1      25.768  55.830   1.371  1.00  0.00     0.185 C 
BRANCH  23  24
HETATM   24  O2  UNL     1      24.829  55.678   0.402  1.00  0.00    -0.399 OA
ATOM     25  H2  UNL     1      24.280  56.427   0.203  1.00  0.00     0.209 HD
ENDBRANCH  23  24
ENDBRANCH  22  23
ENDBRANCH  17  22
ENDBRANCH   6  17
BRANCH   1  26
HETATM   26  C2  UNL     1      25.049  57.616   9.400  1.00  0.00     0.116 C 
HETATM   27  C1  UNL     1      26.510  57.901   9.854  1.00  0.00     0.026 C 
ENDBRANCH   1  26
BRANCH  10  28
HETATM   28  N5  UNL     1      23.685  52.131   6.071  1.00  0.00    -0.349 N 
HETATM   29  C11 UNL     1      22.500  52.302   5.234  1.00  0.00     0.154 C 
HETATM   30  C12 UNL     1      22.150  50.934   4.663  1.00  0.00     0.213 C 
HETATM   31  O3  UNL     1      22.375  49.967   5.614  1.00  0.00    -0.301 OA
HETATM   32  N6  UNL     1      23.653  49.740   5.901  1.00  0.00    -0.183 NA
HETATM   33  C13 UNL     1      23.865  48.913   7.046  1.00  0.00     0.145 C 
HETATM   34  C14 UNL     1      24.461  50.942   5.910  1.00  0.00     0.245 C 
ENDBRANCH  10  28
BRANCH  13  35
HETATM   35  N8  UNL     1      24.132  53.565  10.470  1.00  0.00    -0.234 N 
ATOM     36  H82 UNL     1      23.316  53.044  10.793  1.00  0.00     0.174 HD
ATOM     37  H81 UNL     1      24.892  53.862  11.082  1.00  0.00     0.174 HD
ENDBRANCH  13  35
TORSDOF 10
ENDMDL
MODEL 2
REMARK VINA RESULT: -5.784182718      0.065      1.503
REMARK  10 active torsions:
REMARK  status: ('A' for Active; 'I' for Inactive)
REMARK    1  A    between atoms: C2_2  and  N1_3 
REMARK    2  A    between atoms: C4_8  and  N3_9 
REMARK    3  A    between atoms: N3_9  and  C5_10 
REMARK    4  A    between atoms: N3_9  and  C7_14 
REMARK    5  A    between atoms: C5_10  and  C6_11 
REMARK    6  A    between atoms: C6_11  and  O1_12 
REMARK    7  A    between atoms: C7_14  and  C8_15 
REMARK    8  A    between atoms: C8_15  and  O2_16 
REMARK    9  A    between atoms: C10_21  and  N5_22 
REMARK   10  A    between atoms: C15_31  and  N8_32 
ROOT
HETATM    1  N1  UNL     1      25.008  57.661   8.050  1.00  0.00    -0.374 N 
ATOM      2  H1  UNL     1      25.206  58.569   7.631  1.00  0.00     0.161 HD
HETATM    3  C3  UNL     1      24.789  56.708   7.241  1.00  0.00     0.146 A 
HETATM    4  N2  UNL     1      24.831  56.968   5.889  1.00  0.00    -0.174 N 
ATOM      5  H2  UNL     1      25.042  57.914   5.571  1.00  0.00     0.186 HD
HETATM    6  C4  UNL     1      24.604  56.021   4.992  1.00  0.00     0.686 A 
HETATM    7  N4  UNL     1      24.323  54.766   5.330  1.00  0.00    -0.185 N 
ATOM      8  H4  UNL     1      24.153  54.055   4.619  1.00  0.00     0.184 HD
HETATM    9  C9  UNL     1      24.270  54.464   6.646  1.00  0.00     0.124 A 
HETATM   10  C10 UNL     1      23.989  53.176   7.025  1.00  0.00     0.150 A 
HETATM   11  N7  UNL     1      23.946  52.877   8.358  1.00  0.00    -0.175 N 
ATOM     12  H7  UNL     1      23.740  51.926   8.665  1.00  0.00     0.186 HD
HETATM   13  C15 UNL     1      24.175  53.829   9.248  1.00  0.00     0.678 A 
HETATM   14  N9  UNL     1      24.449  55.086   8.927  1.00  0.00    -0.186 N 
ATOM     15  H9  UNL     1      24.616  55.782   9.654  1.00  0.00     0.184 HD
HETATM   16  C16 UNL     1      24.503  55.429   7.633  1.00  0.00     0.124 A 
ENDROOT
BRANCH   6  17
HETATM   17  N3  UNL     1      24.676  56.431   3.555  1.00  0.00    -0.193 N 
BRANCH  17  18
HETATM   18  C5  UNL     1      25.317  55.473   2.761  1.00  0.00     0.108 C 
BRANCH  18  19
HETATM   19  C6  UNL     1      25.917  55.782   1.449  1.00  0.00     0.209 C 
BRANCH  19  20
HETATM   20  O1  UNL     1      24.871  55.768   0.450  1.00  0.00    -0.396 OA
ATOM     21  H1  UNL     1      24.184  56.364   0.724  1.00  0.00     0.209 HD
ENDBRANCH  19  20
ENDBRANCH  18  19
ENDBRANCH  17  18
BRANCH  17  22
HETATM   22  C7  UNL     1      24.087  57.698   3.360  1.00  0.00     0.172 C 
BRANCH  22  23
HETATM   23  C8  UNL     1      22.726  57.727   2.787  1.00  0.00     0.185 C 
BRANCH  23  24
HETATM   24  O2  UNL     1      22.598  57.440   1.466  1.00  0.00    -0.399 OA
ATOM     25  H2  UNL     1      22.577  56.523   1.217  1.00  0.00     0.209 HD
ENDBRANCH  23  24
ENDBRANCH  22  23
ENDBRANCH  17  22
ENDBRANCH   6  17
BRANCH   1  26
HETATM   26  C2  UNL     1      25.011  57.614   9.450  1.00  0.00     0.116 C 
HETATM   27  C1  UNL     1      26.469  57.910   9.908  1.00  0.00     0.026 C 
ENDBRANCH   1  26
BRANCH  10  28
HETATM   28  N5  UNL     1      23.697  52.130   6.101  1.00  0.00    -0.349 N 
HETATM   29  C11 UNL     1      22.522  52.302   5.250  1.00  0.00     0.154 C 
HETATM   30  C12 UNL     1      22.178  50.934   4.674  1.00  0.00     0.213 C 
HETATM   31  O3  UNL     1      22.392  49.966   5.627  1.00  0.00    -0.301 OA
HETATM   32  N6  UNL     1      23.666  49.739   5.928  1.00  0.00    -0.183 NA
HETATM   33  C13 UNL     1      23.865  48.911   7.075  1.00  0.00     0.145 C 
HETATM   34  C14 UNL     1      24.475  50.941   5.947  1.00  0.00     0.245 C 
ENDBRANCH  10  28
BRANCH  13  35
HETATM   35  N8  UNL     1      24.124  53.552  10.504  1.00  0.00    -0.234 N 
ATOM     36  H82 UNL     1      24.876  52.972  10.876  1.00  0.00     0.174 HD
ATOM     37  H81 UNL     1      23.361  53.921  11.072  1.00  0.00     0.174 HD
ENDBRANCH  13  35
TORSDOF 10
ENDMDL
MODEL 3
REMARK VINA RESULT: -5.750842929      1.002      1.739
REMARK  10 active torsions:
REMARK  status: ('A' for Active; 'I' for Inactive)
REMARK    1  A    between atoms: C2_2  and  N1_3 
REMARK    2  A    between atoms: C4_8  and  N3_9 
REMARK    3  A    between atoms: N3_9  and  C5_10 
REMARK    4  A    between atoms: N3_9  and  C7_14 
REMARK    5  A    between atoms: C5_10  and  C6_11 
REMARK    6  A    between atoms: C6_11  and  O1_12 
REMARK    7  A    between atoms: C7_14  and  C8_15 
REMARK    8  A    between atoms: C8_15  and  O2_16 
REMARK    9  A    between atoms: C10_21  and  N5_22 
REMARK   10  A    between atoms: C15_31  and  N8_32 
ROOT
HETATM    1  N1  UNL     1      25.015  57.371   7.991  1.00  0.00    -0.374 N 
ATOM      2  H1  UNL     1      25.221  58.272   7.560  1.00  0.00     0.161 HD
HETATM    3  C3  UNL     1      24.769  56.414   7.195  1.00  0.00     0.146 A 
HETATM    4  N2  UNL     1      24.794  56.661   5.840  1.00  0.00    -0.174 N 
ATOM      5  H2  UNL     1      25.015  57.600   5.510  1.00  0.00     0.186 HD
HETATM    6  C4  UNL     1      24.539  55.709   4.955  1.00  0.00     0.686 A 
HETATM    7  N4  UNL     1      24.244  54.461   5.310  1.00  0.00    -0.185 N 
ATOM      8  H4  UNL     1      24.051  53.746   4.608  1.00  0.00     0.184 HD
HETATM    9  C9  UNL     1      24.206  54.173   6.629  1.00  0.00     0.124 A 
HETATM   10  C10 UNL     1      23.911  52.893   7.024  1.00  0.00     0.150 A 
HETATM   11  N7  UNL     1      23.885  52.607   8.361  1.00  0.00    -0.175 N 
ATOM     12  H7  UNL     1      23.668  51.663   8.680  1.00  0.00     0.186 HD
HETATM   13  C15 UNL     1      24.141  53.564   9.238  1.00  0.00     0.678 A 
HETATM   14  N9  UNL     1      24.430  54.814   8.900  1.00  0.00    -0.186 N 
ATOM     15  H9  UNL     1      24.619  55.513   9.618  1.00  0.00     0.184 HD
HETATM   16  C16 UNL     1      24.469  55.144   7.603  1.00  0.00     0.124 A 
ENDROOT
BRANCH   6  17
HETATM   17  N3  UNL     1      24.595  56.104   3.513  1.00  0.00    -0.193 N 
BRANCH  17  18
HETATM   18  C5  UNL     1      25.659  55.496   2.837  1.00  0.00     0.108 C 
BRANCH  18  19
HETATM   19  C6  UNL     1      27.072  55.854   3.066  1.00  0.00     0.209 C 
BRANCH  19  20
HETATM   20  O1  UNL     1      27.127  57.205   3.580  1.00  0.00    -0.396 OA
ATOM     21  H1  UNL     1      28.029  57.406   3.805  1.00  0.00     0.209 HD
ENDBRANCH  19  20
ENDBRANCH  18  19
ENDBRANCH  17  18
BRANCH  17  22
HETATM   22  C7  UNL     1      23.561  57.010   3.196  1.00  0.00     0.172 C 
BRANCH  22  23
HETATM   23  C8  UNL     1      23.757  57.867   2.009  1.00  0.00     0.185 C 
BRANCH  23  24
HETATM   24  O2  UNL     1      23.347  57.378   0.810  1.00  0.00    -0.399 OA
ATOM     25  H2  UNL     1      22.482  57.630   0.508  1.00  0.00     0.209 HD
ENDBRANCH  23  24
ENDBRANCH  22  23
ENDBRANCH  17  22
ENDBRANCH   6  17
BRANCH   1  26
HETATM   26  C2  UNL     1      25.039  57.337   9.391  1.00  0.00     0.116 C 
HETATM   27  C1  UNL     1      23.925  58.305   9.885  1.00  0.00     0.026 C 
ENDBRANCH   1  26
BRANCH  10  28
HETATM   28  N5  UNL     1      23.589  51.843   6.115  1.00  0.00    -0.349 N 
HETATM   29  C11 UNL     1      22.381  52.006   5.310  1.00  0.00     0.154 C 
HETATM   30  C12 UNL     1      22.021  50.635   4.752  1.00  0.00     0.213 C 
HETATM   31  O3  UNL     1      22.278  49.671   5.698  1.00  0.00    -0.301 OA
HETATM   32  N6  UNL     1      23.564  49.451   5.950  1.00  0.00    -0.183 NA
HETATM   33  C13 UNL     1      23.812  48.628   7.090  1.00  0.00     0.145 C 
HETATM   34  C14 UNL     1      24.366  50.657   5.934  1.00  0.00     0.245 C 
ENDBRANCH  10  28
BRANCH  13  35
HETATM   35  N8  UNL     1      24.105  53.300  10.498  1.00  0.00    -0.234 N 
ATOM     36  H82 UNL     1      23.182  53.160  10.909  1.00  0.00     0.174 HD
ATOM     37  H81 UNL     1      24.976  53.232  11.025  1.00  0.00     0.174 HD
ENDBRANCH  13  35
TORSDOF 10
ENDMDL
MODEL 4
REMARK VINA RESULT: -5.630547408      1.321      1.952
REMARK  10 active torsions:
REMARK  status: ('A' for Active; 'I' for Inactive)
REMARK    1  A    between atoms: C2_2  and  N1_3 
REMARK    2  A    between atoms: C4_8  and  N3_9 
REMARK    3  A    between atoms: N3_9  and  C5_10 
REMARK    4  A    between atoms: N3_9  and  C7_14 
REMARK    5  A    between atoms: C5_10  and  C6_11 
REMARK    6  A    between atoms: C6_11  and  O1_12 
REMARK    7  A    between atoms: C7_14  and  C8_15 
REMARK    8  A    between atoms: C8_15  and  O2_16 
REMARK    9  A    between atoms: C10_21  and  N5_22 
REMARK   10  A    between atoms: C15_31  and  N8_32 
ROOT
HETATM    1  N1  UNL     1      25.473  58.047   7.223  1.00  0.00    -0.374 N 
ATOM      2  H1  UNL     1      25.790  58.865   6.703  1.00  0.00     0.161 HD
HETATM    3  C3  UNL     1      25.221  57.011   6.535  1.00  0.00     0.146 A 
HETATM    4  N2  UNL     1      25.389  57.069   5.169  1.00  0.00    -0.174 N 
ATOM      5  H2  UNL     1      25.716  57.938   4.745  1.00  0.00     0.186 HD
HETATM    6  C4  UNL     1      25.137  56.027   4.393  1.00  0.00     0.686 A 
HETATM    7  N4  UNL     1      24.709  54.863   4.873  1.00  0.00    -0.185 N 
ATOM      8  H4  UNL     1      24.522  54.074   4.253  1.00  0.00     0.184 HD
HETATM    9  C9  UNL     1      24.529  54.759   6.207  1.00  0.00     0.124 A 
HETATM   10  C10 UNL     1      24.094  53.568   6.732  1.00  0.00     0.150 A 
HETATM   11  N7  UNL     1      23.924  53.469   8.085  1.00  0.00    -0.175 N 
ATOM     12  H7  UNL     1      23.603  52.593   8.499  1.00  0.00     0.186 HD
HETATM   13  C15 UNL     1      24.179  54.515   8.854  1.00  0.00     0.678 A 
HETATM   14  N9  UNL     1      24.598  55.684   8.389  1.00  0.00    -0.186 N 
ATOM     15  H9  UNL     1      24.779  56.460   9.027  1.00  0.00     0.184 HD
HETATM   16  C16 UNL     1      24.782  55.832   7.071  1.00  0.00     0.124 A 
ENDROOT
BRANCH   6  17
HETATM   17  N3  UNL     1      25.356  56.218   2.925  1.00  0.00    -0.193 N 
BRANCH  17  18
HETATM   18  C5  UNL     1      26.462  55.502   2.455  1.00  0.00     0.108 C 
BRANCH  18  19
HETATM   19  C6  UNL     1      27.824  56.067   2.396  1.00  0.00     0.209 C 
BRANCH  19  20
HETATM   20  O1  UNL     1      28.536  55.680   3.594  1.00  0.00    -0.396 OA
ATOM     21  H1  UNL     1      29.066  56.414   3.882  1.00  0.00     0.209 HD
ENDBRANCH  19  20
ENDBRANCH  18  19
ENDBRANCH  17  18
BRANCH  17  22
HETATM   22  C7  UNL     1      24.391  57.091   2.379  1.00  0.00     0.172 C 
BRANCH  22  23
HETATM   23  C8  UNL     1      24.531  57.441   0.951  1.00  0.00     0.185 C 
BRANCH  23  24
HETATM   24  O2  UNL     1      23.489  57.149   0.130  1.00  0.00    -0.399 OA
ATOM     25  H2  UNL     1      23.663  57.115  -0.802  1.00  0.00     0.209 HD
ENDBRANCH  23  24
ENDBRANCH  22  23
ENDBRANCH  17  22
ENDBRANCH   6  17
BRANCH   1  26
HETATM   26  C2  UNL     1      25.367  58.202   8.611  1.00  0.00     0.116 C 
HETATM   27  C1  UNL     1      26.816  58.348   9.159  1.00  0.00     0.026 C 
ENDBRANCH   1  26
BRANCH  10  28
HETATM   28  N5  UNL     1      23.770  52.430   5.937  1.00  0.00    -0.349 N 
HETATM   29  C11 UNL     1      22.598  52.534   5.072  1.00  0.00     0.154 C 
HETATM   30  C12 UNL     1      22.213  51.118   4.661  1.00  0.00     0.213 C 
HETATM   31  O3  UNL     1      22.403  50.263   5.720  1.00  0.00    -0.301 OA
HETATM   32  N6  UNL     1      23.671  50.036   6.047  1.00  0.00    -0.183 NA
HETATM   33  C13 UNL     1      23.850  49.344   7.283  1.00  0.00     0.145 C 
HETATM   34  C14 UNL     1      24.513  51.209   5.924  1.00  0.00     0.245 C 
ENDBRANCH  10  28
BRANCH  13  35
HETATM   35  N8  UNL     1      24.008  54.427  10.126  1.00  0.00    -0.234 N 
ATOM     36  H82 UNL     1      23.594  53.562  10.474  1.00  0.00     0.174 HD
ATOM     37  H81 UNL     1      24.292  55.200  10.729  1.00  0.00     0.174 HD
ENDBRANCH  13  35
TORSDOF 10
ENDMDL
MODEL 5
REMARK VINA RESULT: -5.568507172      1.430      6.011
REMARK  10 active torsions:
REMARK  status: ('A' for Active; 'I' for Inactive)
REMARK    1  A    between atoms: C2_2  and  N1_3 
REMARK    2  A    between atoms: C4_8  and  N3_9 
REMARK    3  A    between atoms: N3_9  and  C5_10 
REMARK    4  A    between atoms: N3_9  and  C7_14 
REMARK    5  A    between atoms: C5_10  and  C6_11 
REMARK    6  A    between atoms: C6_11  and  O1_12 
REMARK    7  A    between atoms: C7_14  and  C8_15 
REMARK    8  A    between atoms: C8_15  and  O2_16 
REMARK    9  A    between atoms: C10_21  and  N5_22 
REMARK   10  A    between atoms: C15_31  and  N8_32 
ROOT
HETATM    1  N1  UNL     1      24.164  54.246   9.423  1.00  0.00    -0.374 N 
ATOM      2  H1  UNL     1      23.851  53.401   9.902  1.00  0.00     0.161 HD
HETATM    3  C3  UNL     1      24.193  54.191   8.155  1.00  0.00     0.146 A 
HETATM    4  N2  UNL     1      23.810  53.020   7.537  1.00  0.00    -0.174 N 
ATOM      5  H2  UNL     1      23.509  52.232   8.109  1.00  0.00     0.186 HD
HETATM    6  C4  UNL     1      23.825  52.893   6.220  1.00  0.00     0.686 A 
HETATM    7  N4  UNL     1      24.205  53.877   5.409  1.00  0.00    -0.185 N 
ATOM      8  H4  UNL     1      24.206  53.754   4.396  1.00  0.00     0.184 HD
HETATM    9  C9  UNL     1      24.589  55.044   5.970  1.00  0.00     0.124 A 
HETATM   10  C10 UNL     1      24.980  56.079   5.159  1.00  0.00     0.150 A 
HETATM   11  N7  UNL     1      25.358  57.260   5.735  1.00  0.00    -0.175 N 
ATOM     12  H7  UNL     1      25.652  58.044   5.153  1.00  0.00     0.186 HD
HETATM   13  C15 UNL     1      25.340  57.378   7.053  1.00  0.00     0.678 A 
HETATM   14  N9  UNL     1      24.971  56.404   7.874  1.00  0.00    -0.186 N 
ATOM     15  H9  UNL     1      24.977  56.549   8.884  1.00  0.00     0.184 HD
HETATM   16  C16 UNL     1      24.591  55.228   7.359  1.00  0.00     0.124 A 
ENDROOT
BRANCH   6  17
HETATM   17  N3  UNL     1      23.390  51.572   5.670  1.00  0.00    -0.193 N 
BRANCH  17  18
HETATM   18  C5  UNL     1      24.276  50.541   6.002  1.00  0.00     0.108 C 
BRANCH  18  19
HETATM   19  C6  UNL     1      23.901  49.397   6.855  1.00  0.00     0.209 C 
BRANCH  19  20
HETATM   20  O1  UNL     1      23.472  49.902   8.141  1.00  0.00    -0.396 OA
ATOM     21  H1  UNL     1      22.568  50.184   8.068  1.00  0.00     0.209 HD
ENDBRANCH  19  20
ENDBRANCH  18  19
ENDBRANCH  17  18
BRANCH  17  22
HETATM   22  C7  UNL     1      22.192  51.699   4.935  1.00  0.00     0.172 C 
BRANCH  22  23
HETATM   23  C8  UNL     1      21.619  50.463   4.362  1.00  0.00     0.185 C 
BRANCH  23  24
HETATM   24  O2  UNL     1      20.281  50.275   4.492  1.00  0.00    -0.399 OA
ATOM     25  H2  UNL     1      19.771  50.191   3.696  1.00  0.00     0.209 HD
ENDBRANCH  23  24
ENDBRANCH  22  23
ENDBRANCH  17  22
ENDBRANCH   6  17
BRANCH   1  26
HETATM   26  C2  UNL     1      24.510  55.328  10.242  1.00  0.00     0.116 C 
HETATM   27  C1  UNL     1      23.203  56.133  10.500  1.00  0.00     0.026 C 
ENDBRANCH   1  26
BRANCH  10  28
HETATM   28  N5  UNL     1      25.052  55.981   3.738  1.00  0.00    -0.349 N 
HETATM   29  C11 UNL     1      26.303  55.486   3.168  1.00  0.00     0.154 C 
HETATM   30  C12 UNL     1      26.302  55.857   1.690  1.00  0.00     0.213 C 
HETATM   31  O3  UNL     1      25.737  57.099   1.527  1.00  0.00    -0.301 OA
HETATM   32  N6  UNL     1      24.428  57.160   1.746  1.00  0.00    -0.183 NA
HETATM   33  C13 UNL     1      23.897  58.485   1.805  1.00  0.00     0.145 C 
HETATM   34  C14 UNL     1      23.990  56.323   2.845  1.00  0.00     0.245 C 
ENDBRANCH  10  28
BRANCH  13  35
HETATM   35  N8  UNL     1      25.707  58.485   7.598  1.00  0.00    -0.234 N 
ATOM     36  H82 UNL     1      26.172  59.162   6.992  1.00  0.00     0.174 HD
ATOM     37  H81 UNL     1      25.519  58.648   8.587  1.00  0.00     0.174 HD
ENDBRANCH  13  35
TORSDOF 10
ENDMDL
