MODEL 1
REMARK VINA RESULT: -5.902280049      0.000      0.000
REMARK  9 active torsions:
REMARK  status: ('A' for Active; 'I' for Inactive)
REMARK    1  A    between atoms: C2_2  and  O1_3 
REMARK    2  A    between atoms: C2_2  and  C3_5 
REMARK    3  A    between atoms: C3_5  and  O2_6 
REMARK    4  A    between atoms: C4_8  and  O3_9 
REMARK    5  A    between atoms: C5_11  and  N1_12 
REMARK    6  A    between atoms: C6_16  and  O4_17 
REMARK    7  A    between atoms: C7_19  and  O5_20 
REMARK    8  A    between atoms: O5_20  and  C8_21 
REMARK    9  A    between atoms: C12_25  and  O6_26 
ROOT
HETATM    1  C3  UNL     1       0.044  27.776  -1.203  1.00  0.00     0.139 C 
HETATM    2  C4  UNL     1      -0.618  26.456  -1.415  1.00  0.00     0.190 C 
HETATM    3  C5  UNL     1      -0.869  26.110  -2.855  1.00  0.00     0.246 C 
HETATM    4  C6  UNL     1      -1.082  27.452  -3.568  1.00  0.00     0.182 C 
HETATM    5  C7  UNL     1       0.302  28.050  -3.704  1.00  0.00     0.185 C 
HETATM    6  C12 UNL     1       0.861  28.288  -2.332  1.00  0.00     0.189 C 
ENDROOT
BRANCH   1   7
HETATM    7  C2  UNL     1       0.938  27.587   0.032  1.00  0.00     0.153 C 
HETATM    8  C1  UNL     1       1.188  28.896   0.716  1.00  0.00     0.042 C 
BRANCH   7   9
HETATM    9  O1  UNL     1       2.063  26.852  -0.230  1.00  0.00    -0.393 OA
ATOM     10  H1  UNL     1       2.485  26.482   0.536  1.00  0.00     0.210 HD
ENDBRANCH   7   9
ENDBRANCH   1   7
BRANCH   1  11
HETATM   11  O2  UNL     1      -0.883  28.761  -0.778  1.00  0.00    -0.382 OA
ATOM     12  H2  UNL     1      -1.020  29.277  -1.563  1.00  0.00     0.211 HD
ENDBRANCH   1  11
BRANCH   2  13
HETATM   13  O3  UNL     1       0.030  25.388  -0.798  1.00  0.00    -0.390 OA
ATOM     14  H3  UNL     1       0.829  25.115  -1.234  1.00  0.00     0.210 HD
ENDBRANCH   2  13
BRANCH   6  15
HETATM   15  O6  UNL     1       2.196  27.833  -2.274  1.00  0.00    -0.390 OA
ATOM     16  H6  UNL     1       2.390  27.198  -2.953  1.00  0.00     0.210 HD
ENDBRANCH   6  15
BRANCH   3  17
HETATM   17  N1  UNL     1      -1.990  25.230  -3.048  1.00  0.00    -0.070 N 
ATOM     18  H13 UNL     1      -1.941  24.437  -2.408  1.00  0.00     0.274 HD
ATOM     19  H12 UNL     1      -2.851  25.664  -2.715  1.00  0.00     0.274 HD
ATOM     20  H11 UNL     1      -2.098  24.910  -4.011  1.00  0.00     0.274 HD
ENDBRANCH   3  17
BRANCH   5  21
HETATM   21  O5  UNL     1       1.101  27.152  -4.347  1.00  0.00    -0.371 OA
BRANCH  21  22
HETATM   22  C8  UNL     1       1.735  27.557  -5.470  1.00  0.00     0.051 C 
HETATM   23  C9  UNL     1       1.285  26.897  -6.756  1.00  0.00     0.045 C 
HETATM   24  C10 UNL     1       3.218  27.179  -5.315  1.00  0.00     0.045 C 
HETATM   25  C11 UNL     1       1.721  29.047  -5.717  1.00  0.00     0.045 C 
ENDBRANCH  21  22
ENDBRANCH   5  21
BRANCH   4  26
HETATM   26  O4  UNL     1      -1.698  27.173  -4.758  1.00  0.00    -0.391 OA
ATOM     27  H4  UNL     1      -1.041  27.277  -5.437  1.00  0.00     0.210 HD
ENDBRANCH   4  26
TORSDOF 9
ENDMDL
MODEL 2
REMARK VINA RESULT: -5.744017749      1.747      4.889
REMARK  9 active torsions:
REMARK  status: ('A' for Active; 'I' for Inactive)
REMARK    1  A    between atoms: C2_2  and  O1_3 
REMARK    2  A    between atoms: C2_2  and  C3_5 
REMARK    3  A    between atoms: C3_5  and  O2_6 
REMARK    4  A    between atoms: C4_8  and  O3_9 
REMARK    5  A    between atoms: C5_11  and  N1_12 
REMARK    6  A    between atoms: C6_16  and  O4_17 
REMARK    7  A    between atoms: C7_19  and  O5_20 
REMARK    8  A    between atoms: O5_20  and  C8_21 
REMARK    9  A    between atoms: C12_25  and  O6_26 
ROOT
HETATM    1  C3  UNL     1       1.922  27.599  -5.078  1.00  0.00     0.139 C 
HETATM    2  C4  UNL     1       0.516  27.104  -5.087  1.00  0.00     0.190 C 
HETATM    3  C5  UNL     1      -0.076  26.886  -3.722  1.00  0.00     0.246 C 
HETATM    4  C6  UNL     1       1.106  26.502  -2.821  1.00  0.00     0.182 C 
HETATM    5  C7  UNL     1       1.838  27.800  -2.559  1.00  0.00     0.185 C 
HETATM    6  C12 UNL     1       2.350  28.336  -3.864  1.00  0.00     0.189 C 
ENDROOT
BRANCH   1   7
HETATM    7  C2  UNL     1       2.034  28.520  -6.303  1.00  0.00     0.153 C 
HETATM    8  C1  UNL     1       1.737  27.769  -7.564  1.00  0.00     0.042 C 
BRANCH   7   9
HETATM    9  O1  UNL     1       3.197  29.241  -6.325  1.00  0.00    -0.393 OA
ATOM     10  H1  UNL     1       3.975  28.750  -6.086  1.00  0.00     0.210 HD
ENDBRANCH   7   9
ENDBRANCH   1   7
BRANCH   1  11
HETATM   11  O2  UNL     1       2.841  26.561  -5.375  1.00  0.00    -0.382 OA
ATOM     12  H2  UNL     1       2.305  25.779  -5.316  1.00  0.00     0.211 HD
ENDBRANCH   1  11
BRANCH   2  13
HETATM   13  O3  UNL     1      -0.359  27.885  -5.840  1.00  0.00    -0.390 OA
ATOM     14  H3  UNL     1      -1.160  28.117  -5.386  1.00  0.00     0.210 HD
ENDBRANCH   2  13
BRANCH   6  15
HETATM   15  O6  UNL     1       2.076  29.718  -3.953  1.00  0.00    -0.390 OA
ATOM     16  H6  UNL     1       2.460  30.209  -3.236  1.00  0.00     0.210 HD
ENDBRANCH   6  15
BRANCH   3  17
HETATM   17  N1  UNL     1      -1.104  25.881  -3.695  1.00  0.00    -0.070 N 
ATOM     18  H13 UNL     1      -1.899  26.192  -3.136  1.00  0.00     0.274 HD
ATOM     19  H12 UNL     1      -1.557  25.803  -4.606  1.00  0.00     0.274 HD
ATOM     20  H11 UNL     1      -0.775  24.969  -3.378  1.00  0.00     0.274 HD
ENDBRANCH   3  17
BRANCH   5  21
HETATM   21  O5  UNL     1       0.956  28.699  -2.037  1.00  0.00    -0.371 OA
BRANCH  21  22
HETATM   22  C8  UNL     1       1.194  29.174  -0.795  1.00  0.00     0.051 C 
HETATM   23  C9  UNL     1       2.293  28.478  -0.021  1.00  0.00     0.045 C 
HETATM   24  C10 UNL     1      -0.087  28.954   0.027  1.00  0.00     0.045 C 
HETATM   25  C11 UNL     1       1.477  30.656  -0.715  1.00  0.00     0.045 C 
ENDBRANCH  21  22
ENDBRANCH   5  21
BRANCH   4  26
HETATM   26  O4  UNL     1       0.574  25.916  -1.704  1.00  0.00    -0.391 OA
ATOM     27  H4  UNL     1       1.296  25.507  -1.240  1.00  0.00     0.210 HD
ENDBRANCH   4  26
TORSDOF 9
ENDMDL
MODEL 3
REMARK VINA RESULT: -5.646211647      2.189      3.544
REMARK  9 active torsions:
REMARK  status: ('A' for Active; 'I' for Inactive)
REMARK    1  A    between atoms: C2_2  and  O1_3 
REMARK    2  A    between atoms: C2_2  and  C3_5 
REMARK    3  A    between atoms: C3_5  and  O2_6 
REMARK    4  A    between atoms: C4_8  and  O3_9 
REMARK    5  A    between atoms: C5_11  and  N1_12 
REMARK    6  A    between atoms: C6_16  and  O4_17 
REMARK    7  A    between atoms: C7_19  and  O5_20 
REMARK    8  A    between atoms: O5_20  and  C8_21 
REMARK    9  A    between atoms: C12_25  and  O6_26 
ROOT
HETATM    1  C3  UNL     1       1.365  28.122  -1.153  1.00  0.00     0.139 C 
HETATM    2  C4  UNL     1       2.018  29.058  -2.112  1.00  0.00     0.190 C 
HETATM    3  C5  UNL     1       1.846  28.687  -3.558  1.00  0.00     0.246 C 
HETATM    4  C6  UNL     1       1.746  27.155  -3.579  1.00  0.00     0.182 C 
HETATM    5  C7  UNL     1       0.350  26.846  -3.085  1.00  0.00     0.185 C 
HETATM    6  C12 UNL     1       0.215  27.344  -1.676  1.00  0.00     0.189 C 
ENDROOT
BRANCH   1   7
HETATM    7  C2  UNL     1       0.898  29.002   0.017  1.00  0.00     0.153 C 
HETATM    8  C1  UNL     1       2.064  29.665   0.684  1.00  0.00     0.042 C 
BRANCH   7   9
HETATM    9  O1  UNL     1       0.044  28.353   0.867  1.00  0.00    -0.393 OA
ATOM     10  H1  UNL     1      -0.831  28.214   0.523  1.00  0.00     0.210 HD
ENDBRANCH   7   9
ENDBRANCH   1   7
BRANCH   1  11
HETATM   11  O2  UNL     1       2.310  27.258  -0.544  1.00  0.00    -0.382 OA
ATOM     12  H2  UNL     1       2.987  27.182  -1.206  1.00  0.00     0.211 HD
ENDBRANCH   1  11
BRANCH   2  13
HETATM   13  O3  UNL     1       1.657  30.393  -1.941  1.00  0.00    -0.390 OA
ATOM     14  H3  UNL     1       1.715  30.915  -2.732  1.00  0.00     0.210 HD
ENDBRANCH   2  13
BRANCH   6  15
HETATM   15  O6  UNL     1      -1.008  28.032  -1.527  1.00  0.00    -0.390 OA
ATOM     16  H6  UNL     1      -1.378  28.295  -2.362  1.00  0.00     0.210 HD
ENDBRANCH   6  15
BRANCH   3  17
HETATM   17  N1  UNL     1       2.913  29.154  -4.403  1.00  0.00    -0.070 N 
ATOM     18  H13 UNL     1       2.809  30.150  -4.597  1.00  0.00     0.274 HD
ATOM     19  H12 UNL     1       3.796  29.171  -3.892  1.00  0.00     0.274 HD
ATOM     20  H11 UNL     1       3.009  28.625  -5.270  1.00  0.00     0.274 HD
ENDBRANCH   3  17
BRANCH   5  21
HETATM   21  O5  UNL     1      -0.546  27.513  -3.867  1.00  0.00    -0.371 OA
BRANCH  21  22
HETATM   22  C8  UNL     1      -1.459  26.787  -4.548  1.00  0.00     0.051 C 
HETATM   23  C9  UNL     1      -1.242  25.289  -4.551  1.00  0.00     0.045 C 
HETATM   24  C10 UNL     1      -1.371  27.215  -6.023  1.00  0.00     0.045 C 
HETATM   25  C11 UNL     1      -2.897  27.018  -4.145  1.00  0.00     0.045 C 
ENDBRANCH  21  22
ENDBRANCH   5  21
BRANCH   4  26
HETATM   26  O4  UNL     1       1.993  26.762  -4.867  1.00  0.00    -0.391 OA
ATOM     27  H4  UNL     1       2.731  26.165  -4.833  1.00  0.00     0.210 HD
ENDBRANCH   4  26
TORSDOF 9
ENDMDL
MODEL 4
REMARK VINA RESULT: -5.592092304      4.306      5.841
REMARK  9 active torsions:
REMARK  status: ('A' for Active; 'I' for Inactive)
REMARK    1  A    between atoms: C2_2  and  O1_3 
REMARK    2  A    between atoms: C2_2  and  C3_5 
REMARK    3  A    between atoms: C3_5  and  O2_6 
REMARK    4  A    between atoms: C4_8  and  O3_9 
REMARK    5  A    between atoms: C5_11  and  N1_12 
REMARK    6  A    between atoms: C6_16  and  O4_17 
REMARK    7  A    between atoms: C7_19  and  O5_20 
REMARK    8  A    between atoms: O5_20  and  C8_21 
REMARK    9  A    between atoms: C12_25  and  O6_26 
ROOT
HETATM    1  C3  UNL     1      -3.030  26.286  -4.640  1.00  0.00     0.139 C 
HETATM    2  C4  UNL     1      -3.838  25.033  -4.678  1.00  0.00     0.190 C 
HETATM    3  C5  UNL     1      -4.916  25.020  -5.725  1.00  0.00     0.246 C 
HETATM    4  C6  UNL     1      -5.348  26.484  -5.887  1.00  0.00     0.182 C 
HETATM    5  C7  UNL     1      -4.242  27.132  -6.691  1.00  0.00     0.185 C 
HETATM    6  C12 UNL     1      -2.968  27.064  -5.902  1.00  0.00     0.189 C 
ENDROOT
BRANCH   1   7
HETATM    7  C2  UNL     1      -1.614  25.842  -4.242  1.00  0.00     0.153 C 
HETATM    8  C1  UNL     1      -0.874  26.959  -3.571  1.00  0.00     0.042 C 
BRANCH   7   9
HETATM    9  O1  UNL     1      -0.936  25.237  -5.265  1.00  0.00    -0.393 OA
ATOM     10  H1  UNL     1      -0.372  24.520  -5.000  1.00  0.00     0.210 HD
ENDBRANCH   7   9
ENDBRANCH   1   7
BRANCH   1  11
HETATM   11  O2  UNL     1      -3.417  27.123  -3.563  1.00  0.00    -0.382 OA
ATOM     12  H2  UNL     1      -3.681  27.924  -3.999  1.00  0.00     0.211 HD
ENDBRANCH   1  11
BRANCH   2  13
HETATM   13  O3  UNL     1      -3.080  23.870  -4.793  1.00  0.00    -0.390 OA
ATOM     14  H3  UNL     1      -3.523  23.162  -5.246  1.00  0.00     0.210 HD
ENDBRANCH   2  13
BRANCH   6  15
HETATM   15  O6  UNL     1      -1.910  26.644  -6.737  1.00  0.00    -0.390 OA
ATOM     16  H6  UNL     1      -1.979  25.726  -6.972  1.00  0.00     0.210 HD
ENDBRANCH   6  15
BRANCH   3  17
HETATM   17  N1  UNL     1      -6.034  24.178  -5.388  1.00  0.00    -0.070 N 
ATOM     18  H13 UNL     1      -6.284  23.579  -6.175  1.00  0.00     0.274 HD
ATOM     19  H12 UNL     1      -5.758  23.465  -4.712  1.00  0.00     0.274 HD
ATOM     20  H11 UNL     1      -6.848  24.695  -5.055  1.00  0.00     0.274 HD
ENDBRANCH   3  17
BRANCH   5  21
HETATM   21  O5  UNL     1      -4.074  26.427  -7.846  1.00  0.00    -0.371 OA
BRANCH  21  22
HETATM   22  C8  UNL     1      -4.204  27.088  -9.018  1.00  0.00     0.051 C 
HETATM   23  C9  UNL     1      -4.615  28.541  -8.914  1.00  0.00     0.045 C 
HETATM   24  C10 UNL     1      -5.333  26.399  -9.804  1.00  0.00     0.045 C 
HETATM   25  C11 UNL     1      -2.995  27.041  -9.922  1.00  0.00     0.045 C 
ENDBRANCH  21  22
ENDBRANCH   5  21
BRANCH   4  26
HETATM   26  O4  UNL     1      -6.567  26.468  -6.509  1.00  0.00    -0.391 OA
ATOM     27  H4  UNL     1      -6.399  26.540  -7.441  1.00  0.00     0.210 HD
ENDBRANCH   4  26
TORSDOF 9
ENDMDL
MODEL 5
REMARK VINA RESULT: -5.404571385      1.950      4.902
REMARK  9 active torsions:
REMARK  status: ('A' for Active; 'I' for Inactive)
REMARK    1  A    between atoms: C2_2  and  O1_3 
REMARK    2  A    between atoms: C2_2  and  C3_5 
REMARK    3  A    between atoms: C3_5  and  O2_6 
REMARK    4  A    between atoms: C4_8  and  O3_9 
REMARK    5  A    between atoms: C5_11  and  N1_12 
REMARK    6  A    between atoms: C6_16  and  O4_17 
REMARK    7  A    between atoms: C7_19  and  O5_20 
REMARK    8  A    between atoms: O5_20  and  C8_21 
REMARK    9  A    between atoms: C12_25  and  O6_26 
ROOT
HETATM    1  C3  UNL     1       2.546  28.081  -4.941  1.00  0.00     0.139 C 
HETATM    2  C4  UNL     1       1.184  27.725  -5.430  1.00  0.00     0.190 C 
HETATM    3  C5  UNL     1       0.219  27.326  -4.350  1.00  0.00     0.246 C 
HETATM    4  C6  UNL     1       1.078  26.683  -3.252  1.00  0.00     0.182 C 
HETATM    5  C7  UNL     1       1.753  27.843  -2.552  1.00  0.00     0.185 C 
HETATM    6  C12 UNL     1       2.636  28.552  -3.536  1.00  0.00     0.189 C 
ENDROOT
BRANCH   1   7
HETATM    7  C2  UNL     1       3.039  29.189  -5.884  1.00  0.00     0.153 C 
HETATM    8  C1  UNL     1       4.510  29.417  -5.718  1.00  0.00     0.042 C 
BRANCH   7   9
HETATM    9  O1  UNL     1       2.272  30.322  -5.826  1.00  0.00    -0.393 OA
ATOM     10  H1  UNL     1       1.778  30.427  -5.021  1.00  0.00     0.210 HD
ENDBRANCH   7   9
ENDBRANCH   1   7
BRANCH   1  11
HETATM   11  O2  UNL     1       3.472  27.033  -5.170  1.00  0.00    -0.382 OA
ATOM     12  H2  UNL     1       3.552  26.628  -4.315  1.00  0.00     0.211 HD
ENDBRANCH   1  11
BRANCH   2  13
HETATM   13  O3  UNL     1       0.591  28.703  -6.227  1.00  0.00    -0.390 OA
ATOM     14  H3  UNL     1      -0.037  28.364  -6.855  1.00  0.00     0.210 HD
ENDBRANCH   2  13
BRANCH   6  15
HETATM   15  O6  UNL     1       2.450  29.947  -3.427  1.00  0.00    -0.390 OA
ATOM     16  H6  UNL     1       2.545  30.254  -2.533  1.00  0.00     0.210 HD
ENDBRANCH   6  15
BRANCH   3  17
HETATM   17  N1  UNL     1      -0.811  26.429  -4.801  1.00  0.00    -0.070 N 
ATOM     18  H13 UNL     1      -0.845  26.402  -5.821  1.00  0.00     0.274 HD
ATOM     19  H12 UNL     1      -0.554  25.460  -4.614  1.00  0.00     0.274 HD
ATOM     20  H11 UNL     1      -1.732  26.638  -4.415  1.00  0.00     0.274 HD
ENDBRANCH   3  17
BRANCH   5  21
HETATM   21  O5  UNL     1       0.793  28.713  -2.127  1.00  0.00    -0.371 OA
BRANCH  21  22
HETATM   22  C8  UNL     1       0.682  28.938  -0.800  1.00  0.00     0.051 C 
HETATM   23  C9  UNL     1      -0.728  28.969  -0.250  1.00  0.00     0.045 C 
HETATM   24  C10 UNL     1       1.258  30.339  -0.528  1.00  0.00     0.045 C 
HETATM   25  C11 UNL     1       1.472  27.999   0.082  1.00  0.00     0.045 C 
ENDBRANCH  21  22
ENDBRANCH   5  21
BRANCH   4  26
HETATM   26  O4  UNL     1       0.227  25.960  -2.459  1.00  0.00    -0.391 OA
ATOM     27  H4  UNL     1       0.766  25.358  -1.959  1.00  0.00     0.210 HD
ENDBRANCH   4  26
TORSDOF 9
ENDMDL
