MODEL 1
REMARK VINA RESULT: -6.836551767      0.000      0.000
REMARK  8 active torsions:
REMARK  status: ('A' for Active; 'I' for Inactive)
REMARK    1  A    between atoms: C2_2  and  O1_3 
REMARK    2  A    between atoms: C2_2  and  C3_5 
REMARK    3  A    between atoms: C3_5  and  O2_6 
REMARK    4  A    between atoms: O2_6  and  C4_7 
REMARK    5  A    between atoms: C7_12  and  O5_13 
REMARK    6  A    between atoms: C8_15  and  O6_16 
REMARK    7  A    between atoms: C9_18  and  O7_20 
REMARK    8  A    between atoms: C11_22  and  O8_23 
ROOT
HETATM    1  C4  UNL     1       1.247  27.937  -4.497  1.00  0.00     0.414 C 
HETATM    2  O3  UNL     1       0.323  26.911  -4.353  1.00  0.00    -0.336 OA
HETATM    3  C5  UNL     1      -0.231  27.241  -3.093  1.00  0.00     0.217 C 
HETATM    4  C6  UNL     1       0.990  27.656  -2.333  1.00  0.00     0.144 C 
HETATM    5  O4  UNL     1       1.975  27.843  -3.317  1.00  0.00    -0.320 OA
HETATM    6  C7  UNL     1       1.415  26.672  -1.282  1.00  0.00     0.189 C 
HETATM    7  C8  UNL     1       0.579  27.002  -0.070  1.00  0.00     0.186 C 
HETATM    8  C9  UNL     1       0.523  28.499  -0.110  1.00  0.00     0.111 C 
HETATM    9  C10 UNL     1       1.601  29.019   0.838  1.00  0.00     0.051 C 
HETATM   10  C11 UNL     1       0.785  28.921  -1.525  1.00  0.00     0.194 C 
ENDROOT
BRANCH   6  11
HETATM   11  O5  UNL     1       1.287  25.352  -1.673  1.00  0.00    -0.390 OA
ATOM     12  H5  UNL     1       2.114  24.890  -1.730  1.00  0.00     0.210 HD
ENDBRANCH   6  11
BRANCH  10  13
HETATM   13  O8  UNL     1       1.951  29.710  -1.561  1.00  0.00    -0.389 OA
ATOM     14  H8  UNL     1       1.726  30.615  -1.739  1.00  0.00     0.210 HD
ENDBRANCH  10  13
BRANCH   1  15
HETATM   15  O2  UNL     1       1.996  27.881  -5.628  1.00  0.00    -0.337 OA
BRANCH  15  16
HETATM   16  C3  UNL     1       2.692  29.000  -5.974  1.00  0.00     0.204 C 
BRANCH  16  17
HETATM   17  C2  UNL     1       3.973  29.213  -5.226  1.00  0.00     0.138 C 
HETATM   18  C1  UNL     1       5.016  29.936  -6.040  1.00  0.00     0.041 C 
BRANCH  17  19
HETATM   19  O1  UNL     1       3.713  29.994  -4.092  1.00  0.00    -0.394 OA
ATOM     20  H1  UNL     1       3.369  29.415  -3.422  1.00  0.00     0.210 HD
ENDBRANCH  17  19
ENDBRANCH  16  17
ENDBRANCH  15  16
ENDBRANCH   1  15
BRANCH   7  21
HETATM   21  O6  UNL     1      -0.696  26.451  -0.141  1.00  0.00    -0.390 OA
ATOM     22  H6  UNL     1      -1.145  26.472   0.696  1.00  0.00     0.210 HD
ENDBRANCH   7  21
BRANCH   8  23
HETATM   23  O7  UNL     1      -0.723  28.944   0.318  1.00  0.00    -0.385 OA
ATOM     24  H7  UNL     1      -0.839  29.860   0.094  1.00  0.00     0.210 HD
ENDBRANCH   8  23
TORSDOF 8
ENDMDL
MODEL 2
REMARK VINA RESULT: -6.749275447      1.943      2.870
REMARK  8 active torsions:
REMARK  status: ('A' for Active; 'I' for Inactive)
REMARK    1  A    between atoms: C2_2  and  O1_3 
REMARK    2  A    between atoms: C2_2  and  C3_5 
REMARK    3  A    between atoms: C3_5  and  O2_6 
REMARK    4  A    between atoms: O2_6  and  C4_7 
REMARK    5  A    between atoms: C7_12  and  O5_13 
REMARK    6  A    between atoms: C8_15  and  O6_16 
REMARK    7  A    between atoms: C9_18  and  O7_20 
REMARK    8  A    between atoms: C11_22  and  O8_23 
ROOT
HETATM    1  C4  UNL     1       0.344  27.510  -4.537  1.00  0.00     0.414 C 
HETATM    2  O3  UNL     1      -0.433  26.438  -4.119  1.00  0.00    -0.336 OA
HETATM    3  C5  UNL     1      -0.736  26.841  -2.797  1.00  0.00     0.217 C 
HETATM    4  C6  UNL     1       0.575  27.411  -2.355  1.00  0.00     0.144 C 
HETATM    5  O4  UNL     1       1.309  27.578  -3.540  1.00  0.00    -0.320 OA
HETATM    6  C7  UNL     1       1.299  26.561  -1.350  1.00  0.00     0.189 C 
HETATM    7  C8  UNL     1       0.711  26.940  -0.014  1.00  0.00     0.186 C 
HETATM    8  C9  UNL     1       0.513  28.419  -0.151  1.00  0.00     0.111 C 
HETATM    9  C10 UNL     1       1.716  29.099   0.497  1.00  0.00     0.051 C 
HETATM   10  C11 UNL     1       0.432  28.727  -1.617  1.00  0.00     0.194 C 
ENDROOT
BRANCH   6  11
HETATM   11  O5  UNL     1       1.210  25.205  -1.606  1.00  0.00    -0.390 OA
ATOM     12  H5  UNL     1       1.535  24.662  -0.898  1.00  0.00     0.210 HD
ENDBRANCH   6  11
BRANCH  10  13
HETATM   13  O8  UNL     1       1.488  29.591  -1.964  1.00  0.00    -0.389 OA
ATOM     14  H8  UNL     1       1.798  30.051  -1.194  1.00  0.00     0.210 HD
ENDBRANCH  10  13
BRANCH   1  15
HETATM   15  O2  UNL     1       0.839  27.404  -5.797  1.00  0.00    -0.337 OA
BRANCH  15  16
HETATM   16  C3  UNL     1       0.077  26.745  -6.715  1.00  0.00     0.204 C 
BRANCH  16  17
HETATM   17  C2  UNL     1      -1.147  27.478  -7.173  1.00  0.00     0.138 C 
HETATM   18  C1  UNL     1      -1.310  27.469  -8.672  1.00  0.00     0.041 C 
BRANCH  17  19
HETATM   19  O1  UNL     1      -2.279  26.857  -6.627  1.00  0.00    -0.394 OA
ATOM     20  H1  UNL     1      -2.250  26.993  -5.687  1.00  0.00     0.210 HD
ENDBRANCH  17  19
ENDBRANCH  16  17
ENDBRANCH  15  16
ENDBRANCH   1  15
BRANCH   7  21
HETATM   21  O6  UNL     1      -0.495  26.294   0.236  1.00  0.00    -0.390 OA
ATOM     22  H6  UNL     1      -0.715  26.283   1.160  1.00  0.00     0.210 HD
ENDBRANCH   7  21
BRANCH   8  23
HETATM   23  O7  UNL     1      -0.650  28.810   0.503  1.00  0.00    -0.385 OA
ATOM     24  H7  UNL     1      -0.780  28.284   1.283  1.00  0.00     0.210 HD
ENDBRANCH   8  23
TORSDOF 8
ENDMDL
MODEL 3
REMARK VINA RESULT: -6.346469384      2.158      3.025
REMARK  8 active torsions:
REMARK  status: ('A' for Active; 'I' for Inactive)
REMARK    1  A    between atoms: C2_2  and  O1_3 
REMARK    2  A    between atoms: C2_2  and  C3_5 
REMARK    3  A    between atoms: C3_5  and  O2_6 
REMARK    4  A    between atoms: O2_6  and  C4_7 
REMARK    5  A    between atoms: C7_12  and  O5_13 
REMARK    6  A    between atoms: C8_15  and  O6_16 
REMARK    7  A    between atoms: C9_18  and  O7_20 
REMARK    8  A    between atoms: C11_22  and  O8_23 
ROOT
HETATM    1  C4  UNL     1      -0.051  26.938  -4.637  1.00  0.00     0.414 C 
HETATM    2  O3  UNL     1      -1.195  26.664  -3.899  1.00  0.00    -0.336 OA
HETATM    3  C5  UNL     1      -1.021  27.557  -2.816  1.00  0.00     0.217 C 
HETATM    4  C6  UNL     1       0.446  27.420  -2.552  1.00  0.00     0.144 C 
HETATM    5  O4  UNL     1       0.954  26.775  -3.691  1.00  0.00    -0.320 OA
HETATM    6  C7  UNL     1       0.769  26.680  -1.286  1.00  0.00     0.189 C 
HETATM    7  C8  UNL     1       0.694  27.715  -0.192  1.00  0.00     0.186 C 
HETATM    8  C9  UNL     1       1.282  28.927  -0.848  1.00  0.00     0.111 C 
HETATM    9  C10 UNL     1       2.749  29.000  -0.434  1.00  0.00     0.051 C 
HETATM   10  C11 UNL     1       1.137  28.751  -2.331  1.00  0.00     0.194 C 
ENDROOT
BRANCH   6  11
HETATM   11  O5  UNL     1      -0.058  25.597  -1.051  1.00  0.00    -0.390 OA
ATOM     12  H5  UNL     1       0.166  25.110  -0.267  1.00  0.00     0.210 HD
ENDBRANCH   6  11
BRANCH  10  13
HETATM   13  O8  UNL     1       2.416  28.733  -2.919  1.00  0.00    -0.389 OA
ATOM     14  H8  UNL     1       2.384  29.134  -3.779  1.00  0.00     0.210 HD
ENDBRANCH  10  13
BRANCH   1  15
HETATM   15  O2  UNL     1       0.102  26.189  -5.759  1.00  0.00    -0.337 OA
BRANCH  15  16
HETATM   16  C3  UNL     1       0.241  26.854  -6.940  1.00  0.00     0.204 C 
BRANCH  16  17
HETATM   17  C2  UNL     1      -0.949  27.659  -7.365  1.00  0.00     0.138 C 
HETATM   18  C1  UNL     1      -0.813  28.220  -8.758  1.00  0.00     0.041 C 
BRANCH  17  19
HETATM   19  O1  UNL     1      -2.082  26.834  -7.356  1.00  0.00    -0.394 OA
ATOM     20  H1  UNL     1      -2.278  26.614  -8.260  1.00  0.00     0.210 HD
ENDBRANCH  17  19
ENDBRANCH  16  17
ENDBRANCH  15  16
ENDBRANCH   1  15
BRANCH   7  21
HETATM   21  O6  UNL     1      -0.612  27.954   0.223  1.00  0.00    -0.390 OA
ATOM     22  H6  UNL     1      -0.671  28.119   1.156  1.00  0.00     0.210 HD
ENDBRANCH   7  21
BRANCH   8  23
HETATM   23  O7  UNL     1       0.622  30.074  -0.418  1.00  0.00    -0.385 OA
ATOM     24  H7  UNL     1       1.096  30.848  -0.696  1.00  0.00     0.210 HD
ENDBRANCH   8  23
TORSDOF 8
ENDMDL
MODEL 4
REMARK VINA RESULT: -5.852963990      3.196      6.556
REMARK  8 active torsions:
REMARK  status: ('A' for Active; 'I' for Inactive)
REMARK    1  A    between atoms: C2_2  and  O1_3 
REMARK    2  A    between atoms: C2_2  and  C3_5 
REMARK    3  A    between atoms: C3_5  and  O2_6 
REMARK    4  A    between atoms: O2_6  and  C4_7 
REMARK    5  A    between atoms: C7_12  and  O5_13 
REMARK    6  A    between atoms: C8_15  and  O6_16 
REMARK    7  A    between atoms: C9_18  and  O7_20 
REMARK    8  A    between atoms: C11_22  and  O8_23 
ROOT
HETATM    1  C4  UNL     1      -1.053  25.889  -4.857  1.00  0.00     0.414 C 
HETATM    2  O3  UNL     1      -0.413  26.558  -3.822  1.00  0.00    -0.336 OA
HETATM    3  C5  UNL     1       0.041  27.711  -4.504  1.00  0.00     0.217 C 
HETATM    4  C6  UNL     1       0.497  27.125  -5.804  1.00  0.00     0.144 C 
HETATM    5  O4  UNL     1      -0.061  25.837  -5.829  1.00  0.00    -0.320 OA
HETATM    6  C7  UNL     1       1.989  27.104  -5.970  1.00  0.00     0.189 C 
HETATM    7  C8  UNL     1       2.349  28.473  -6.489  1.00  0.00     0.186 C 
HETATM    8  C9  UNL     1       1.218  28.776  -7.425  1.00  0.00     0.111 C 
HETATM    9  C10 UNL     1       1.688  28.424  -8.834  1.00  0.00     0.051 C 
HETATM   10  C11 UNL     1       0.051  27.931  -7.007  1.00  0.00     0.194 C 
ENDROOT
BRANCH   6  11
HETATM   11  O5  UNL     1       2.671  26.777  -4.813  1.00  0.00    -0.390 OA
ATOM     12  H5  UNL     1       3.212  27.483  -4.478  1.00  0.00     0.210 HD
ENDBRANCH   6  11
BRANCH  10  13
HETATM   13  O8  UNL     1      -0.293  27.068  -8.065  1.00  0.00    -0.389 OA
ATOM     14  H8  UNL     1      -0.459  26.194  -7.731  1.00  0.00     0.210 HD
ENDBRANCH  10  13
BRANCH   1  15
HETATM   15  O2  UNL     1      -1.580  24.684  -4.522  1.00  0.00    -0.337 OA
BRANCH  15  16
HETATM   16  C3  UNL     1      -2.900  24.650  -4.183  1.00  0.00     0.204 C 
BRANCH  16  17
HETATM   17  C2  UNL     1      -3.776  25.608  -4.933  1.00  0.00     0.138 C 
HETATM   18  C1  UNL     1      -5.049  24.971  -5.432  1.00  0.00     0.041 C 
BRANCH  17  19
HETATM   19  O1  UNL     1      -4.142  26.655  -4.076  1.00  0.00    -0.394 OA
ATOM     20  H1  UNL     1      -3.506  27.351  -4.194  1.00  0.00     0.210 HD
ENDBRANCH  17  19
ENDBRANCH  16  17
ENDBRANCH  15  16
ENDBRANCH   1  15
BRANCH   7  21
HETATM   21  O6  UNL     1       2.427  29.421  -5.474  1.00  0.00    -0.390 OA
ATOM     22  H6  UNL     1       1.830  30.147  -5.611  1.00  0.00     0.210 HD
ENDBRANCH   7  21
BRANCH   8  23
HETATM   23  O7  UNL     1       0.898  30.128  -7.368  1.00  0.00    -0.385 OA
ATOM     24  H7  UNL     1       0.687  30.378  -6.477  1.00  0.00     0.210 HD
ENDBRANCH   8  23
TORSDOF 8
ENDMDL
MODEL 5
REMARK VINA RESULT: -5.845074634      5.625      8.360
REMARK  8 active torsions:
REMARK  status: ('A' for Active; 'I' for Inactive)
REMARK    1  A    between atoms: C2_2  and  O1_3 
REMARK    2  A    between atoms: C2_2  and  C3_5 
REMARK    3  A    between atoms: C3_5  and  O2_6 
REMARK    4  A    between atoms: O2_6  and  C4_7 
REMARK    5  A    between atoms: C7_12  and  O5_13 
REMARK    6  A    between atoms: C8_15  and  O6_16 
REMARK    7  A    between atoms: C9_18  and  O7_20 
REMARK    8  A    between atoms: C11_22  and  O8_23 
ROOT
HETATM    1  C4  UNL     1      -3.667  26.771  -5.756  1.00  0.00     0.414 C 
HETATM    2  O3  UNL     1      -4.975  27.201  -5.929  1.00  0.00    -0.336 OA
HETATM    3  C5  UNL     1      -5.077  27.152  -7.339  1.00  0.00     0.217 C 
HETATM    4  C6  UNL     1      -3.742  27.689  -7.751  1.00  0.00     0.144 C 
HETATM    5  O4  UNL     1      -2.962  27.637  -6.584  1.00  0.00    -0.320 OA
HETATM    6  C7  UNL     1      -3.798  29.070  -8.338  1.00  0.00     0.189 C 
HETATM    7  C8  UNL     1      -4.138  28.867  -9.794  1.00  0.00     0.186 C 
HETATM    8  C9  UNL     1      -3.358  27.636 -10.143  1.00  0.00     0.111 C 
HETATM    9  C10 UNL     1      -2.057  28.093 -10.797  1.00  0.00     0.051 C 
HETATM   10  C11 UNL     1      -3.099  26.891  -8.867  1.00  0.00     0.194 C 
ENDROOT
BRANCH   6  11
HETATM   11  O5  UNL     1      -4.689  29.909  -7.696  1.00  0.00    -0.390 OA
ATOM     12  H5  UNL     1      -4.274  30.651  -7.272  1.00  0.00     0.210 HD
ENDBRANCH   6  11
BRANCH  10  13
HETATM   13  O8  UNL     1      -1.709  26.805  -8.659  1.00  0.00    -0.389 OA
ATOM     14  H8  UNL     1      -1.266  26.642  -9.483  1.00  0.00     0.210 HD
ENDBRANCH  10  13
BRANCH   1  15
HETATM   15  O2  UNL     1      -3.236  26.745  -4.469  1.00  0.00    -0.337 OA
BRANCH  15  16
HETATM   16  C3  UNL     1      -2.011  26.197  -4.231  1.00  0.00     0.204 C 
BRANCH  16  17
HETATM   17  C2  UNL     1      -0.900  27.180  -4.022  1.00  0.00     0.138 C 
HETATM   18  C1  UNL     1      -0.522  27.341  -2.571  1.00  0.00     0.041 C 
BRANCH  17  19
HETATM   19  O1  UNL     1       0.239  26.730  -4.703  1.00  0.00    -0.394 OA
ATOM     20  H1  UNL     1       0.368  25.819  -4.466  1.00  0.00     0.210 HD
ENDBRANCH  17  19
ENDBRANCH  16  17
ENDBRANCH  15  16
ENDBRANCH   1  15
BRANCH   7  21
HETATM   21  O6  UNL     1      -5.499  28.672  -9.997  1.00  0.00    -0.390 OA
ATOM     22  H6  UNL     1      -5.733  28.684 -10.918  1.00  0.00     0.210 HD
ENDBRANCH   7  21
BRANCH   8  23
HETATM   23  O7  UNL     1      -4.076  26.851 -11.039  1.00  0.00    -0.385 OA
ATOM     24  H7  UNL     1      -3.760  25.956 -11.017  1.00  0.00     0.210 HD
ENDBRANCH   8  23
TORSDOF 8
ENDMDL
