MODEL 1
REMARK VINA RESULT: -7.247135552      0.000      0.000
REMARK  4 active torsions:
REMARK  status: ('A' for Active; 'I' for Inactive)
REMARK    1  A    between atoms: C2_3  and  C3_4 
REMARK    2  A    between atoms: C7_10  and  O1_11 
REMARK    3  A    between atoms: C8_15  and  N5_16 
REMARK    4  A    between atoms: C9_19  and  N6_20 
REMARK       I    between atoms: N6_20  and  C10_22 
REMARK       I    between atoms: C10_22  and  N8_26 
ROOT
HETATM    1  C3  UNL     1       3.564  28.987  -4.518  1.00  0.00     0.068 C 
HETATM    2  C4  UNL     1       3.674  29.925  -5.405  1.00  0.00     0.127 C 
HETATM    3  C5  UNL     1       2.656  30.846  -5.773  1.00  0.00     0.111 C 
HETATM    4  N2  UNL     1       1.828  31.597  -6.105  1.00  0.00    -0.191 NA
HETATM    5  C6  UNL     1       4.957  30.058  -6.097  1.00  0.00     0.111 C 
HETATM    6  N3  UNL     1       5.955  30.166  -6.651  1.00  0.00    -0.191 NA
ENDROOT
BRANCH   1   7
HETATM    7  C2  UNL     1       2.372  28.707  -3.728  1.00  0.00     0.089 A 
HETATM    8  N1  UNL     1       1.503  27.794  -4.203  1.00  0.00    -0.331 N 
HETATM    9  C1  UNL     1       1.816  27.189  -5.508  1.00  0.00     0.158 C 
HETATM   10  C9  UNL     1       0.389  27.426  -3.543  1.00  0.00     0.167 A 
HETATM   11  C8  UNL     1       0.125  28.015  -2.317  1.00  0.00     0.146 A 
HETATM   12  N4  UNL     1       0.976  28.925  -1.822  1.00  0.00    -0.319 N 
HETATM   13  C7  UNL     1       2.091  29.272  -2.515  1.00  0.00     0.169 A 
ATOM     14  H4  UNL     1       0.784  29.360  -0.920  1.00  0.00     0.169 HD
BRANCH  10  15
HETATM   15  N6  UNL     1      -0.340  26.560  -4.101  1.00  0.00    -0.172 N 
HETATM   16  C10 UNL     1      -1.567  26.704  -4.756  1.00  0.00     0.686 C 
HETATM   17  N7  UNL     1      -1.583  26.893  -6.024  1.00  0.00    -0.234 N 
HETATM   18  N8  UNL     1      -2.809  26.648  -4.076  1.00  0.00    -0.126 N 
ATOM     19  H72 UNL     1      -0.689  26.934  -6.514  1.00  0.00     0.174 HD
ATOM     20  H71 UNL     1      -2.478  26.998  -6.502  1.00  0.00     0.174 HD
HETATM   21  C11 UNL     1      -4.006  26.424  -4.760  1.00  0.00     0.196 C 
ATOM     22  H8  UNL     1      -2.829  26.772  -3.063  1.00  0.00     0.197 HD
HETATM   23  N9  UNL     1      -5.002  26.221  -5.330  1.00  0.00    -0.171 NA
ATOM     24  H6  UNL     1       0.022  25.607  -4.070  1.00  0.00     0.186 HD
ENDBRANCH  10  15
BRANCH  11  25
HETATM   25  N5  UNL     1      -0.947  27.667  -1.674  1.00  0.00    -0.382 N 
ATOM     26  H52 UNL     1      -1.102  28.041  -0.738  1.00  0.00     0.157 HD
ATOM     27  H51 UNL     1      -1.633  27.031  -2.083  1.00  0.00     0.157 HD
ENDBRANCH  11  25
BRANCH  13  28
HETATM   28  O1  UNL     1       2.965  30.209  -1.988  1.00  0.00    -0.344 OA
ATOM     29  H1  UNL     1       2.654  30.808  -1.319  1.00  0.00     0.219 HD
ENDBRANCH  13  28
ENDBRANCH   1   7
TORSDOF 4
ENDMDL
MODEL 2
REMARK VINA RESULT: -6.973180196      1.128      1.167
REMARK  4 active torsions:
REMARK  status: ('A' for Active; 'I' for Inactive)
REMARK    1  A    between atoms: C2_3  and  C3_4 
REMARK    2  A    between atoms: C7_10  and  O1_11 
REMARK    3  A    between atoms: C8_15  and  N5_16 
REMARK    4  A    between atoms: C9_19  and  N6_20 
REMARK       I    between atoms: N6_20  and  C10_22 
REMARK       I    between atoms: C10_22  and  N8_26 
ROOT
HETATM    1  C3  UNL     1       3.312  28.712  -4.844  1.00  0.00     0.068 C 
HETATM    2  C4  UNL     1       3.554  29.778  -5.540  1.00  0.00     0.127 C 
HETATM    3  C5  UNL     1       2.604  30.776  -5.891  1.00  0.00     0.111 C 
HETATM    4  N2  UNL     1       1.837  31.595  -6.207  1.00  0.00    -0.191 NA
HETATM    5  C6  UNL     1       4.923  29.983  -6.013  1.00  0.00     0.111 C 
HETATM    6  N3  UNL     1       5.992  30.150  -6.396  1.00  0.00    -0.191 NA
ENDROOT
BRANCH   1   7
HETATM    7  C2  UNL     1       2.017  28.343  -4.286  1.00  0.00     0.089 A 
HETATM    8  N1  UNL     1       1.197  27.590  -5.046  1.00  0.00    -0.331 N 
HETATM    9  C1  UNL     1       1.667  27.242  -6.396  1.00  0.00     0.158 C 
HETATM   10  C9  UNL     1      -0.005  27.158  -4.622  1.00  0.00     0.167 A 
HETATM   11  C8  UNL     1      -0.418  27.503  -3.345  1.00  0.00     0.146 A 
HETATM   12  N4  UNL     1       0.382  28.250  -2.570  1.00  0.00    -0.319 N 
HETATM   13  C7  UNL     1       1.589  28.670  -3.029  1.00  0.00     0.169 A 
ATOM     14  H4  UNL     1       0.081  28.506  -1.630  1.00  0.00     0.169 HD
BRANCH  10  15
HETATM   15  N6  UNL     1      -0.675  26.460  -5.434  1.00  0.00    -0.172 N 
HETATM   16  C10 UNL     1      -1.768  26.810  -6.231  1.00  0.00     0.686 C 
HETATM   17  N7  UNL     1      -1.565  27.216  -7.431  1.00  0.00    -0.234 N 
HETATM   18  N8  UNL     1      -3.106  26.734  -5.771  1.00  0.00    -0.126 N 
ATOM     19  H72 UNL     1      -0.603  27.270  -7.762  1.00  0.00     0.174 HD
ATOM     20  H71 UNL     1      -2.363  27.470  -8.013  1.00  0.00     0.174 HD
HETATM   21  C11 UNL     1      -4.184  26.726  -6.660  1.00  0.00     0.196 C 
ATOM     22  H8  UNL     1      -3.286  26.684  -4.768  1.00  0.00     0.197 HD
HETATM   23  N9  UNL     1      -5.081  26.702  -7.404  1.00  0.00    -0.171 NA
ATOM     24  H6  UNL     1      -0.370  25.491  -5.521  1.00  0.00     0.186 HD
ENDBRANCH  10  15
BRANCH  11  25
HETATM   25  N5  UNL     1      -1.576  27.091  -2.929  1.00  0.00    -0.382 N 
ATOM     26  H52 UNL     1      -2.380  27.712  -3.020  1.00  0.00     0.157 HD
ATOM     27  H51 UNL     1      -1.697  26.167  -2.515  1.00  0.00     0.157 HD
ENDBRANCH  11  25
BRANCH  13  28
HETATM   28  O1  UNL     1       2.407  29.435  -2.215  1.00  0.00    -0.344 OA
ATOM     29  H1  UNL     1       2.030  30.159  -1.730  1.00  0.00     0.219 HD
ENDBRANCH  13  28
ENDBRANCH   1   7
TORSDOF 4
ENDMDL
MODEL 3
REMARK VINA RESULT: -6.955942846      2.903      4.298
REMARK  4 active torsions:
REMARK  status: ('A' for Active; 'I' for Inactive)
REMARK    1  A    between atoms: C2_3  and  C3_4 
REMARK    2  A    between atoms: C7_10  and  O1_11 
REMARK    3  A    between atoms: C8_15  and  N5_16 
REMARK    4  A    between atoms: C9_19  and  N6_20 
REMARK       I    between atoms: N6_20  and  C10_22 
REMARK       I    between atoms: C10_22  and  N8_26 
ROOT
HETATM    1  C3  UNL     1       3.617  31.130  -6.566  1.00  0.00     0.068 C 
HETATM    2  C4  UNL     1       3.101  32.312  -6.689  1.00  0.00     0.127 C 
HETATM    3  C5  UNL     1       1.714  32.608  -6.791  1.00  0.00     0.111 C 
HETATM    4  N2  UNL     1       0.583  32.870  -6.898  1.00  0.00    -0.191 NA
HETATM    5  C6  UNL     1       4.017  33.452  -6.726  1.00  0.00     0.111 C 
HETATM    6  N3  UNL     1       4.726  34.353  -6.765  1.00  0.00    -0.191 NA
ENDROOT
BRANCH   1   7
HETATM    7  C2  UNL     1       2.867  29.882  -6.504  1.00  0.00     0.089 A 
HETATM    8  N1  UNL     1       2.761  29.271  -5.308  1.00  0.00    -0.331 N 
HETATM    9  C1  UNL     1       3.452  29.901  -4.172  1.00  0.00     0.158 C 
HETATM   10  C9  UNL     1       2.062  28.135  -5.123  1.00  0.00     0.167 A 
HETATM   11  C8  UNL     1       1.423  27.569  -6.213  1.00  0.00     0.146 A 
HETATM   12  N4  UNL     1       1.513  28.160  -7.414  1.00  0.00    -0.319 N 
HETATM   13  C7  UNL     1       2.226  29.305  -7.565  1.00  0.00     0.169 A 
ATOM     14  H4  UNL     1       1.044  27.745  -8.219  1.00  0.00     0.169 HD
BRANCH  10  15
HETATM   15  N6  UNL     1       2.044  27.667  -3.951  1.00  0.00    -0.172 N 
HETATM   16  C10 UNL     1       1.072  27.780  -2.952  1.00  0.00     0.686 C 
HETATM   17  N7  UNL     1       0.166  26.878  -2.853  1.00  0.00    -0.234 N 
HETATM   18  N8  UNL     1       1.043  28.857  -2.032  1.00  0.00    -0.126 N 
ATOM     19  H72 UNL     1       0.187  26.103  -3.516  1.00  0.00     0.174 HD
ATOM     20  H71 UNL     1      -0.543  26.961  -2.124  1.00  0.00     0.174 HD
HETATM   21  C11 UNL     1       0.320  28.778  -0.839  1.00  0.00     0.196 C 
ATOM     22  H8  UNL     1       1.562  29.709  -2.245  1.00  0.00     0.197 HD
HETATM   23  N9  UNL     1      -0.270  28.704   0.163  1.00  0.00    -0.171 NA
ATOM     24  H6  UNL     1       2.866  27.120  -3.692  1.00  0.00     0.186 HD
ENDBRANCH  10  15
BRANCH  11  25
HETATM   25  N5  UNL     1       0.748  26.474  -6.043  1.00  0.00    -0.382 N 
ATOM     26  H52 UNL     1       1.229  25.580  -6.146  1.00  0.00     0.157 HD
ATOM     27  H51 UNL     1      -0.245  26.488  -5.813  1.00  0.00     0.157 HD
ENDBRANCH  11  25
BRANCH  13  28
HETATM   28  O1  UNL     1       2.305  29.908  -8.810  1.00  0.00    -0.344 OA
ATOM     29  H1  UNL     1       1.623  29.739  -9.450  1.00  0.00     0.219 HD
ENDBRANCH  13  28
ENDBRANCH   1   7
TORSDOF 4
ENDMDL
MODEL 4
REMARK VINA RESULT: -6.903356159      2.947      4.868
REMARK  4 active torsions:
REMARK  status: ('A' for Active; 'I' for Inactive)
REMARK    1  A    between atoms: C2_3  and  C3_4 
REMARK    2  A    between atoms: C7_10  and  O1_11 
REMARK    3  A    between atoms: C8_15  and  N5_16 
REMARK    4  A    between atoms: C9_19  and  N6_20 
REMARK       I    between atoms: N6_20  and  C10_22 
REMARK       I    between atoms: C10_22  and  N8_26 
ROOT
HETATM    1  C3  UNL     1       1.465  27.829  -8.059  1.00  0.00     0.068 C 
HETATM    2  C4  UNL     1       1.467  28.967  -8.680  1.00  0.00     0.127 C 
HETATM    3  C5  UNL     1       0.581  30.051  -8.433  1.00  0.00     0.111 C 
HETATM    4  N2  UNL     1      -0.149  30.943  -8.261  1.00  0.00    -0.191 NA
HETATM    5  C6  UNL     1       2.466  29.165  -9.730  1.00  0.00     0.111 C 
HETATM    6  N3  UNL     1       3.239  29.328 -10.561  1.00  0.00    -0.191 NA
ENDROOT
BRANCH   1   7
HETATM    7  C2  UNL     1       0.553  27.454  -6.986  1.00  0.00     0.089 A 
HETATM    8  N1  UNL     1       1.030  27.461  -5.726  1.00  0.00    -0.331 N 
HETATM    9  C1  UNL     1       2.449  27.808  -5.549  1.00  0.00     0.158 C 
HETATM   10  C9  UNL     1       0.272  27.168  -4.652  1.00  0.00     0.167 A 
HETATM   11  C8  UNL     1      -1.060  26.847  -4.853  1.00  0.00     0.146 A 
HETATM   12  N4  UNL     1      -1.558  26.834  -6.098  1.00  0.00    -0.319 N 
HETATM   13  C7  UNL     1      -0.765  27.134  -7.159  1.00  0.00     0.169 A 
ATOM     14  H4  UNL     1      -2.538  26.597  -6.250  1.00  0.00     0.169 HD
BRANCH  10  15
HETATM   15  N6  UNL     1       0.843  27.211  -3.527  1.00  0.00    -0.172 N 
HETATM   16  C10 UNL     1       0.901  28.244  -2.587  1.00  0.00     0.686 C 
HETATM   17  N7  UNL     1       0.027  28.291  -1.651  1.00  0.00    -0.234 N 
HETATM   18  N8  UNL     1       1.896  29.253  -2.619  1.00  0.00    -0.126 N 
ATOM     19  H72 UNL     1      -0.689  27.565  -1.627  1.00  0.00     0.174 HD
ATOM     20  H71 UNL     1       0.069  29.045  -0.965  1.00  0.00     0.174 HD
HETATM   21  C11 UNL     1       2.170  30.045  -1.501  1.00  0.00     0.196 C 
ATOM     22  H8  UNL     1       2.425  29.405  -3.479  1.00  0.00     0.197 HD
HETATM   23  N9  UNL     1       2.408  30.692  -0.562  1.00  0.00    -0.171 NA
ATOM     24  H6  UNL     1       1.339  26.360  -3.263  1.00  0.00     0.186 HD
ENDBRANCH  10  15
BRANCH  11  25
HETATM   25  N5  UNL     1      -1.797  26.563  -3.824  1.00  0.00    -0.382 N 
ATOM     26  H52 UNL     1      -2.599  25.945  -3.949  1.00  0.00     0.157 HD
ATOM     27  H51 UNL     1      -1.594  26.943  -2.899  1.00  0.00     0.157 HD
ENDBRANCH  11  25
BRANCH  13  28
HETATM   28  O1  UNL     1      -1.294  27.124  -8.439  1.00  0.00    -0.344 OA
ATOM     29  H1  UNL     1      -1.349  27.939  -8.923  1.00  0.00     0.219 HD
ENDBRANCH  13  28
ENDBRANCH   1   7
TORSDOF 4
ENDMDL
MODEL 5
REMARK VINA RESULT: -6.872418837      2.802      4.428
REMARK  4 active torsions:
REMARK  status: ('A' for Active; 'I' for Inactive)
REMARK    1  A    between atoms: C2_3  and  C3_4 
REMARK    2  A    between atoms: C7_10  and  O1_11 
REMARK    3  A    between atoms: C8_15  and  N5_16 
REMARK    4  A    between atoms: C9_19  and  N6_20 
REMARK       I    between atoms: N6_20  and  C10_22 
REMARK       I    between atoms: C10_22  and  N8_26 
ROOT
HETATM    1  C3  UNL     1       2.651  31.424  -6.093  1.00  0.00     0.068 C 
HETATM    2  C4  UNL     1       3.671  31.835  -6.779  1.00  0.00     0.127 C 
HETATM    3  C5  UNL     1       4.400  31.067  -7.727  1.00  0.00     0.111 C 
HETATM    4  N2  UNL     1       5.024  30.447  -8.493  1.00  0.00    -0.191 NA
HETATM    5  C6  UNL     1       4.121  33.212  -6.568  1.00  0.00     0.111 C 
HETATM    6  N3  UNL     1       4.487  34.286  -6.405  1.00  0.00    -0.191 NA
ENDROOT
BRANCH   1   7
HETATM    7  C2  UNL     1       2.059  30.095  -6.172  1.00  0.00     0.089 A 
HETATM    8  N1  UNL     1       2.264  29.254  -5.139  1.00  0.00    -0.331 N 
HETATM    9  C1  UNL     1       3.108  29.741  -4.037  1.00  0.00     0.158 C 
HETATM   10  C9  UNL     1       1.736  28.017  -5.084  1.00  0.00     0.167 A 
HETATM   11  C8  UNL     1       0.946  27.589  -6.138  1.00  0.00     0.146 A 
HETATM   12  N4  UNL     1       0.727  28.409  -7.176  1.00  0.00    -0.319 N 
HETATM   13  C7  UNL     1       1.275  29.651  -7.200  1.00  0.00     0.169 A 
ATOM     14  H4  UNL     1       0.146  28.097  -7.954  1.00  0.00     0.169 HD
BRANCH  10  15
HETATM   15  N6  UNL     1       2.007  27.331  -4.059  1.00  0.00    -0.172 N 
HETATM   16  C10 UNL     1       1.347  27.252  -2.830  1.00  0.00     0.686 C 
HETATM   17  N7  UNL     1       0.452  26.351  -2.655  1.00  0.00    -0.234 N 
HETATM   18  N8  UNL     1       1.626  28.131  -1.754  1.00  0.00    -0.126 N 
ATOM     19  H72 UNL     1       0.251  25.718  -3.428  1.00  0.00     0.174 HD
ATOM     20  H71 UNL     1      -0.030  26.293  -1.757  1.00  0.00     0.174 HD
HETATM   21  C11 UNL     1       1.246  27.826  -0.444  1.00  0.00     0.196 C 
ATOM     22  H8  UNL     1       2.115  29.007  -1.940  1.00  0.00     0.197 HD
HETATM   23  N9  UNL     1       0.944  27.561   0.649  1.00  0.00    -0.171 NA
ATOM     24  H6  UNL     1       2.836  26.743  -4.141  1.00  0.00     0.186 HD
ENDBRANCH  10  15
BRANCH  11  25
HETATM   25  N5  UNL     1       0.434  26.398  -6.093  1.00  0.00    -0.382 N 
ATOM     26  H52 UNL     1      -0.578  26.300  -6.013  1.00  0.00     0.157 HD
ATOM     27  H51 UNL     1       1.019  25.563  -6.134  1.00  0.00     0.157 HD
ENDBRANCH  11  25
BRANCH  13  28
HETATM   28  O1  UNL     1       1.034  30.490  -8.276  1.00  0.00    -0.344 OA
ATOM     29  H1  UNL     1       1.753  30.723  -8.851  1.00  0.00     0.219 HD
ENDBRANCH  13  28
ENDBRANCH   1   7
TORSDOF 4
ENDMDL
