MODEL 1
REMARK VINA RESULT: -6.453603426      0.000      0.000
REMARK  7 active torsions:
REMARK  status: ('A' for Active; 'I' for Inactive)
REMARK    1  A    between atoms: N1_2  and  C2_4 
REMARK    2  A    between atoms: C2_4  and  N2_6 
REMARK    3  A    between atoms: N2_6  and  C3_8 
REMARK    4  A    between atoms: C5_10  and  N3_11 
REMARK    5  A    between atoms: C8_18  and  O1_19 
REMARK    6  A    between atoms: C9_21  and  O2_22 
REMARK    7  A    between atoms: C10_24  and  O3_25 
ROOT
HETATM    1  C3  UNL     1       1.667  29.039  -2.363  1.00  0.00     0.041 C 
HETATM    2  C4  UNL     1       0.814  28.349  -3.112  1.00  0.00     0.029 C 
HETATM    3  C5  UNL     1      -0.297  27.571  -2.520  1.00  0.00     0.147 C 
HETATM    4  C8  UNL     1       0.043  26.941  -1.205  1.00  0.00     0.176 C 
HETATM    5  C9  UNL     1       1.181  27.552  -0.451  1.00  0.00     0.183 C 
HETATM    6  C10 UNL     1       1.465  28.988  -0.924  1.00  0.00     0.198 C 
ENDROOT
BRANCH   1   7
HETATM    7  N2  UNL     1       2.690  29.748  -2.994  1.00  0.00    -0.335 N 
ATOM      8  H2  UNL     1       3.256  30.344  -2.390  1.00  0.00     0.168 HD
BRANCH   7   9
HETATM    9  C2  UNL     1       3.040  29.746  -4.354  1.00  0.00     0.171 C 
HETATM   10  S1  UNL     1       3.563  28.376  -5.037  1.00  0.00    -0.041 SA
BRANCH   9  11
HETATM   11  N1  UNL     1       2.943  30.915  -5.133  1.00  0.00    -0.371 N 
HETATM   12  C1  UNL     1       3.961  31.313  -6.094  1.00  0.00     0.148 C 
ATOM     13  H1  UNL     1       2.122  31.510  -5.019  1.00  0.00     0.161 HD
ENDBRANCH   9  11
ENDBRANCH   7   9
ENDBRANCH   1   7
BRANCH   6  14
HETATM   14  O3  UNL     1       0.417  29.811  -0.516  1.00  0.00    -0.387 OA
ATOM     15  H3  UNL     1       0.615  30.260   0.297  1.00  0.00     0.210 HD
ENDBRANCH   6  14
BRANCH   3  16
HETATM   16  N3  UNL     1      -0.767  26.620  -3.498  1.00  0.00    -0.326 N 
HETATM   17  C6  UNL     1      -1.739  25.702  -3.369  1.00  0.00     0.201 A 
HETATM   18  N4  UNL     1      -1.873  25.008  -4.516  1.00  0.00    -0.295 N 
HETATM   19  N5  UNL     1      -0.984  25.502  -5.348  1.00  0.00    -0.295 N 
ATOM     20  H4  UNL     1      -2.532  24.251  -4.702  1.00  0.00     0.187 HD
HETATM   21  C7  UNL     1      -0.299  26.486  -4.745  1.00  0.00     0.201 A 
ATOM     22  H5  UNL     1      -0.837  25.185  -6.307  1.00  0.00     0.187 HD
ENDBRANCH   3  16
BRANCH   5  23
HETATM   23  O2  UNL     1       2.339  26.783  -0.472  1.00  0.00    -0.390 OA
ATOM     24  H2  UNL     1       2.592  26.454   0.383  1.00  0.00     0.210 HD
ENDBRANCH   5  23
BRANCH   4  25
HETATM   25  O1  UNL     1       0.342  25.583  -1.428  1.00  0.00    -0.390 OA
ATOM     26  H1  UNL     1       1.220  25.525  -1.785  1.00  0.00     0.210 HD
ENDBRANCH   4  25
TORSDOF 7
ENDMDL
MODEL 2
REMARK VINA RESULT: -6.441950289      2.316      5.160
REMARK  7 active torsions:
REMARK  status: ('A' for Active; 'I' for Inactive)
REMARK    1  A    between atoms: N1_2  and  C2_4 
REMARK    2  A    between atoms: C2_4  and  N2_6 
REMARK    3  A    between atoms: N2_6  and  C3_8 
REMARK    4  A    between atoms: C5_10  and  N3_11 
REMARK    5  A    between atoms: C8_18  and  O1_19 
REMARK    6  A    between atoms: C9_21  and  O2_22 
REMARK    7  A    between atoms: C10_24  and  O3_25 
ROOT
HETATM    1  C3  UNL     1      -0.624  27.250  -3.201  1.00  0.00     0.041 C 
HETATM    2  C4  UNL     1       0.368  27.705  -3.960  1.00  0.00     0.029 C 
HETATM    3  C5  UNL     1       1.766  27.757  -3.475  1.00  0.00     0.147 C 
HETATM    4  C8  UNL     1       1.885  28.078  -2.018  1.00  0.00     0.176 C 
HETATM    5  C9  UNL     1       0.678  27.807  -1.177  1.00  0.00     0.183 C 
HETATM    6  C10 UNL     1      -0.274  26.812  -1.860  1.00  0.00     0.198 C 
ENDROOT
BRANCH   1   7
HETATM    7  N2  UNL     1      -1.916  27.233  -3.728  1.00  0.00    -0.335 N 
ATOM      8  H2  UNL     1      -2.545  27.959  -3.386  1.00  0.00     0.168 HD
BRANCH   7   9
HETATM    9  C2  UNL     1      -2.460  26.344  -4.669  1.00  0.00     0.171 C 
HETATM   10  S1  UNL     1      -2.738  24.809  -4.242  1.00  0.00    -0.041 SA
BRANCH   9  11
HETATM   11  N1  UNL     1      -2.769  26.766  -5.977  1.00  0.00    -0.371 N 
HETATM   12  C1  UNL     1      -4.128  26.807  -6.494  1.00  0.00     0.148 C 
ATOM     13  H1  UNL     1      -2.006  27.055  -6.588  1.00  0.00     0.161 HD
ENDBRANCH   9  11
ENDBRANCH   7   9
ENDBRANCH   1   7
BRANCH   6  14
HETATM   14  O3  UNL     1       0.322  25.551  -1.864  1.00  0.00    -0.387 OA
ATOM     15  H3  UNL     1      -0.315  24.858  -1.743  1.00  0.00     0.210 HD
ENDBRANCH   6  14
BRANCH   3  16
HETATM   16  N3  UNL     1       2.512  28.659  -4.316  1.00  0.00    -0.326 N 
HETATM   17  C6  UNL     1       2.196  29.913  -4.682  1.00  0.00     0.201 A 
HETATM   18  N4  UNL     1       3.160  30.419  -5.477  1.00  0.00    -0.295 N 
HETATM   19  N5  UNL     1       4.067  29.475  -5.598  1.00  0.00    -0.295 N 
ATOM     20  H4  UNL     1       3.182  31.347  -5.900  1.00  0.00     0.187 HD
HETATM   21  C7  UNL     1       3.689  28.394  -4.898  1.00  0.00     0.201 A 
ATOM     22  H5  UNL     1       4.927  29.552  -6.142  1.00  0.00     0.187 HD
ENDBRANCH   3  16
BRANCH   5  23
HETATM   23  O2  UNL     1       0.000  28.959  -0.791  1.00  0.00    -0.390 OA
ATOM     24  H2  UNL     1      -0.903  28.983  -1.082  1.00  0.00     0.210 HD
ENDBRANCH   5  23
BRANCH   4  25
HETATM   25  O1  UNL     1       2.214  29.441  -1.889  1.00  0.00    -0.390 OA
ATOM     26  H1  UNL     1       3.016  29.509  -1.385  1.00  0.00     0.210 HD
ENDBRANCH   4  25
TORSDOF 7
ENDMDL
MODEL 3
REMARK VINA RESULT: -6.345626756      1.667      1.814
REMARK  7 active torsions:
REMARK  status: ('A' for Active; 'I' for Inactive)
REMARK    1  A    between atoms: N1_2  and  C2_4 
REMARK    2  A    between atoms: C2_4  and  N2_6 
REMARK    3  A    between atoms: N2_6  and  C3_8 
REMARK    4  A    between atoms: C5_10  and  N3_11 
REMARK    5  A    between atoms: C8_18  and  O1_19 
REMARK    6  A    between atoms: C9_21  and  O2_22 
REMARK    7  A    between atoms: C10_24  and  O3_25 
ROOT
HETATM    1  C3  UNL     1       1.660  27.864  -4.128  1.00  0.00     0.041 C 
HETATM    2  C4  UNL     1       0.417  27.538  -4.468  1.00  0.00     0.029 C 
HETATM    3  C5  UNL     1      -0.678  27.478  -3.474  1.00  0.00     0.147 C 
HETATM    4  C8  UNL     1      -0.242  26.990  -2.128  1.00  0.00     0.176 C 
HETATM    5  C9  UNL     1       1.216  27.116  -1.816  1.00  0.00     0.183 C 
HETATM    6  C10 UNL     1       1.899  28.152  -2.723  1.00  0.00     0.198 C 
ENDROOT
BRANCH   1   7
HETATM    7  N2  UNL     1       2.639  27.899  -5.122  1.00  0.00    -0.335 N 
ATOM      8  H2  UNL     1       2.991  26.993  -5.431  1.00  0.00     0.168 HD
BRANCH   7   9
HETATM    9  C2  UNL     1       3.201  29.021  -5.750  1.00  0.00     0.171 C 
HETATM   10  S1  UNL     1       2.430  29.702  -6.998  1.00  0.00    -0.041 SA
BRANCH   9  11
HETATM   11  N1  UNL     1       4.425  29.565  -5.312  1.00  0.00    -0.371 N 
HETATM   12  C1  UNL     1       5.160  30.568  -6.067  1.00  0.00     0.148 C 
ATOM     13  H1  UNL     1       4.813  29.241  -4.426  1.00  0.00     0.161 HD
ENDBRANCH   9  11
ENDBRANCH   7   9
ENDBRANCH   1   7
BRANCH   6  14
HETATM   14  O3  UNL     1       1.451  29.424  -2.369  1.00  0.00    -0.387 OA
ATOM     15  H3  UNL     1       2.020  29.834  -1.729  1.00  0.00     0.210 HD
ENDBRANCH   6  14
BRANCH   3  16
HETATM   16  N3  UNL     1      -1.763  26.708  -4.031  1.00  0.00    -0.326 N 
HETATM   17  C6  UNL     1      -3.080  26.835  -3.798  1.00  0.00     0.201 A 
HETATM   18  N4  UNL     1      -3.766  25.922  -4.515  1.00  0.00    -0.295 N 
HETATM   19  N5  UNL     1      -2.869  25.237  -5.188  1.00  0.00    -0.295 N 
ATOM     20  H4  UNL     1      -4.777  25.790  -4.532  1.00  0.00     0.187 HD
HETATM   21  C7  UNL     1      -1.642  25.702  -4.905  1.00  0.00     0.201 A 
ATOM     22  H5  UNL     1      -3.074  24.469  -5.828  1.00  0.00     0.187 HD
ENDBRANCH   3  16
BRANCH   5  23
HETATM   23  O2  UNL     1       1.897  25.904  -1.844  1.00  0.00    -0.390 OA
ATOM     24  H2  UNL     1       1.410  25.204  -2.262  1.00  0.00     0.210 HD
ENDBRANCH   5  23
BRANCH   4  25
HETATM   25  O1  UNL     1      -0.601  25.633  -2.010  1.00  0.00    -0.390 OA
ATOM     26  H1  UNL     1      -1.228  25.429  -2.693  1.00  0.00     0.210 HD
ENDBRANCH   4  25
TORSDOF 7
ENDMDL
MODEL 4
REMARK VINA RESULT: -6.140835091      3.839      6.548
REMARK  7 active torsions:
REMARK  status: ('A' for Active; 'I' for Inactive)
REMARK    1  A    between atoms: N1_2  and  C2_4 
REMARK    2  A    between atoms: C2_4  and  N2_6 
REMARK    3  A    between atoms: N2_6  and  C3_8 
REMARK    4  A    between atoms: C5_10  and  N3_11 
REMARK    5  A    between atoms: C8_18  and  O1_19 
REMARK    6  A    between atoms: C9_21  and  O2_22 
REMARK    7  A    between atoms: C10_24  and  O3_25 
ROOT
HETATM    1  C3  UNL     1      -2.622  25.917  -4.846  1.00  0.00     0.041 C 
HETATM    2  C4  UNL     1      -2.110  26.320  -3.688  1.00  0.00     0.029 C 
HETATM    3  C5  UNL     1      -1.084  27.383  -3.612  1.00  0.00     0.147 C 
HETATM    4  C8  UNL     1      -0.123  27.375  -4.759  1.00  0.00     0.176 C 
HETATM    5  C9  UNL     1      -0.586  26.696  -6.009  1.00  0.00     0.183 C 
HETATM    6  C10 UNL     1      -2.118  26.566  -6.046  1.00  0.00     0.198 C 
ENDROOT
BRANCH   1   7
HETATM    7  N2  UNL     1      -3.585  24.907  -4.838  1.00  0.00    -0.335 N 
ATOM      8  H2  UNL     1      -3.318  24.041  -4.370  1.00  0.00     0.168 HD
BRANCH   7   9
HETATM    9  C2  UNL     1      -4.876  24.932  -5.391  1.00  0.00     0.171 C 
HETATM   10  S1  UNL     1      -6.097  25.551  -4.530  1.00  0.00    -0.041 SA
BRANCH   9  11
HETATM   11  N1  UNL     1      -5.125  24.427  -6.682  1.00  0.00    -0.371 N 
HETATM   12  C1  UNL     1      -5.543  25.268  -7.793  1.00  0.00     0.148 C 
ATOM     13  H1  UNL     1      -5.008  23.427  -6.845  1.00  0.00     0.161 HD
ENDBRANCH   9  11
ENDBRANCH   7   9
ENDBRANCH   1   7
BRANCH   6  14
HETATM   14  O3  UNL     1      -2.672  27.833  -6.223  1.00  0.00    -0.387 OA
ATOM     15  H3  UNL     1      -2.022  28.467  -6.503  1.00  0.00     0.210 HD
ENDBRANCH   6  14
BRANCH   3  16
HETATM   16  N3  UNL     1      -0.432  27.305  -2.328  1.00  0.00    -0.326 N 
HETATM   17  C6  UNL     1       0.114  28.298  -1.608  1.00  0.00     0.201 A 
HETATM   18  N4  UNL     1       0.624  27.809  -0.459  1.00  0.00    -0.295 N 
HETATM   19  N5  UNL     1       0.388  26.517  -0.476  1.00  0.00    -0.295 N 
ATOM     20  H4  UNL     1       1.096  28.337   0.275  1.00  0.00     0.187 HD
HETATM   21  C7  UNL     1      -0.254  26.190  -1.608  1.00  0.00     0.201 A 
ATOM     22  H5  UNL     1       0.654  25.861   0.260  1.00  0.00     0.187 HD
ENDBRANCH   3  16
BRANCH   5  23
HETATM   23  O2  UNL     1       0.023  25.466  -6.232  1.00  0.00    -0.390 OA
ATOM     24  H2  UNL     1      -0.031  24.876  -5.490  1.00  0.00     0.210 HD
ENDBRANCH   5  23
BRANCH   4  25
HETATM   25  O1  UNL     1       1.068  26.754  -4.337  1.00  0.00    -0.390 OA
ATOM     26  H1  UNL     1       1.127  25.904  -4.757  1.00  0.00     0.210 HD
ENDBRANCH   4  25
TORSDOF 7
ENDMDL
MODEL 5
REMARK VINA RESULT: -5.992435257      3.627      4.960
REMARK  7 active torsions:
REMARK  status: ('A' for Active; 'I' for Inactive)
REMARK    1  A    between atoms: N1_2  and  C2_4 
REMARK    2  A    between atoms: C2_4  and  N2_6 
REMARK    3  A    between atoms: N2_6  and  C3_8 
REMARK    4  A    between atoms: C5_10  and  N3_11 
REMARK    5  A    between atoms: C8_18  and  O1_19 
REMARK    6  A    between atoms: C9_21  and  O2_22 
REMARK    7  A    between atoms: C10_24  and  O3_25 
ROOT
HETATM    1  C3  UNL     1      -0.839  26.649  -5.447  1.00  0.00     0.041 C 
HETATM    2  C4  UNL     1      -1.772  27.000  -6.326  1.00  0.00     0.029 C 
HETATM    3  C5  UNL     1      -3.205  27.065  -5.964  1.00  0.00     0.147 C 
HETATM    4  C8  UNL     1      -3.626  26.019  -4.980  1.00  0.00     0.176 C 
HETATM    5  C9  UNL     1      -2.540  25.420  -4.143  1.00  0.00     0.183 C 
HETATM    6  C10 UNL     1      -1.295  26.321  -4.106  1.00  0.00     0.198 C 
ENDROOT
BRANCH   1   7
HETATM    7  N2  UNL     1       0.492  26.610  -5.862  1.00  0.00    -0.335 N 
ATOM      8  H2  UNL     1       0.716  25.913  -6.572  1.00  0.00     0.168 HD
BRANCH   7   9
HETATM    9  C2  UNL     1       1.563  27.408  -5.428  1.00  0.00     0.171 C 
HETATM   10  S1  UNL     1       2.107  28.594  -6.382  1.00  0.00    -0.041 SA
BRANCH   9  11
HETATM   11  N1  UNL     1       2.171  27.192  -4.175  1.00  0.00    -0.371 N 
HETATM   12  C1  UNL     1       1.915  28.034  -3.016  1.00  0.00     0.148 C 
ATOM     13  H1  UNL     1       2.820  26.412  -4.077  1.00  0.00     0.161 HD
ENDBRANCH   9  11
ENDBRANCH   7   9
ENDBRANCH   1   7
BRANCH   6  14
HETATM   14  O3  UNL     1      -1.590  27.463  -3.362  1.00  0.00    -0.387 OA
ATOM     15  H3  UNL     1      -1.719  27.264  -2.443  1.00  0.00     0.210 HD
ENDBRANCH   6  14
BRANCH   3  16
HETATM   16  N3  UNL     1      -3.988  27.048  -7.176  1.00  0.00    -0.326 N 
HETATM   17  C6  UNL     1      -5.317  27.185  -7.313  1.00  0.00     0.201 A 
HETATM   18  N4  UNL     1      -5.657  27.111  -8.615  1.00  0.00    -0.295 N 
HETATM   19  N5  UNL     1      -4.536  26.931  -9.276  1.00  0.00    -0.295 N 
ATOM     20  H4  UNL     1      -6.596  27.182  -9.009  1.00  0.00     0.187 HD
HETATM   21  C7  UNL     1      -3.507  26.889  -8.416  1.00  0.00     0.201 A 
ATOM     22  H5  UNL     1      -4.459  26.836 -10.290  1.00  0.00     0.187 HD
ENDBRANCH   3  16
BRANCH   5  23
HETATM   23  O2  UNL     1      -2.204  24.122  -4.514  1.00  0.00    -0.390 OA
ATOM     24  H2  UNL     1      -2.082  23.537  -3.777  1.00  0.00     0.210 HD
ENDBRANCH   5  23
BRANCH   4  25
HETATM   25  O1  UNL     1      -4.264  24.979  -5.683  1.00  0.00    -0.390 OA
ATOM     26  H1  UNL     1      -5.203  25.102  -5.612  1.00  0.00     0.210 HD
ENDBRANCH   4  25
TORSDOF 7
ENDMDL
