MODEL 1
REMARK VINA RESULT: -6.522346396      0.000      0.000
REMARK  3 active torsions:
REMARK  status: ('A' for Active; 'I' for Inactive)
REMARK    1  A    between atoms: C2_2  and  C3_3 
REMARK    2  A    between atoms: C6_12  and  N2_13 
REMARK    3  A    between atoms: N2_13  and  N3_15 
ROOT
HETATM    1  C1  UNL     1      -0.356  12.126  24.134  1.00  0.00     0.091 C 
HETATM    2  C2  UNL     1       1.083  12.414  23.875  1.00  0.00     0.370 C 
HETATM    3  N1  UNL     1       1.670  13.309  24.853  1.00  0.00    -0.029 N 
ATOM      4  H11 UNL     1       1.247  14.236  24.810  1.00  0.00     0.280 HD
ATOM      5  H12 UNL     1       2.626  13.559  24.603  1.00  0.00     0.280 HD
HETATM    6  C4  UNL     1       1.601  12.769  26.163  1.00  0.00     0.255 C 
HETATM    7  C5  UNL     1       1.436  11.304  26.266  1.00  0.00     0.131 C 
HETATM    8  S1  UNL     1       2.452  10.564  27.581  1.00  0.00    -0.082 SA
HETATM    9  C6  UNL     1       3.630   9.837  26.448  1.00  0.00     0.161 C 
HETATM   10  N4  UNL     1       3.135   9.920  25.310  1.00  0.00    -0.341 N 
ATOM     11  H4  UNL     1       3.656   9.557  24.512  1.00  0.00     0.163 HD
HETATM   12  C7  UNL     1       1.884  10.500  25.102  1.00  0.00     0.305 C 
HETATM   13  N5  UNL     1       1.911  11.231  23.850  1.00  0.00    -0.008 N 
ATOM     14  H51 UNL     1       2.868  11.462  23.583  1.00  0.00     0.283 HD
ATOM     15  H52 UNL     1       1.662  10.627  23.068  1.00  0.00     0.283 HD
ENDROOT
BRANCH   9  16
HETATM   16  N2  UNL     1       4.875   9.293  26.905  1.00  0.00    -0.220 N 
ATOM     17  H2  UNL     1       5.730   9.545  26.408  1.00  0.00     0.195 HD
BRANCH  16  18
HETATM   18  N3  UNL     1       4.967   8.440  27.994  1.00  0.00    -0.037 N 
HETATM   19  O3  UNL     1       5.296   8.896  29.094  1.00  0.00    -0.516 OA
HETATM   20  O4  UNL     1       4.691   7.116  27.822  1.00  0.00    -0.516 OA
ENDBRANCH  16  18
ENDBRANCH   9  16
BRANCH   2  21
HETATM   21  C3  UNL     1       1.220  13.070  22.551  1.00  0.00     0.240 C 
HETATM   22  O1  UNL     1       2.078  12.746  21.724  1.00  0.00    -0.645 OA
HETATM   23  O2  UNL     1       0.333  14.088  22.260  1.00  0.00    -0.645 OA
ENDBRANCH   2  21
TORSDOF 3
ENDMDL
MODEL 2
REMARK VINA RESULT: -6.216904139      4.138      5.332
REMARK  3 active torsions:
REMARK  status: ('A' for Active; 'I' for Inactive)
REMARK    1  A    between atoms: C2_2  and  C3_3 
REMARK    2  A    between atoms: C6_12  and  N2_13 
REMARK    3  A    between atoms: N2_13  and  N3_15 
ROOT
HETATM    1  C1  UNL     1       1.767  12.800  22.312  1.00  0.00     0.091 C 
HETATM    2  C2  UNL     1       0.757  11.793  22.743  1.00  0.00     0.370 C 
HETATM    3  N1  UNL     1       1.309  10.768  23.608  1.00  0.00    -0.029 N 
ATOM      4  H11 UNL     1       1.996  10.197  23.118  1.00  0.00     0.280 HD
ATOM      5  H12 UNL     1       0.620  10.045  23.816  1.00  0.00     0.280 HD
HETATM    6  C4  UNL     1       1.851  11.324  24.796  1.00  0.00     0.255 C 
HETATM    7  C5  UNL     1       1.359  12.663  25.183  1.00  0.00     0.131 C 
HETATM    8  S1  UNL     1       1.064  12.823  26.972  1.00  0.00    -0.082 SA
HETATM    9  C6  UNL     1      -0.717  12.777  26.818  1.00  0.00     0.161 C 
HETATM   10  N4  UNL     1      -0.980  12.912  25.610  1.00  0.00    -0.341 N 
ATOM     11  H4  UNL     1      -1.954  12.914  25.308  1.00  0.00     0.163 HD
HETATM   12  C7  UNL     1       0.029  13.062  24.659  1.00  0.00     0.305 C 
HETATM   13  N5  UNL     1      -0.364  12.367  23.449  1.00  0.00    -0.008 N 
ATOM     14  H51 UNL     1      -1.072  11.660  23.647  1.00  0.00     0.283 HD
ATOM     15  H52 UNL     1      -0.907  12.977  22.837  1.00  0.00     0.283 HD
ENDROOT
BRANCH   9  16
HETATM   16  N2  UNL     1      -1.566  12.612  27.962  1.00  0.00    -0.220 N 
ATOM     17  H2  UNL     1      -1.203  12.106  28.770  1.00  0.00     0.195 HD
BRANCH  16  18
HETATM   18  N3  UNL     1      -2.859  13.110  28.016  1.00  0.00    -0.037 N 
HETATM   19  O3  UNL     1      -3.660  12.810  27.125  1.00  0.00    -0.516 OA
HETATM   20  O4  UNL     1      -3.212  13.919  29.054  1.00  0.00    -0.516 OA
ENDBRANCH  16  18
ENDBRANCH   9  16
BRANCH   2  21
HETATM   21  C3  UNL     1       0.212  11.102  21.548  1.00  0.00     0.240 C 
HETATM   22  O1  UNL     1      -0.993  10.896  21.379  1.00  0.00    -0.645 OA
HETATM   23  O2  UNL     1       1.122  10.681  20.597  1.00  0.00    -0.645 OA
ENDBRANCH   2  21
TORSDOF 3
ENDMDL
MODEL 3
REMARK VINA RESULT: -6.105289325      6.945      8.606
REMARK  3 active torsions:
REMARK  status: ('A' for Active; 'I' for Inactive)
REMARK    1  A    between atoms: C2_2  and  C3_3 
REMARK    2  A    between atoms: C6_12  and  N2_13 
REMARK    3  A    between atoms: N2_13  and  N3_15 
ROOT
HETATM    1  C1  UNL     1      -2.271  12.678  25.563  1.00  0.00     0.091 C 
HETATM    2  C2  UNL     1      -1.707  13.870  26.255  1.00  0.00     0.370 C 
HETATM    3  N1  UNL     1      -2.266  15.122  25.780  1.00  0.00    -0.029 N 
ATOM      4  H11 UNL     1      -2.019  15.294  24.806  1.00  0.00     0.280 HD
ATOM      5  H12 UNL     1      -1.800  15.923  26.206  1.00  0.00     0.280 HD
HETATM    6  C4  UNL     1      -3.670  15.174  25.977  1.00  0.00     0.255 C 
HETATM    7  C5  UNL     1      -4.228  14.269  27.002  1.00  0.00     0.131 C 
HETATM    8  S1  UNL     1      -5.519  15.052  28.018  1.00  0.00    -0.082 SA
HETATM    9  C6  UNL     1      -4.476  15.211  29.462  1.00  0.00     0.161 C 
HETATM   10  N4  UNL     1      -3.461  14.524  29.252  1.00  0.00    -0.341 N 
ATOM     11  H4  UNL     1      -2.733  14.479  29.965  1.00  0.00     0.163 HD
HETATM   12  C7  UNL     1      -3.298  13.811  28.065  1.00  0.00     0.305 C 
HETATM   13  N5  UNL     1      -1.899  13.851  27.686  1.00  0.00    -0.008 N 
ATOM     14  H51 UNL     1      -1.423  14.636  28.129  1.00  0.00     0.283 HD
ATOM     15  H52 UNL     1      -1.383  13.081  28.113  1.00  0.00     0.283 HD
ENDROOT
BRANCH   9  16
HETATM   16  N2  UNL     1      -4.864  16.016  30.583  1.00  0.00    -0.220 N 
ATOM     17  H2  UNL     1      -4.282  16.815  30.836  1.00  0.00     0.195 HD
BRANCH  16  18
HETATM   18  N3  UNL     1      -5.996  15.754  31.339  1.00  0.00    -0.037 N 
HETATM   19  O3  UNL     1      -6.922  16.572  31.345  1.00  0.00    -0.516 OA
HETATM   20  O4  UNL     1      -6.058  14.598  32.058  1.00  0.00    -0.516 OA
ENDBRANCH  16  18
ENDBRANCH   9  16
BRANCH   2  21
HETATM   21  C3  UNL     1      -0.244  13.931  26.012  1.00  0.00     0.240 C 
HETATM   22  O1  UNL     1       0.595  13.760  26.902  1.00  0.00    -0.645 OA
HETATM   23  O2  UNL     1       0.168  14.193  24.720  1.00  0.00    -0.645 OA
ENDBRANCH   2  21
TORSDOF 3
ENDMDL
MODEL 4
REMARK VINA RESULT: -6.060936028      5.843      7.804
REMARK  3 active torsions:
REMARK  status: ('A' for Active; 'I' for Inactive)
REMARK    1  A    between atoms: C2_2  and  C3_3 
REMARK    2  A    between atoms: C6_12  and  N2_13 
REMARK    3  A    between atoms: N2_13  and  N3_15 
ROOT
HETATM    1  C1  UNL     1      -1.232  12.243  24.916  1.00  0.00     0.091 C 
HETATM    2  C2  UNL     1      -0.654  13.233  25.867  1.00  0.00     0.370 C 
HETATM    3  N1  UNL     1      -0.972  14.605  25.525  1.00  0.00    -0.029 N 
ATOM      4  H11 UNL     1      -0.548  14.876  24.638  1.00  0.00     0.280 HD
ATOM      5  H12 UNL     1      -0.492  15.263  26.139  1.00  0.00     0.280 HD
HETATM    6  C4  UNL     1      -2.373  14.830  25.518  1.00  0.00     0.255 C 
HETATM    7  C5  UNL     1      -3.199  13.878  26.290  1.00  0.00     0.131 C 
HETATM    8  S1  UNL     1      -4.539  14.687  27.218  1.00  0.00    -0.082 SA
HETATM    9  C6  UNL     1      -3.740  14.490  28.806  1.00  0.00     0.161 C 
HETATM   10  N4  UNL     1      -2.794  13.701  28.640  1.00  0.00    -0.341 N 
ATOM     11  H4  UNL     1      -2.206  13.453  29.435  1.00  0.00     0.163 HD
HETATM   12  C7  UNL     1      -2.520  13.147  27.390  1.00  0.00     0.305 C 
HETATM   13  N5  UNL     1      -1.083  13.039  27.232  1.00  0.00    -0.008 N 
ATOM     14  H51 UNL     1      -0.598  13.677  27.862  1.00  0.00     0.283 HD
ATOM     15  H52 UNL     1      -0.741  12.151  27.600  1.00  0.00     0.283 HD
ENDROOT
BRANCH   9  16
HETATM   16  N2  UNL     1      -4.212  15.176  29.974  1.00  0.00    -0.220 N 
ATOM     17  H2  UNL     1      -4.164  14.698  30.874  1.00  0.00     0.195 HD
BRANCH  16  18
HETATM   18  N3  UNL     1      -4.730  16.461  29.932  1.00  0.00    -0.037 N 
HETATM   19  O3  UNL     1      -3.970  17.413  29.724  1.00  0.00    -0.516 OA
HETATM   20  O4  UNL     1      -6.068  16.641  30.120  1.00  0.00    -0.516 OA
ENDBRANCH  16  18
ENDBRANCH   9  16
BRANCH   2  21
HETATM   21  C3  UNL     1       0.826  13.117  25.856  1.00  0.00     0.240 C 
HETATM   22  O1  UNL     1       1.503  13.022  26.884  1.00  0.00    -0.645 OA
HETATM   23  O2  UNL     1       1.446  13.119  24.621  1.00  0.00    -0.645 OA
ENDBRANCH   2  21
TORSDOF 3
ENDMDL
MODEL 5
REMARK VINA RESULT: -6.050639910      6.180      8.193
REMARK  3 active torsions:
REMARK  status: ('A' for Active; 'I' for Inactive)
REMARK    1  A    between atoms: C2_2  and  C3_3 
REMARK    2  A    between atoms: C6_12  and  N2_13 
REMARK    3  A    between atoms: N2_13  and  N3_15 
ROOT
HETATM    1  C1  UNL     1      -6.246  15.523  28.062  1.00  0.00     0.091 C 
HETATM    2  C2  UNL     1      -5.035  16.386  27.973  1.00  0.00     0.370 C 
HETATM    3  N1  UNL     1      -4.036  16.070  28.976  1.00  0.00    -0.029 N 
ATOM      4  H11 UNL     1      -4.379  16.265  29.917  1.00  0.00     0.280 HD
ATOM      5  H12 UNL     1      -3.260  16.731  28.949  1.00  0.00     0.280 HD
HETATM    6  C4  UNL     1      -3.582  14.732  28.857  1.00  0.00     0.255 C 
HETATM    7  C5  UNL     1      -3.780  14.081  27.545  1.00  0.00     0.131 C 
HETATM    8  S1  UNL     1      -2.354  13.077  27.025  1.00  0.00    -0.082 SA
HETATM    9  C6  UNL     1      -1.810  14.248  25.787  1.00  0.00     0.161 C 
HETATM   10  N4  UNL     1      -2.731  15.071  25.639  1.00  0.00    -0.341 N 
ATOM     11  H4  UNL     1      -2.618  15.830  24.967  1.00  0.00     0.163 HD
HETATM   12  C7  UNL     1      -3.915  14.978  26.370  1.00  0.00     0.305 C 
HETATM   13  N5  UNL     1      -4.370  16.315  26.693  1.00  0.00    -0.008 N 
ATOM     14  H51 UNL     1      -3.602  16.984  26.644  1.00  0.00     0.283 HD
ATOM     15  H52 UNL     1      -4.963  16.689  25.952  1.00  0.00     0.283 HD
ENDROOT
BRANCH   9  16
HETATM   16  N2  UNL     1      -0.525  14.137  25.162  1.00  0.00    -0.220 N 
ATOM     17  H2  UNL     1       0.256  14.665  25.552  1.00  0.00     0.195 HD
BRANCH  16  18
HETATM   18  N3  UNL     1      -0.298  13.343  24.048  1.00  0.00    -0.037 N 
HETATM   19  O3  UNL     1      -0.414  12.117  24.145  1.00  0.00    -0.516 OA
HETATM   20  O4  UNL     1       0.047  13.938  22.871  1.00  0.00    -0.516 OA
ENDBRANCH  16  18
ENDBRANCH   9  16
BRANCH   2  21
HETATM   21  C3  UNL     1      -5.426  17.803  28.183  1.00  0.00     0.240 C 
HETATM   22  O1  UNL     1      -6.559  18.144  28.534  1.00  0.00    -0.645 OA
HETATM   23  O2  UNL     1      -4.453  18.760  27.969  1.00  0.00    -0.645 OA
ENDBRANCH   2  21
TORSDOF 3
ENDMDL
