MODEL 1
REMARK VINA RESULT: -5.538221783      0.000      0.000
REMARK  7 active torsions:
REMARK  status: ('A' for Active; 'I' for Inactive)
REMARK    1  A    between atoms: C4_6  and  O3_7 
REMARK    2  A    between atoms: C5_9  and  C6_10 
REMARK    3  A    between atoms: C5_9  and  N1_13 
REMARK    4  A    between atoms: C6_10  and  O4_11 
REMARK    5  A    between atoms: N1_13  and  N2_15 
REMARK    6  A    between atoms: C7_21  and  O6_22 
REMARK    7  A    between atoms: C8_24  and  O7_25 
ROOT
HETATM    1  C1  UNL     1      -6.902  17.581  28.206  1.00  0.00     0.042 C 
HETATM    2  C2  UNL     1      -6.134  16.599  29.101  1.00  0.00     0.155 C 
HETATM    3  O1  UNL     1      -6.266  15.313  28.657  1.00  0.00    -0.323 OA
HETATM    4  C3  UNL     1      -5.039  14.714  28.597  1.00  0.00     0.317 C 
HETATM    5  O2  UNL     1      -5.046  13.639  27.749  1.00  0.00    -0.295 OA
HETATM    6  C4  UNL     1      -5.194  12.533  28.621  1.00  0.00     0.322 C 
HETATM    7  C5  UNL     1      -4.244  12.951  29.721  1.00  0.00     0.225 C 
HETATM    8  O5  UNL     1      -4.537  14.320  29.817  1.00  0.00    -0.290 OA
HETATM    9  C7  UNL     1      -4.151  15.854  28.099  1.00  0.00     0.242 C 
HETATM   10  C8  UNL     1      -4.676  16.988  28.987  1.00  0.00     0.183 C 
ENDROOT
BRANCH   7  11
HETATM   11  C6  UNL     1      -2.846  12.832  29.199  1.00  0.00     0.232 C 
BRANCH  11  12
HETATM   12  O4  UNL     1      -1.885  13.232  30.115  1.00  0.00    -0.396 OA
ATOM     13  H4  UNL     1      -1.530  14.094  29.932  1.00  0.00     0.209 HD
ENDBRANCH  11  12
ENDBRANCH   7  11
BRANCH   7  14
HETATM   14  N1  UNL     1      -4.472  12.300  30.961  1.00  0.00    -0.281 N 
ATOM     15  H1  UNL     1      -4.108  11.358  31.106  1.00  0.00     0.185 HD
BRANCH  14  16
HETATM   16  N2  UNL     1      -5.104  12.851  31.868  1.00  0.00    -0.251 N 
HETATM   17  N3  UNL     1      -5.673  13.761  32.470  1.00  0.00    -0.331 N 
ATOM     18  H32 UNL     1      -5.516  14.505  31.790  1.00  0.00     0.178 HD
ATOM     19  H31 UNL     1      -6.194  14.217  33.219  1.00  0.00     0.178 HD
ATOM     20  H2  UNL     1      -5.234  12.075  32.516  1.00  0.00     0.207 HD
ENDBRANCH  14  16
ENDBRANCH   7  14
BRANCH   6  21
HETATM   21  O3  UNL     1      -6.525  12.575  29.048  1.00  0.00    -0.366 OA
ATOM     22  H3  UNL     1      -6.629  11.825  29.621  1.00  0.00     0.212 HD
ENDBRANCH   6  21
BRANCH   9  23
HETATM   23  O6  UNL     1      -4.377  16.156  26.778  1.00  0.00    -0.385 OA
ATOM     24  H6  UNL     1      -4.350  15.388  26.220  1.00  0.00     0.210 HD
ENDBRANCH   9  23
BRANCH  10  25
HETATM   25  O7  UNL     1      -4.127  16.895  30.264  1.00  0.00    -0.390 OA
ATOM     26  H7  UNL     1      -3.483  17.588  30.342  1.00  0.00     0.210 HD
ENDBRANCH  10  25
TORSDOF 7
ENDMDL
MODEL 2
REMARK VINA RESULT: -5.516247803      3.400      4.385
REMARK  7 active torsions:
REMARK  status: ('A' for Active; 'I' for Inactive)
REMARK    1  A    between atoms: C4_6  and  O3_7 
REMARK    2  A    between atoms: C5_9  and  C6_10 
REMARK    3  A    between atoms: C5_9  and  N1_13 
REMARK    4  A    between atoms: C6_10  and  O4_11 
REMARK    5  A    between atoms: N1_13  and  N2_15 
REMARK    6  A    between atoms: C7_21  and  O6_22 
REMARK    7  A    between atoms: C8_24  and  O7_25 
ROOT
HETATM    1  C1  UNL     1      -6.204  15.135  29.672  1.00  0.00     0.042 C 
HETATM    2  C2  UNL     1      -4.945  15.256  28.803  1.00  0.00     0.155 C 
HETATM    3  O1  UNL     1      -4.083  14.220  29.029  1.00  0.00    -0.323 OA
HETATM    4  C3  UNL     1      -3.680  13.684  27.838  1.00  0.00     0.317 C 
HETATM    5  O2  UNL     1      -3.217  12.404  27.995  1.00  0.00    -0.295 OA
HETATM    6  C4  UNL     1      -1.811  12.566  28.038  1.00  0.00     0.322 C 
HETATM    7  C5  UNL     1      -1.639  13.578  26.927  1.00  0.00     0.225 C 
HETATM    8  O5  UNL     1      -2.730  14.425  27.172  1.00  0.00    -0.290 OA
HETATM    9  C7  UNL     1      -4.960  13.752  27.007  1.00  0.00     0.242 C 
HETATM   10  C8  UNL     1      -5.420  15.169  27.369  1.00  0.00     0.183 C 
ENDROOT
BRANCH   7  11
HETATM   11  C6  UNL     1      -1.897  12.887  25.624  1.00  0.00     0.232 C 
BRANCH  11  12
HETATM   12  O4  UNL     1      -0.799  12.184  25.152  1.00  0.00    -0.396 OA
ATOM     13  H4  UNL     1      -1.036  11.427  24.630  1.00  0.00     0.209 HD
ENDBRANCH  11  12
ENDBRANCH   7  11
BRANCH   7  14
HETATM   14  N1  UNL     1      -0.419  14.299  26.986  1.00  0.00    -0.281 N 
ATOM     15  H1  UNL     1      -0.430  15.311  26.861  1.00  0.00     0.185 HD
BRANCH  14  16
HETATM   16  N2  UNL     1       0.656  13.725  27.185  1.00  0.00    -0.251 N 
HETATM   17  N3  UNL     1       1.618  12.993  26.952  1.00  0.00    -0.331 N 
ATOM     18  H32 UNL     1       1.338  12.677  26.024  1.00  0.00     0.178 HD
ATOM     19  H31 UNL     1       2.505  12.518  27.118  1.00  0.00     0.178 HD
ATOM     20  H2  UNL     1       0.892  14.069  28.116  1.00  0.00     0.207 HD
ENDBRANCH  14  16
ENDBRANCH   7  14
BRANCH   6  21
HETATM   21  O3  UNL     1      -1.543  13.126  29.291  1.00  0.00    -0.366 OA
ATOM     22  H3  UNL     1      -1.641  12.414  29.911  1.00  0.00     0.212 HD
ENDBRANCH   6  21
BRANCH   9  23
HETATM   23  O6  UNL     1      -5.901  12.839  27.418  1.00  0.00    -0.385 OA
ATOM     24  H6  UNL     1      -6.716  13.252  27.681  1.00  0.00     0.210 HD
ENDBRANCH   9  23
BRANCH  10  25
HETATM   25  O7  UNL     1      -4.698  16.111  26.641  1.00  0.00    -0.390 OA
ATOM     26  H7  UNL     1      -4.012  15.642  26.182  1.00  0.00     0.210 HD
ENDBRANCH  10  25
TORSDOF 7
ENDMDL
MODEL 3
REMARK VINA RESULT: -5.470662377      1.515      4.023
REMARK  7 active torsions:
REMARK  status: ('A' for Active; 'I' for Inactive)
REMARK    1  A    between atoms: C4_6  and  O3_7 
REMARK    2  A    between atoms: C5_9  and  C6_10 
REMARK    3  A    between atoms: C5_9  and  N1_13 
REMARK    4  A    between atoms: C6_10  and  O4_11 
REMARK    5  A    between atoms: N1_13  and  N2_15 
REMARK    6  A    between atoms: C7_21  and  O6_22 
REMARK    7  A    between atoms: C8_24  and  O7_25 
ROOT
HETATM    1  C1  UNL     1      -2.166  13.196  27.043  1.00  0.00     0.042 C 
HETATM    2  C2  UNL     1      -3.346  13.435  27.994  1.00  0.00     0.155 C 
HETATM    3  O1  UNL     1      -3.334  14.708  28.492  1.00  0.00    -0.323 OA
HETATM    4  C3  UNL     1      -4.574  15.268  28.366  1.00  0.00     0.317 C 
HETATM    5  O2  UNL     1      -4.513  16.636  28.404  1.00  0.00    -0.295 OA
HETATM    6  C4  UNL     1      -4.857  16.943  29.743  1.00  0.00     0.322 C 
HETATM    7  C5  UNL     1      -6.000  15.972  29.939  1.00  0.00     0.225 C 
HETATM    8  O5  UNL     1      -5.492  14.834  29.295  1.00  0.00    -0.290 OA
HETATM    9  C7  UNL     1      -5.029  14.734  27.009  1.00  0.00     0.242 C 
HETATM   10  C8  UNL     1      -4.594  13.271  27.155  1.00  0.00     0.183 C 
ENDROOT
BRANCH   7  11
HETATM   11  C6  UNL     1      -7.165  16.456  29.132  1.00  0.00     0.232 C 
BRANCH  11  12
HETATM   12  O4  UNL     1      -7.201  17.836  28.998  1.00  0.00    -0.396 OA
ATOM     13  H4  UNL     1      -7.757  18.127  28.286  1.00  0.00     0.209 HD
ENDBRANCH  11  12
ENDBRANCH   7  11
BRANCH   7  14
HETATM   14  N1  UNL     1      -6.294  15.692  31.298  1.00  0.00    -0.281 N 
ATOM     15  H1  UNL     1      -6.888  16.333  31.824  1.00  0.00     0.185 HD
BRANCH  14  16
HETATM   16  N2  UNL     1      -5.844  14.687  31.857  1.00  0.00    -0.251 N 
HETATM   17  N3  UNL     1      -5.375  13.554  31.960  1.00  0.00    -0.331 N 
ATOM     18  H32 UNL     1      -5.350  13.317  30.968  1.00  0.00     0.178 HD
ATOM     19  H31 UNL     1      -5.004  12.723  32.421  1.00  0.00     0.178 HD
ATOM     20  H2  UNL     1      -5.889  14.970  32.836  1.00  0.00     0.207 HD
ENDBRANCH  14  16
ENDBRANCH   7  14
BRANCH   6  21
HETATM   21  O3  UNL     1      -3.739  16.582  30.503  1.00  0.00    -0.366 OA
ATOM     22  H3  UNL     1      -4.038  15.882  31.071  1.00  0.00     0.212 HD
ENDBRANCH   6  21
BRANCH   9  23
HETATM   23  O6  UNL     1      -4.353  15.315  25.963  1.00  0.00    -0.385 OA
ATOM     24  H6  UNL     1      -4.746  15.116  25.121  1.00  0.00     0.210 HD
ENDBRANCH   9  23
BRANCH  10  25
HETATM   25  O7  UNL     1      -5.516  12.569  27.928  1.00  0.00    -0.390 OA
ATOM     26  H7  UNL     1      -6.294  12.452  27.396  1.00  0.00     0.210 HD
ENDBRANCH  10  25
TORSDOF 7
ENDMDL
MODEL 4
REMARK VINA RESULT: -5.406483376      6.531      8.344
REMARK  7 active torsions:
REMARK  status: ('A' for Active; 'I' for Inactive)
REMARK    1  A    between atoms: C4_6  and  O3_7 
REMARK    2  A    between atoms: C5_9  and  C6_10 
REMARK    3  A    between atoms: C5_9  and  N1_13 
REMARK    4  A    between atoms: C6_10  and  O4_11 
REMARK    5  A    between atoms: N1_13  and  N2_15 
REMARK    6  A    between atoms: C7_21  and  O6_22 
REMARK    7  A    between atoms: C8_24  and  O7_25 
ROOT
HETATM    1  C1  UNL     1       2.172   9.661  21.816  1.00  0.00     0.042 C 
HETATM    2  C2  UNL     1       0.975  10.220  22.596  1.00  0.00     0.155 C 
HETATM    3  O1  UNL     1       1.382  10.925  23.694  1.00  0.00    -0.323 OA
HETATM    4  C3  UNL     1       0.738  12.130  23.737  1.00  0.00     0.317 C 
HETATM    5  O2  UNL     1       1.419  13.036  24.506  1.00  0.00    -0.295 OA
HETATM    6  C4  UNL     1       0.743  12.986  25.749  1.00  0.00     0.322 C 
HETATM    7  C5  UNL     1      -0.687  12.945  25.256  1.00  0.00     0.225 C 
HETATM    8  O5  UNL     1      -0.567  12.063  24.171  1.00  0.00    -0.290 OA
HETATM    9  C7  UNL     1       0.695  12.522  22.261  1.00  0.00     0.242 C 
HETATM   10  C8  UNL     1       0.277  11.177  21.655  1.00  0.00     0.183 C 
ENDROOT
BRANCH   7  11
HETATM   11  C6  UNL     1      -1.027  14.292  24.699  1.00  0.00     0.232 C 
BRANCH  11  12
HETATM   12  O4  UNL     1      -2.314  14.702  25.008  1.00  0.00    -0.396 OA
ATOM     13  H4  UNL     1      -2.424  15.645  24.976  1.00  0.00     0.209 HD
ENDBRANCH  11  12
ENDBRANCH   7  11
BRANCH   7  14
HETATM   14  N1  UNL     1      -1.613  12.446  26.209  1.00  0.00    -0.281 N 
ATOM     15  H1  UNL     1      -2.144  11.602  25.996  1.00  0.00     0.185 HD
BRANCH  14  16
HETATM   16  N2  UNL     1      -1.787  13.014  27.292  1.00  0.00    -0.251 N 
HETATM   17  N3  UNL     1      -2.243  13.833  28.089  1.00  0.00    -0.331 N 
ATOM     18  H32 UNL     1      -2.840  14.348  27.441  1.00  0.00     0.178 HD
ATOM     19  H31 UNL     1      -2.387  14.302  28.983  1.00  0.00     0.178 HD
ATOM     20  H2  UNL     1      -1.176  12.468  27.900  1.00  0.00     0.207 HD
ENDBRANCH  14  16
ENDBRANCH   7  14
BRANCH   6  21
HETATM   21  O3  UNL     1       1.123  11.771  26.327  1.00  0.00    -0.366 OA
ATOM     22  H3  UNL     1       0.407  11.533  26.905  1.00  0.00     0.212 HD
ENDBRANCH   6  21
BRANCH   9  23
HETATM   23  O6  UNL     1       1.930  12.884  21.778  1.00  0.00    -0.385 OA
ATOM     24  H6  UNL     1       2.026  12.694  20.852  1.00  0.00     0.210 HD
ENDBRANCH   9  23
BRANCH  10  25
HETATM   25  O7  UNL     1      -1.093  10.981  21.816  1.00  0.00    -0.390 OA
ATOM     26  H7  UNL     1      -1.509  11.245  21.004  1.00  0.00     0.210 HD
ENDBRANCH  10  25
TORSDOF 7
ENDMDL
MODEL 5
REMARK VINA RESULT: -5.405807739      6.374      7.593
REMARK  7 active torsions:
REMARK  status: ('A' for Active; 'I' for Inactive)
REMARK    1  A    between atoms: C4_6  and  O3_7 
REMARK    2  A    between atoms: C5_9  and  C6_10 
REMARK    3  A    between atoms: C5_9  and  N1_13 
REMARK    4  A    between atoms: C6_10  and  O4_11 
REMARK    5  A    between atoms: N1_13  and  N2_15 
REMARK    6  A    between atoms: C7_21  and  O6_22 
REMARK    7  A    between atoms: C8_24  and  O7_25 
ROOT
HETATM    1  C1  UNL     1      -3.226  15.650  26.164  1.00  0.00     0.042 C 
HETATM    2  C2  UNL     1      -2.750  14.327  25.552  1.00  0.00     0.155 C 
HETATM    3  O1  UNL     1      -1.735  14.528  24.660  1.00  0.00    -0.323 OA
HETATM    4  C3  UNL     1      -0.710  13.661  24.918  1.00  0.00     0.317 C 
HETATM    5  O2  UNL     1       0.472  14.110  24.391  1.00  0.00    -0.295 OA
HETATM    6  C4  UNL     1       0.586  13.388  23.178  1.00  0.00     0.322 C 
HETATM    7  C5  UNL     1       0.140  12.023  23.653  1.00  0.00     0.225 C 
HETATM    8  O5  UNL     1      -0.933  12.372  24.488  1.00  0.00    -0.290 OA
HETATM    9  C7  UNL     1      -0.701  13.624  26.445  1.00  0.00     0.242 C 
HETATM   10  C8  UNL     1      -2.208  13.508  26.704  1.00  0.00     0.183 C 
ENDROOT
BRANCH   7  11
HETATM   11  C6  UNL     1       1.217  11.459  24.527  1.00  0.00     0.232 C 
BRANCH  11  12
HETATM   12  O4  UNL     1       2.088  10.621  23.848  1.00  0.00    -0.396 OA
ATOM     13  H4  UNL     1       2.681  10.153  24.424  1.00  0.00     0.209 HD
ENDBRANCH  11  12
ENDBRANCH   7  11
BRANCH   7  14
HETATM   14  N1  UNL     1      -0.292  11.161  22.613  1.00  0.00    -0.281 N 
ATOM     15  H1  UNL     1      -1.159  10.635  22.726  1.00  0.00     0.185 HD
BRANCH  14  16
HETATM   16  N2  UNL     1       0.361  11.035  21.572  1.00  0.00    -0.251 N 
HETATM   17  N3  UNL     1       1.288  10.683  20.844  1.00  0.00    -0.331 N 
ATOM     18  H32 UNL     1       1.851  10.205  21.547  1.00  0.00     0.178 HD
ATOM     19  H31 UNL     1       1.828  10.580  19.984  1.00  0.00     0.178 HD
ATOM     20  H2  UNL     1      -0.237  11.524  20.905  1.00  0.00     0.207 HD
ENDBRANCH  14  16
ENDBRANCH   7  14
BRANCH   6  21
HETATM   21  O3  UNL     1      -0.353  13.964  22.316  1.00  0.00    -0.366 OA
ATOM     22  H3  UNL     1       0.106  14.091  21.494  1.00  0.00     0.212 HD
ENDBRANCH   6  21
BRANCH   9  23
HETATM   23  O6  UNL     1      -0.224  14.789  26.995  1.00  0.00    -0.385 OA
ATOM     24  H6  UNL     1       0.421  15.214  26.442  1.00  0.00     0.210 HD
ENDBRANCH   9  23
BRANCH  10  25
HETATM   25  O7  UNL     1      -2.632  12.196  26.508  1.00  0.00    -0.390 OA
ATOM     26  H7  UNL     1      -2.165  11.656  27.134  1.00  0.00     0.210 HD
ENDBRANCH  10  25
TORSDOF 7
ENDMDL
