MODEL 1
REMARK VINA RESULT: -8.067703785      0.000      0.000
REMARK  2 active torsions:
REMARK  status: ('A' for Active; 'I' for Inactive)
REMARK       I    between atoms: C2_2  and  N1_4 
REMARK       I    between atoms: N1_4  and  C3_6 
REMARK       I    between atoms: C3_6  and  N3_8 
REMARK       I    between atoms: N3_8  and  C4_10 
REMARK    1  A    between atoms: C4_10  and  C5_12 
REMARK    2  A    between atoms: C6_16  and  C7_17 
ROOT
HETATM    1  C5  UNL     1      12.128   0.765   1.793  1.00  0.00     0.197 A 
HETATM    2  N4  UNL     1      13.434   0.659   1.559  1.00  0.00    -0.238 N 
ATOM      3  H4  UNL     1      13.927   1.061   0.761  1.00  0.00     0.197 HD
HETATM    4  O3  UNL     1      13.984  -0.049   2.522  1.00  0.00    -0.213 OA
HETATM    5  C6  UNL     1      13.063  -0.401   3.371  1.00  0.00     0.225 A 
HETATM    6  N7  UNL     1      11.878   0.102   2.932  1.00  0.00    -0.312 N 
ATOM      7  H7  UNL     1      10.970  -0.006   3.384  1.00  0.00     0.170 HD
ENDROOT
BRANCH   1   8
HETATM    8  C4  UNL     1      11.080   1.477   0.975  1.00  0.00     0.293 C 
HETATM    9  N3  UNL     1      10.238   0.728   0.170  1.00  0.00    -0.294 N 
HETATM   10  C3  UNL     1       9.194   0.932  -0.702  1.00  0.00     0.197 C 
ATOM     11  H3  UNL     1      10.457  -0.266   0.244  1.00  0.00     0.172 HD
HETATM   12  N1  UNL     1       8.460   1.991  -1.211  1.00  0.00    -0.301 N 
HETATM   13  N2  UNL     1       8.696  -0.251  -1.263  1.00  0.00    -0.063 NA
HETATM   14  C2  UNL     1       8.394   3.364  -1.113  1.00  0.00     0.220 C 
ATOM     15  H1  UNL     1       7.750   1.649  -1.859  1.00  0.00     0.171 HD
HETATM   16  C1  UNL     1       7.322   4.115  -1.945  1.00  0.00     0.117 C 
HETATM   17  O1  UNL     1       9.066   4.160  -0.446  1.00  0.00    -0.274 OA
HETATM   18  O2  UNL     1      11.122   2.705   1.151  1.00  0.00    -0.264 OA
ENDBRANCH   1   8
BRANCH   5  19
HETATM   19  C7  UNL     1      13.208  -1.188   4.587  1.00  0.00     0.221 A 
HETATM   20  N5  UNL     1      12.748  -0.820   5.783  1.00  0.00    -0.272 N 
HETATM   21  N6  UNL     1      13.044  -1.754   6.670  1.00  0.00    -0.243 N 
ATOM     22  H5  UNL     1      12.246   0.045   5.982  1.00  0.00     0.189 HD
HETATM   23  C8  UNL     1      13.701  -2.723   6.010  1.00  0.00     0.386 A 
ATOM     24  H6  UNL     1      12.818  -1.742   7.665  1.00  0.00     0.192 HD
HETATM   25  O4  UNL     1      14.159  -3.801   6.508  1.00  0.00    -0.236 OA
HETATM   26  O5  UNL     1      13.784  -2.346   4.743  1.00  0.00    -0.237 OA
ENDBRANCH   5  19
TORSDOF 2
ENDMDL
MODEL 2
REMARK VINA RESULT: -7.854067573      1.677      1.849
REMARK  2 active torsions:
REMARK  status: ('A' for Active; 'I' for Inactive)
REMARK       I    between atoms: C2_2  and  N1_4 
REMARK       I    between atoms: N1_4  and  C3_6 
REMARK       I    between atoms: C3_6  and  N3_8 
REMARK       I    between atoms: N3_8  and  C4_10 
REMARK    1  A    between atoms: C4_10  and  C5_12 
REMARK    2  A    between atoms: C6_16  and  C7_17 
ROOT
HETATM    1  C5  UNL     1      10.351   1.143   2.943  1.00  0.00     0.197 A 
HETATM    2  N4  UNL     1      10.145   1.432   4.226  1.00  0.00    -0.238 N 
ATOM      3  H4  UNL     1       9.529   2.165   4.577  1.00  0.00     0.197 HD
HETATM    4  O3  UNL     1      10.867   0.618   4.967  1.00  0.00    -0.213 OA
HETATM    5  C6  UNL     1      11.531  -0.187   4.191  1.00  0.00     0.225 A 
HETATM    6  N7  UNL     1      11.223   0.125   2.904  1.00  0.00    -0.312 N 
ATOM      7  H7  UNL     1      11.586  -0.330   2.067  1.00  0.00     0.170 HD
ENDROOT
BRANCH   1   8
HETATM    8  C4  UNL     1       9.751   1.798   1.724  1.00  0.00     0.293 C 
HETATM    9  N3  UNL     1       9.056   1.015   0.818  1.00  0.00    -0.294 N 
HETATM   10  C3  UNL     1       8.376   1.167  -0.368  1.00  0.00     0.197 C 
ATOM     11  H3  UNL     1       9.044   0.040   1.119  1.00  0.00     0.172 HD
HETATM   12  N1  UNL     1       8.047   2.181  -1.252  1.00  0.00    -0.301 N 
HETATM   13  N2  UNL     1       7.845  -0.032  -0.863  1.00  0.00    -0.063 NA
HETATM   14  C2  UNL     1       8.224   3.540  -1.402  1.00  0.00     0.220 C 
ATOM     15  H1  UNL     1       7.507   1.807  -2.033  1.00  0.00     0.171 HD
HETATM   16  C1  UNL     1       7.614   4.232  -2.648  1.00  0.00     0.117 C 
HETATM   17  O1  UNL     1       8.812   4.361  -0.689  1.00  0.00    -0.274 OA
HETATM   18  O2  UNL     1       9.979   3.018   1.705  1.00  0.00    -0.264 OA
ENDBRANCH   1   8
BRANCH   5  19
HETATM   19  C7  UNL     1      12.454  -1.248   4.568  1.00  0.00     0.221 A 
HETATM   20  N5  UNL     1      13.097  -2.033   3.701  1.00  0.00    -0.272 N 
HETATM   21  N6  UNL     1      13.852  -2.889   4.367  1.00  0.00    -0.243 N 
ATOM     22  H5  UNL     1      13.017  -1.980   2.686  1.00  0.00     0.189 HD
HETATM   23  C8  UNL     1      13.676  -2.630   5.673  1.00  0.00     0.386 A 
ATOM     24  H6  UNL     1      14.454  -3.609   3.965  1.00  0.00     0.192 HD
HETATM   25  O4  UNL     1      14.230  -3.236   6.646  1.00  0.00    -0.236 OA
HETATM   26  O5  UNL     1      12.818  -1.625   5.761  1.00  0.00    -0.237 OA
ENDBRANCH   5  19
TORSDOF 2
ENDMDL
MODEL 3
REMARK VINA RESULT: -7.828538377      2.143      8.144
REMARK  2 active torsions:
REMARK  status: ('A' for Active; 'I' for Inactive)
REMARK       I    between atoms: C2_2  and  N1_4 
REMARK       I    between atoms: N1_4  and  C3_6 
REMARK       I    between atoms: C3_6  and  N3_8 
REMARK       I    between atoms: N3_8  and  C4_10 
REMARK    1  A    between atoms: C4_10  and  C5_12 
REMARK    2  A    between atoms: C6_16  and  C7_17 
ROOT
HETATM    1  C5  UNL     1      10.685   2.051   1.541  1.00  0.00     0.197 A 
HETATM    2  N4  UNL     1      11.288   3.055   0.908  1.00  0.00    -0.238 N 
ATOM      3  H4  UNL     1      12.273   3.306   0.998  1.00  0.00     0.197 HD
HETATM    4  O3  UNL     1      10.407   3.671   0.148  1.00  0.00    -0.213 OA
HETATM    5  C6  UNL     1       9.252   3.087   0.278  1.00  0.00     0.225 A 
HETATM    6  N7  UNL     1       9.401   2.058   1.155  1.00  0.00    -0.312 N 
ATOM      7  H7  UNL     1       8.672   1.413   1.461  1.00  0.00     0.170 HD
ENDROOT
BRANCH   1   8
HETATM    8  C4  UNL     1      11.276   1.064   2.516  1.00  0.00     0.293 C 
HETATM    9  N3  UNL     1      10.597   0.798   3.692  1.00  0.00    -0.294 N 
HETATM   10  C3  UNL     1      10.743   0.015   4.814  1.00  0.00     0.197 C 
ATOM     11  H3  UNL     1       9.734   1.341   3.741  1.00  0.00     0.172 HD
HETATM   12  N1  UNL     1      11.646  -0.900   5.329  1.00  0.00    -0.301 N 
HETATM   13  N2  UNL     1       9.693   0.154   5.732  1.00  0.00    -0.063 NA
HETATM   14  C2  UNL     1      12.845  -1.492   4.993  1.00  0.00     0.220 C 
ATOM     15  H1  UNL     1      11.326  -1.239   6.236  1.00  0.00     0.171 HD
HETATM   16  C1  UNL     1      13.468  -2.511   5.982  1.00  0.00     0.117 C 
HETATM   17  O1  UNL     1      13.561  -1.359   3.994  1.00  0.00    -0.274 OA
HETATM   18  O2  UNL     1      12.351   0.602   2.100  1.00  0.00    -0.264 OA
ENDBRANCH   1   8
BRANCH   5  19
HETATM   19  C7  UNL     1       7.992   3.424  -0.368  1.00  0.00     0.221 A 
HETATM   20  N5  UNL     1       7.853   4.360  -1.310  1.00  0.00    -0.272 N 
HETATM   21  N6  UNL     1       6.587   4.416  -1.685  1.00  0.00    -0.243 N 
ATOM     22  H5  UNL     1       8.605   4.939  -1.681  1.00  0.00     0.189 HD
HETATM   23  C8  UNL     1       5.927   3.495  -0.962  1.00  0.00     0.386 A 
ATOM     24  H6  UNL     1       6.188   5.038  -2.388  1.00  0.00     0.192 HD
HETATM   25  O4  UNL     1       4.682   3.234  -1.026  1.00  0.00    -0.236 OA
HETATM   26  O5  UNL     1       6.812   2.909  -0.170  1.00  0.00    -0.237 OA
ENDBRANCH   5  19
TORSDOF 2
ENDMDL
MODEL 4
REMARK VINA RESULT: -7.804226264      1.830      2.003
REMARK  2 active torsions:
REMARK  status: ('A' for Active; 'I' for Inactive)
REMARK       I    between atoms: C2_2  and  N1_4 
REMARK       I    between atoms: N1_4  and  C3_6 
REMARK       I    between atoms: C3_6  and  N3_8 
REMARK       I    between atoms: N3_8  and  C4_10 
REMARK    1  A    between atoms: C4_10  and  C5_12 
REMARK    2  A    between atoms: C6_16  and  C7_17 
ROOT
HETATM    1  C5  UNL     1      10.354   1.196   3.086  1.00  0.00     0.197 A 
HETATM    2  N4  UNL     1      10.008   1.748   4.247  1.00  0.00    -0.238 N 
ATOM      3  H4  UNL     1       9.477   2.611   4.358  1.00  0.00     0.197 HD
HETATM    4  O3  UNL     1      10.464   0.998   5.228  1.00  0.00    -0.213 OA
HETATM    5  C6  UNL     1      11.094  -0.023   4.725  1.00  0.00     0.225 A 
HETATM    6  N7  UNL     1      11.040   0.079   3.370  1.00  0.00    -0.312 N 
ATOM      7  H7  UNL     1      11.444  -0.571   2.697  1.00  0.00     0.170 HD
ENDROOT
BRANCH   1   8
HETATM    8  C4  UNL     1      10.064   1.685   1.689  1.00  0.00     0.293 C 
HETATM    9  N3  UNL     1       9.112   1.023   0.933  1.00  0.00    -0.294 N 
HETATM   10  C3  UNL     1       8.546   1.106  -0.318  1.00  0.00     0.197 C 
ATOM     11  H3  UNL     1       8.712   0.244   1.459  1.00  0.00     0.172 HD
HETATM   12  N1  UNL     1       8.647   1.896  -1.451  1.00  0.00    -0.301 N 
HETATM   13  N2  UNL     1       7.580   0.121  -0.560  1.00  0.00    -0.063 NA
HETATM   14  C2  UNL     1       9.352   2.990  -1.906  1.00  0.00     0.220 C 
ATOM     15  H1  UNL     1       8.002   1.568  -2.169  1.00  0.00     0.171 HD
HETATM   16  C1  UNL     1       9.066   3.509  -3.340  1.00  0.00     0.117 C 
HETATM   17  O1  UNL     1      10.220   3.678  -1.357  1.00  0.00    -0.274 OA
HETATM   18  O2  UNL     1      10.759   2.671   1.398  1.00  0.00    -0.264 OA
ENDBRANCH   1   8
BRANCH   5  19
HETATM   19  C7  UNL     1      11.759  -1.111   5.428  1.00  0.00     0.221 A 
HETATM   20  N5  UNL     1      11.143  -1.971   6.241  1.00  0.00    -0.272 N 
HETATM   21  N6  UNL     1      12.027  -2.830   6.717  1.00  0.00    -0.243 N 
ATOM     22  H5  UNL     1      10.147  -1.966   6.461  1.00  0.00     0.189 HD
HETATM   23  C8  UNL     1      13.217  -2.497   6.187  1.00  0.00     0.386 A 
ATOM     24  H6  UNL     1      11.843  -3.598   7.363  1.00  0.00     0.192 HD
HETATM   25  O4  UNL     1      14.328  -3.082   6.396  1.00  0.00    -0.236 OA
HETATM   26  O5  UNL     1      13.018  -1.445   5.407  1.00  0.00    -0.237 OA
ENDBRANCH   5  19
TORSDOF 2
ENDMDL
MODEL 5
REMARK VINA RESULT: -7.793883909      5.622      7.479
REMARK  2 active torsions:
REMARK  status: ('A' for Active; 'I' for Inactive)
REMARK       I    between atoms: C2_2  and  N1_4 
REMARK       I    between atoms: N1_4  and  C3_6 
REMARK       I    between atoms: C3_6  and  N3_8 
REMARK       I    between atoms: N3_8  and  C4_10 
REMARK    1  A    between atoms: C4_10  and  C5_12 
REMARK    2  A    between atoms: C6_16  and  C7_17 
ROOT
HETATM    1  C5  UNL     1      12.709  -4.425   3.142  1.00  0.00     0.197 A 
HETATM    2  N4  UNL     1      13.888  -4.150   3.696  1.00  0.00    -0.238 N 
ATOM      3  H4  UNL     1      14.775  -4.589   3.450  1.00  0.00     0.197 HD
HETATM    4  O3  UNL     1      13.722  -3.220   4.612  1.00  0.00    -0.213 OA
HETATM    5  C6  UNL     1      12.465  -2.890   4.660  1.00  0.00     0.225 A 
HETATM    6  N7  UNL     1      11.802  -3.640   3.739  1.00  0.00    -0.312 N 
ATOM      7  H7  UNL     1      10.802  -3.609   3.541  1.00  0.00     0.170 HD
ENDROOT
BRANCH   1   8
HETATM    8  C4  UNL     1      12.391  -5.418   2.052  1.00  0.00     0.293 C 
HETATM    9  N3  UNL     1      12.534  -6.769   2.316  1.00  0.00    -0.294 N 
HETATM   10  C3  UNL     1      12.369  -7.971   1.667  1.00  0.00     0.197 C 
ATOM     11  H3  UNL     1      12.857  -6.918   3.273  1.00  0.00     0.172 HD
HETATM   12  N1  UNL     1      11.977  -8.431   0.421  1.00  0.00    -0.301 N 
HETATM   13  N2  UNL     1      12.679  -9.082   2.462  1.00  0.00    -0.063 NA
HETATM   14  C2  UNL     1      11.555  -7.935  -0.794  1.00  0.00     0.220 C 
ATOM     15  H1  UNL     1      12.011  -9.449   0.394  1.00  0.00     0.171 HD
HETATM   16  C1  UNL     1      11.221  -8.940  -1.927  1.00  0.00     0.117 C 
HETATM   17  O1  UNL     1      11.380  -6.772  -1.176  1.00  0.00    -0.274 OA
HETATM   18  O2  UNL     1      12.023  -4.849   1.012  1.00  0.00    -0.264 OA
ENDBRANCH   1   8
BRANCH   5  19
HETATM   19  C7  UNL     1      11.821  -1.907   5.520  1.00  0.00     0.221 A 
HETATM   20  N5  UNL     1      12.009  -1.820   6.838  1.00  0.00    -0.272 N 
HETATM   21  N6  UNL     1      11.281  -0.826   7.316  1.00  0.00    -0.243 N 
ATOM     22  H5  UNL     1      12.618  -2.424   7.388  1.00  0.00     0.189 HD
HETATM   23  C8  UNL     1      10.628  -0.285   6.273  1.00  0.00     0.386 A 
ATOM     24  H6  UNL     1      11.224  -0.527   8.290  1.00  0.00     0.192 HD
HETATM   25  O4  UNL     1       9.823   0.700   6.314  1.00  0.00    -0.236 OA
HETATM   26  O5  UNL     1      10.980  -0.967   5.194  1.00  0.00    -0.237 OA
ENDBRANCH   5  19
TORSDOF 2
ENDMDL
