MODEL 1
REMARK VINA RESULT: -6.097623570      0.000      0.000
REMARK  5 active torsions:
REMARK  status: ('A' for Active; 'I' for Inactive)
REMARK    1  A    between atoms: C5_6  and  O2_7 
REMARK    2  A    between atoms: O2_7  and  C6_8 
REMARK    3  A    between atoms: C8_12  and  O4_13 
REMARK    4  A    between atoms: C9_15  and  O5_16 
REMARK    5  A    between atoms: C10_18  and  O6_19 
ROOT
HETATM    1  C6  UNL     1      12.100  -1.241   3.593  1.00  0.00     0.293 C 
HETATM    2  O3  UNL     1      11.403  -2.071   4.433  1.00  0.00    -0.340 OA
HETATM    3  C7  UNL     1      11.333  -1.440   5.650  1.00  0.00     0.228 C 
HETATM    4  S1  UNL     1      10.157  -0.074   5.525  1.00  0.00    -0.060 SA
HETATM    5  C8  UNL     1      12.752  -0.949   5.839  1.00  0.00     0.191 C 
HETATM    6  C9  UNL     1      13.257  -0.776   4.420  1.00  0.00     0.205 C 
ENDROOT
BRANCH   1   7
HETATM    7  O2  UNL     1      11.378  -0.261   2.985  1.00  0.00    -0.348 OA
BRANCH   7   8
HETATM    8  C5  UNL     1      12.062   0.690   2.292  1.00  0.00     0.180 C 
HETATM    9  C4  UNL     1      12.432   0.089   0.952  1.00  0.00     0.203 C 
HETATM   10  O1  UNL     1      11.584   0.580   0.007  1.00  0.00    -0.376 OA
HETATM   11  C2  UNL     1      10.691   1.446   0.560  1.00  0.00     0.082 C 
HETATM   12  C1  UNL     1      10.448   2.696  -0.263  1.00  0.00     0.048 C 
HETATM   13  C3  UNL     1       9.335   0.778   0.740  1.00  0.00     0.048 C 
HETATM   14  C10 UNL     1      11.274   1.882   1.881  1.00  0.00     0.183 C 
BRANCH  14  15
HETATM   15  O6  UNL     1      10.333   2.308   2.786  1.00  0.00    -0.390 OA
ATOM     16  H6  UNL     1      10.079   1.642   3.414  1.00  0.00     0.210 HD
ENDBRANCH  14  15
ENDBRANCH   7   8
ENDBRANCH   1   7
BRANCH   6  17
HETATM   17  O5  UNL     1      14.345  -1.636   4.276  1.00  0.00    -0.388 OA
ATOM     18  H5  UNL     1      15.147  -1.145   4.144  1.00  0.00     0.210 HD
ENDBRANCH   6  17
BRANCH   5  19
HETATM   19  O4  UNL     1      13.496  -1.845   6.570  1.00  0.00    -0.389 OA
ATOM     20  H4  UNL     1      13.652  -2.644   6.080  1.00  0.00     0.210 HD
ENDBRANCH   5  19
TORSDOF 5
ENDMDL
MODEL 2
REMARK VINA RESULT: -6.050577878      1.744      2.263
REMARK  5 active torsions:
REMARK  status: ('A' for Active; 'I' for Inactive)
REMARK    1  A    between atoms: C5_6  and  O2_7 
REMARK    2  A    between atoms: O2_7  and  C6_8 
REMARK    3  A    between atoms: C8_12  and  O4_13 
REMARK    4  A    between atoms: C9_15  and  O5_16 
REMARK    5  A    between atoms: C10_18  and  O6_19 
ROOT
HETATM    1  C6  UNL     1      12.256  -1.466   4.633  1.00  0.00     0.293 C 
HETATM    2  O3  UNL     1      10.954  -1.767   4.935  1.00  0.00    -0.340 OA
HETATM    3  C7  UNL     1      10.474  -0.738   5.707  1.00  0.00     0.228 C 
HETATM    4  S1  UNL     1      10.218   0.705   4.650  1.00  0.00    -0.060 SA
HETATM    5  C8  UNL     1      11.604  -0.523   6.692  1.00  0.00     0.191 C 
HETATM    6  C9  UNL     1      12.829  -0.987   5.930  1.00  0.00     0.205 C 
ENDROOT
BRANCH   1   7
HETATM    7  O2  UNL     1      12.448  -0.645   3.565  1.00  0.00    -0.348 OA
BRANCH   7   8
HETATM    8  C5  UNL     1      13.267  -1.084   2.570  1.00  0.00     0.180 C 
HETATM    9  C4  UNL     1      12.607  -2.298   1.948  1.00  0.00     0.203 C 
HETATM   10  O1  UNL     1      12.036  -1.925   0.770  1.00  0.00    -0.376 OA
HETATM   11  C2  UNL     1      12.243  -0.602   0.528  1.00  0.00     0.082 C 
HETATM   12  C1  UNL     1      12.614  -0.285  -0.907  1.00  0.00     0.048 C 
HETATM   13  C3  UNL     1      10.989   0.204   0.837  1.00  0.00     0.048 C 
HETATM   14  C10 UNL     1      13.401  -0.180   1.396  1.00  0.00     0.183 C 
BRANCH  14  15
HETATM   15  O6  UNL     1      13.414   1.162   1.686  1.00  0.00    -0.390 OA
ATOM     16  H6  UNL     1      13.921   1.382   2.459  1.00  0.00     0.210 HD
ENDBRANCH  14  15
ENDBRANCH   7   8
ENDBRANCH   1   7
BRANCH   6  17
HETATM   17  O5  UNL     1      13.370  -2.051   6.653  1.00  0.00    -0.388 OA
ATOM     18  H5  UNL     1      14.206  -1.808   7.033  1.00  0.00     0.210 HD
ENDBRANCH   6  17
BRANCH   5  19
HETATM   19  O4  UNL     1      11.392  -1.228   7.854  1.00  0.00    -0.389 OA
ATOM     20  H4  UNL     1      10.954  -2.053   7.681  1.00  0.00     0.210 HD
ENDBRANCH   5  19
TORSDOF 5
ENDMDL
MODEL 3
REMARK VINA RESULT: -5.622670304      1.890      2.289
REMARK  5 active torsions:
REMARK  status: ('A' for Active; 'I' for Inactive)
REMARK    1  A    between atoms: C5_6  and  O2_7 
REMARK    2  A    between atoms: O2_7  and  C6_8 
REMARK    3  A    between atoms: C8_12  and  O4_13 
REMARK    4  A    between atoms: C9_15  and  O5_16 
REMARK    5  A    between atoms: C10_18  and  O6_19 
ROOT
HETATM    1  C6  UNL     1      13.268  -0.671   3.944  1.00  0.00     0.293 C 
HETATM    2  O3  UNL     1      14.164  -1.707   3.992  1.00  0.00    -0.340 OA
HETATM    3  C7  UNL     1      13.477  -2.811   4.431  1.00  0.00     0.228 C 
HETATM    4  S1  UNL     1      12.407  -3.393   3.096  1.00  0.00    -0.060 SA
HETATM    5  C8  UNL     1      12.680  -2.252   5.590  1.00  0.00     0.191 C 
HETATM    6  C9  UNL     1      12.506  -0.791   5.227  1.00  0.00     0.205 C 
ENDROOT
BRANCH   1   7
HETATM    7  O2  UNL     1      12.513  -0.585   2.816  1.00  0.00    -0.348 OA
BRANCH   7   8
HETATM    8  C5  UNL     1      12.671   0.517   2.033  1.00  0.00     0.180 C 
HETATM    9  C4  UNL     1      13.883   0.276   1.157  1.00  0.00     0.203 C 
HETATM   10  O1  UNL     1      13.457  -0.059  -0.092  1.00  0.00    -0.376 OA
HETATM   11  C2  UNL     1      12.097  -0.063  -0.154  1.00  0.00     0.082 C 
HETATM   12  C1  UNL     1      11.532   0.571  -1.410  1.00  0.00     0.048 C 
HETATM   13  C3  UNL     1      11.562  -1.488  -0.112  1.00  0.00     0.048 C 
HETATM   14  C10 UNL     1      11.608   0.748   1.019  1.00  0.00     0.183 C 
BRANCH  14  15
HETATM   15  O6  UNL     1      10.333   0.428   1.419  1.00  0.00    -0.390 OA
ATOM     16  H6  UNL     1      10.280   0.118   2.315  1.00  0.00     0.210 HD
ENDBRANCH  14  15
ENDBRANCH   7   8
ENDBRANCH   1   7
BRANCH   6  17
HETATM   17  O5  UNL     1      13.122  -0.052   6.237  1.00  0.00    -0.388 OA
ATOM     18  H5  UNL     1      12.487   0.217   6.891  1.00  0.00     0.210 HD
ENDBRANCH   6  17
BRANCH   5  19
HETATM   19  O4  UNL     1      13.340  -2.436   6.783  1.00  0.00    -0.389 OA
ATOM     20  H4  UNL     1      12.765  -2.811   7.440  1.00  0.00     0.210 HD
ENDBRANCH   5  19
TORSDOF 5
ENDMDL
MODEL 4
REMARK VINA RESULT: -5.591773497      1.958      2.652
REMARK  5 active torsions:
REMARK  status: ('A' for Active; 'I' for Inactive)
REMARK    1  A    between atoms: C5_6  and  O2_7 
REMARK    2  A    between atoms: O2_7  and  C6_8 
REMARK    3  A    between atoms: C8_12  and  O4_13 
REMARK    4  A    between atoms: C9_15  and  O5_16 
REMARK    5  A    between atoms: C10_18  and  O6_19 
ROOT
HETATM    1  C6  UNL     1      11.909  -0.016   4.301  1.00  0.00     0.293 C 
HETATM    2  O3  UNL     1      12.878  -0.749   4.935  1.00  0.00    -0.340 OA
HETATM    3  C7  UNL     1      12.304  -1.941   5.299  1.00  0.00     0.228 C 
HETATM    4  S1  UNL     1      12.079  -2.949   3.817  1.00  0.00    -0.060 SA
HETATM    5  C8  UNL     1      10.982  -1.495   5.885  1.00  0.00     0.191 C 
HETATM    6  C9  UNL     1      10.699  -0.192   5.164  1.00  0.00     0.205 C 
ENDROOT
BRANCH   1   7
HETATM    7  O2  UNL     1      11.733  -0.275   2.977  1.00  0.00    -0.348 OA
BRANCH   7   8
HETATM    8  C5  UNL     1      12.184   0.650   2.087  1.00  0.00     0.180 C 
HETATM    9  C4  UNL     1      13.650   0.358   1.841  1.00  0.00     0.203 C 
HETATM   10  O1  UNL     1      13.772  -0.272   0.640  1.00  0.00    -0.376 OA
HETATM   11  C2  UNL     1      12.555  -0.430   0.050  1.00  0.00     0.082 C 
HETATM   12  C1  UNL     1      12.544  -0.134  -1.436  1.00  0.00     0.048 C 
HETATM   13  C3  UNL     1      12.064  -1.863   0.209  1.00  0.00     0.048 C 
HETATM   14  C10 UNL     1      11.623   0.553   0.713  1.00  0.00     0.183 C 
BRANCH  14  15
HETATM   15  O6  UNL     1      10.300   0.192   0.641  1.00  0.00    -0.390 OA
ATOM     16  H6  UNL     1       9.707   0.839   1.006  1.00  0.00     0.210 HD
ENDBRANCH  14  15
ENDBRANCH   7   8
ENDBRANCH   1   7
BRANCH   6  17
HETATM   17  O5  UNL     1      10.640   0.801   6.141  1.00  0.00    -0.388 OA
ATOM     18  H5  UNL     1      10.111   0.517   6.877  1.00  0.00     0.210 HD
ENDBRANCH   6  17
BRANCH   5  19
HETATM   19  O4  UNL     1      11.066  -1.347   7.250  1.00  0.00    -0.389 OA
ATOM     20  H4  UNL     1      11.274  -2.173   7.673  1.00  0.00     0.210 HD
ENDBRANCH   5  19
TORSDOF 5
ENDMDL
MODEL 5
REMARK VINA RESULT: -5.573891717      1.910      2.345
REMARK  5 active torsions:
REMARK  status: ('A' for Active; 'I' for Inactive)
REMARK    1  A    between atoms: C5_6  and  O2_7 
REMARK    2  A    between atoms: O2_7  and  C6_8 
REMARK    3  A    between atoms: C8_12  and  O4_13 
REMARK    4  A    between atoms: C9_15  and  O5_16 
REMARK    5  A    between atoms: C10_18  and  O6_19 
ROOT
HETATM    1  C6  UNL     1      12.313  -2.048   3.771  1.00  0.00     0.293 C 
HETATM    2  O3  UNL     1      11.270  -1.936   4.653  1.00  0.00    -0.340 OA
HETATM    3  C7  UNL     1      11.309  -0.660   5.158  1.00  0.00     0.228 C 
HETATM    4  S1  UNL     1      10.752   0.485   3.877  1.00  0.00    -0.060 SA
HETATM    5  C8  UNL     1      12.780  -0.485   5.471  1.00  0.00     0.191 C 
HETATM    6  C9  UNL     1      13.463  -1.412   4.485  1.00  0.00     0.205 C 
ENDROOT
BRANCH   1   7
HETATM    7  O2  UNL     1      12.080  -1.597   2.508  1.00  0.00    -0.348 OA
BRANCH   7   8
HETATM    8  C5  UNL     1      13.039  -1.824   1.570  1.00  0.00     0.180 C 
HETATM    9  C4  UNL     1      12.497  -2.871   0.618  1.00  0.00     0.203 C 
HETATM   10  O1  UNL     1      12.091  -2.251  -0.524  1.00  0.00    -0.376 OA
HETATM   11  C2  UNL     1      12.305  -0.909  -0.449  1.00  0.00     0.082 C 
HETATM   12  C1  UNL     1      12.868  -0.300  -1.717  1.00  0.00     0.048 C 
HETATM   13  C3  UNL     1      11.004  -0.173  -0.158  1.00  0.00     0.048 C 
HETATM   14  C10 UNL     1      13.320  -0.694   0.645  1.00  0.00     0.183 C 
BRANCH  14  15
HETATM   15  O6  UNL     1      13.266   0.557   1.210  1.00  0.00    -0.390 OA
ATOM     16  H6  UNL     1      13.836   1.191   0.792  1.00  0.00     0.210 HD
ENDBRANCH  14  15
ENDBRANCH   7   8
ENDBRANCH   1   7
BRANCH   6  17
HETATM   17  O5  UNL     1      14.159  -2.356   5.241  1.00  0.00    -0.388 OA
ATOM     18  H5  UNL     1      13.837  -2.373   6.134  1.00  0.00     0.210 HD
ENDBRANCH   6  17
BRANCH   5  19
HETATM   19  O4  UNL     1      13.051  -0.799   6.782  1.00  0.00    -0.389 OA
ATOM     20  H4  UNL     1      13.982  -0.930   6.920  1.00  0.00     0.210 HD
ENDBRANCH   5  19
TORSDOF 5
ENDMDL
