MODEL 1
REMARK VINA RESULT: -6.701550300      0.000      0.000
REMARK  1 active torsions:
REMARK  status: ('A' for Active; 'I' for Inactive)
REMARK    1  A    between atoms: N1_1  and  C1_4 
ROOT
HETATM    1  C1  UNL     1      36.630   2.483  39.611  1.00  0.00     0.681 A 
HETATM    2  N2  UNL     1      37.965   2.216  39.521  1.00  0.00    -0.179 N 
ATOM      3  H2  UNL     1      38.366   1.969  38.617  1.00  0.00     0.185 HD
HETATM    4  C2  UNL     1      38.761   2.273  40.602  1.00  0.00     0.124 A 
HETATM    5  N3  UNL     1      38.195   2.601  41.775  1.00  0.00    -0.268 N 
HETATM    6  C3  UNL     1      36.893   2.870  41.913  1.00  0.00     0.343 A 
HETATM    7  O1  UNL     1      36.379   3.176  43.016  1.00  0.00    -0.246 OA
HETATM    8  N4  UNL     1      36.106   2.807  40.807  1.00  0.00    -0.141 N 
ATOM      9  H4  UNL     1      35.109   3.007  40.883  1.00  0.00     0.189 HD
HETATM   10  C4  UNL     1      39.065   2.657  42.923  1.00  0.00     0.275 C 
HETATM   11  N5  UNL     1      40.284   3.287  42.589  1.00  0.00    -0.322 N 
ATOM     12  H5  UNL     1      40.727   3.942  43.234  1.00  0.00     0.181 HD
HETATM   13  N6  UNL     1      40.850   3.002  41.391  1.00  0.00    -0.332 N 
ATOM     14  H6  UNL     1      41.691   3.484  41.075  1.00  0.00     0.180 HD
HETATM   15  C5  UNL     1      40.222   1.999  40.586  1.00  0.00     0.216 C 
ENDROOT
BRANCH   1  16
HETATM   16  N1  UNL     1      35.854   2.434  38.599  1.00  0.00    -0.234 N 
ATOM     17  H12 UNL     1      35.251   3.234  38.409  1.00  0.00     0.174 HD
ATOM     18  H11 UNL     1      35.817   1.626  37.978  1.00  0.00     0.174 HD
ENDBRANCH   1  16
TORSDOF 1
ENDMDL
MODEL 2
REMARK VINA RESULT: -6.337675569      1.249      3.689
REMARK  1 active torsions:
REMARK  status: ('A' for Active; 'I' for Inactive)
REMARK    1  A    between atoms: N1_1  and  C1_4 
ROOT
HETATM    1  C1  UNL     1      40.838   1.975  41.263  1.00  0.00     0.681 A 
HETATM    2  N2  UNL     1      39.985   2.183  40.219  1.00  0.00    -0.179 N 
ATOM      3  H2  UNL     1      40.336   2.115  39.264  1.00  0.00     0.185 HD
HETATM    4  C2  UNL     1      38.691   2.478  40.425  1.00  0.00     0.124 A 
HETATM    5  N3  UNL     1      38.267   2.560  41.697  1.00  0.00    -0.268 N 
HETATM    6  C3  UNL     1      39.065   2.365  42.752  1.00  0.00     0.343 A 
HETATM    7  O1  UNL     1      38.654   2.444  43.935  1.00  0.00    -0.246 OA
HETATM    8  N4  UNL     1      40.370   2.068  42.520  1.00  0.00    -0.141 N 
ATOM      9  H4  UNL     1      41.001   1.914  43.306  1.00  0.00     0.189 HD
HETATM   10  C4  UNL     1      36.875   2.877  41.899  1.00  0.00     0.275 C 
HETATM   11  N5  UNL     1      36.068   2.159  40.989  1.00  0.00    -0.322 N 
ATOM     12  H5  UNL     1      35.183   1.749  41.286  1.00  0.00     0.181 HD
HETATM   13  N6  UNL     1      36.499   2.028  39.710  1.00  0.00    -0.332 N 
ATOM     14  H6  UNL     1      35.988   1.460  39.035  1.00  0.00     0.180 HD
HETATM   15  C5  UNL     1      37.700   2.716  39.343  1.00  0.00     0.216 C 
ENDROOT
BRANCH   1  16
HETATM   16  N1  UNL     1      42.072   1.695  41.091  1.00  0.00    -0.234 N 
ATOM     17  H12 UNL     1      42.322   0.746  40.810  1.00  0.00     0.174 HD
ATOM     18  H11 UNL     1      42.812   2.383  41.226  1.00  0.00     0.174 HD
ENDBRANCH   1  16
TORSDOF 1
ENDMDL
MODEL 3
REMARK VINA RESULT: -6.288030303      1.762      2.821
REMARK  1 active torsions:
REMARK  status: ('A' for Active; 'I' for Inactive)
REMARK    1  A    between atoms: N1_1  and  C1_4 
ROOT
HETATM    1  C1  UNL     1      36.703   2.854  42.961  1.00  0.00     0.681 A 
HETATM    2  N2  UNL     1      38.036   3.107  43.111  1.00  0.00    -0.179 N 
ATOM      3  H2  UNL     1      38.395   3.372  44.028  1.00  0.00     0.185 HD
HETATM    4  C2  UNL     1      38.883   3.014  42.073  1.00  0.00     0.124 A 
HETATM    5  N3  UNL     1      38.371   2.663  40.881  1.00  0.00    -0.268 N 
HETATM    6  C3  UNL     1      37.074   2.406  40.685  1.00  0.00     0.343 A 
HETATM    7  O1  UNL     1      36.611   2.079  39.567  1.00  0.00    -0.246 OA
HETATM    8  N4  UNL     1      36.235   2.507  41.750  1.00  0.00    -0.141 N 
ATOM      9  H4  UNL     1      35.240   2.316  41.629  1.00  0.00     0.189 HD
HETATM   10  C4  UNL     1      39.296   2.569  39.779  1.00  0.00     0.275 C 
HETATM   11  N5  UNL     1      40.488   1.932  40.189  1.00  0.00    -0.322 N 
ATOM     12  H5  UNL     1      40.954   1.257  39.583  1.00  0.00     0.181 HD
HETATM   13  N6  UNL     1      40.998   2.241  41.406  1.00  0.00    -0.332 N 
ATOM     14  H6  UNL     1      41.817   1.757  41.775  1.00  0.00     0.180 HD
HETATM   15  C5  UNL     1      40.345   3.272  42.155  1.00  0.00     0.216 C 
ENDROOT
BRANCH   1  16
HETATM   16  N1  UNL     1      35.879   2.937  43.933  1.00  0.00    -0.234 N 
ATOM     17  H12 UNL     1      36.242   2.890  44.885  1.00  0.00     0.174 HD
ATOM     18  H11 UNL     1      34.875   3.046  43.789  1.00  0.00     0.174 HD
ENDBRANCH   1  16
TORSDOF 1
ENDMDL
MODEL 4
REMARK VINA RESULT: -5.511808951      1.907      2.618
REMARK  1 active torsions:
REMARK  status: ('A' for Active; 'I' for Inactive)
REMARK    1  A    between atoms: N1_1  and  C1_4 
ROOT
HETATM    1  C1  UNL     1      36.796   2.439  39.840  1.00  0.00     0.681 A 
HETATM    2  N2  UNL     1      36.795   2.821  41.151  1.00  0.00    -0.179 N 
ATOM      3  H2  UNL     1      35.911   3.052  41.604  1.00  0.00     0.185 HD
HETATM    4  C2  UNL     1      37.937   2.898  41.854  1.00  0.00     0.124 A 
HETATM    5  N3  UNL     1      39.080   2.587  41.222  1.00  0.00    -0.268 N 
HETATM    6  C3  UNL     1      39.132   2.209  39.940  1.00  0.00     0.343 A 
HETATM    7  O1  UNL     1      40.207   1.920  39.363  1.00  0.00    -0.246 OA
HETATM    8  N4  UNL     1      37.964   2.137  39.247  1.00  0.00    -0.141 N 
ATOM      9  H4  UNL     1      37.975   1.852  38.268  1.00  0.00     0.189 HD
HETATM   10  C4  UNL     1      40.295   2.676  41.993  1.00  0.00     0.275 C 
HETATM   11  N5  UNL     1      40.099   2.141  43.285  1.00  0.00    -0.322 N 
ATOM     12  H5  UNL     1      40.818   1.567  43.727  1.00  0.00     0.181 HD
HETATM   13  N6  UNL     1      38.934   2.408  43.924  1.00  0.00    -0.332 N 
ATOM     14  H6  UNL     1      38.717   1.988  44.827  1.00  0.00     0.180 HD
HETATM   15  C5  UNL     1      38.019   3.303  43.283  1.00  0.00     0.216 C 
ENDROOT
BRANCH   1  16
HETATM   16  N1  UNL     1      35.724   2.360  39.152  1.00  0.00    -0.234 N 
ATOM     17  H12 UNL     1      35.551   3.066  38.437  1.00  0.00     0.174 HD
ATOM     18  H11 UNL     1      35.039   1.618  39.293  1.00  0.00     0.174 HD
ENDBRANCH   1  16
TORSDOF 1
ENDMDL
MODEL 5
REMARK VINA RESULT: -5.500584180      1.998      3.972
REMARK  1 active torsions:
REMARK  status: ('A' for Active; 'I' for Inactive)
REMARK    1  A    between atoms: N1_1  and  C1_4 
ROOT
HETATM    1  C1  UNL     1      40.901   2.290  41.212  1.00  0.00     0.681 A 
HETATM    2  N2  UNL     1      40.221   2.493  42.378  1.00  0.00    -0.179 N 
ATOM      3  H2  UNL     1      40.740   2.699  43.231  1.00  0.00     0.185 HD
HETATM    4  C2  UNL     1      38.880   2.426  42.423  1.00  0.00     0.124 A 
HETATM    5  N3  UNL     1      38.232   2.151  41.279  1.00  0.00    -0.268 N 
HETATM    6  C3  UNL     1      38.854   1.944  40.113  1.00  0.00     0.343 A 
HETATM    7  O1  UNL     1      38.235   1.689  39.052  1.00  0.00    -0.246 OA
HETATM    8  N4  UNL     1      40.211   2.017  40.091  1.00  0.00    -0.141 N 
ATOM      9  H4  UNL     1      40.711   1.864  39.215  1.00  0.00     0.189 HD
HETATM   10  C4  UNL     1      36.794   2.083  41.346  1.00  0.00     0.275 C 
HETATM   11  N5  UNL     1      36.287   3.131  42.146  1.00  0.00    -0.322 N 
ATOM     12  H5  UNL     1      35.442   3.633  41.874  1.00  0.00     0.181 HD
HETATM   13  N6  UNL     1      36.951   3.452  43.284  1.00  0.00    -0.332 N 
ATOM     14  H6  UNL     1      36.665   4.246  43.857  1.00  0.00     0.180 HD
HETATM   15  C5  UNL     1      38.068   2.635  43.650  1.00  0.00     0.216 C 
ENDROOT
BRANCH   1  16
HETATM   16  N1  UNL     1      42.175   2.348  41.145  1.00  0.00    -0.234 N 
ATOM     17  H12 UNL     1      42.699   2.537  42.000  1.00  0.00     0.174 HD
ATOM     18  H11 UNL     1      42.682   2.214  40.271  1.00  0.00     0.174 HD
ENDBRANCH   1  16
TORSDOF 1
ENDMDL
