MODEL 1
REMARK VINA RESULT: -5.887061803      0.000      0.000
REMARK  1 active torsions:
REMARK  status: ('A' for Active; 'I' for Inactive)
REMARK    1  A    between atoms: N1_1  and  C1_4 
REMARK       I    between atoms: N5_12  and  C3_14 
ROOT
HETATM    1  C1  UNL     1      40.582   2.056  41.484  1.00  0.00     0.161 A 
HETATM    2  N2  UNL     1      40.413   2.529  42.714  1.00  0.00    -0.265 N 
ATOM      3  H2  UNL     1      41.234   2.522  43.320  1.00  0.00     0.190 HD
HETATM    4  N3  UNL     1      39.323   2.998  43.232  1.00  0.00    -0.239 N 
ATOM      5  H3  UNL     1      39.397   3.316  44.198  1.00  0.00     0.208 HD
HETATM    6  N4  UNL     1      38.137   3.121  42.687  1.00  0.00    -0.265 N 
ATOM      7  H4  UNL     1      37.393   3.518  43.260  1.00  0.00     0.190 HD
HETATM    8  C2  UNL     1      37.829   2.763  41.426  1.00  0.00     0.171 A 
HETATM    9  N5  UNL     1      36.627   2.926  40.983  1.00  0.00    -0.290 N 
ATOM     10  H5  UNL     1      35.923   3.327  41.604  1.00  0.00     0.172 HD
HETATM   11  C3  UNL     1      36.252   2.564  39.663  1.00  0.00     0.334 C 
HETATM   12  N6  UNL     1      37.158   2.631  38.573  1.00  0.00    -0.040 NA
HETATM   13  O1  UNL     1      35.083   2.169  39.432  1.00  0.00    -0.251 OA
HETATM   14  S1  UNL     1      39.140   2.111  40.549  1.00  0.00    -0.015 SA
ENDROOT
BRANCH   1  15
HETATM   15  N1  UNL     1      41.727   1.621  41.103  1.00  0.00    -0.378 N 
ATOM     16  H12 UNL     1      42.426   1.155  41.681  1.00  0.00     0.158 HD
ATOM     17  H11 UNL     1      42.025   1.723  40.133  1.00  0.00     0.158 HD
ENDBRANCH   1  15
TORSDOF 1
ENDMDL
MODEL 2
REMARK VINA RESULT: -5.712006459      2.725      4.559
REMARK  1 active torsions:
REMARK  status: ('A' for Active; 'I' for Inactive)
REMARK    1  A    between atoms: N1_1  and  C1_4 
REMARK       I    between atoms: N5_12  and  C3_14 
ROOT
HETATM    1  C1  UNL     1      36.775   2.831  42.367  1.00  0.00     0.161 A 
HETATM    2  N2  UNL     1      36.068   2.656  41.255  1.00  0.00    -0.265 N 
ATOM      3  H2  UNL     1      35.059   2.783  41.335  1.00  0.00     0.190 HD
HETATM    4  N3  UNL     1      36.515   2.342  40.082  1.00  0.00    -0.239 N 
ATOM      5  H3  UNL     1      35.809   2.254  39.351  1.00  0.00     0.208 HD
HETATM    6  N4  UNL     1      37.750   2.122  39.700  1.00  0.00    -0.265 N 
ATOM      7  H4  UNL     1      37.907   1.883  38.721  1.00  0.00     0.190 HD
HETATM    8  C2  UNL     1      38.826   2.187  40.506  1.00  0.00     0.171 A 
HETATM    9  N5  UNL     1      40.004   1.951  40.031  1.00  0.00    -0.290 N 
ATOM     10  H5  UNL     1      40.100   1.716  39.043  1.00  0.00     0.172 HD
HETATM   11  C3  UNL     1      41.170   2.008  40.840  1.00  0.00     0.334 C 
HETATM   12  N6  UNL     1      41.286   2.893  41.942  1.00  0.00    -0.040 NA
HETATM   13  O1  UNL     1      42.143   1.255  40.585  1.00  0.00    -0.251 OA
HETATM   14  S1  UNL     1      38.461   2.593  42.123  1.00  0.00    -0.015 SA
ENDROOT
BRANCH   1  15
HETATM   15  N1  UNL     1      36.196   3.143  43.467  1.00  0.00    -0.378 N 
ATOM     16  H12 UNL     1      35.284   2.820  43.790  1.00  0.00     0.158 HD
ATOM     17  H11 UNL     1      36.644   3.777  44.129  1.00  0.00     0.158 HD
ENDBRANCH   1  15
TORSDOF 1
ENDMDL
MODEL 3
REMARK VINA RESULT: -5.317766310      1.753      2.404
REMARK  1 active torsions:
REMARK  status: ('A' for Active; 'I' for Inactive)
REMARK    1  A    between atoms: N1_1  and  C1_4 
REMARK       I    between atoms: N5_12  and  C3_14 
ROOT
HETATM    1  C1  UNL     1      40.829   1.310  42.574  1.00  0.00     0.161 A 
HETATM    2  N2  UNL     1      41.704   1.495  41.590  1.00  0.00    -0.265 N 
ATOM      3  H2  UNL     1      42.683   1.314  41.815  1.00  0.00     0.190 HD
HETATM    4  N3  UNL     1      41.454   1.876  40.379  1.00  0.00    -0.239 N 
ATOM      5  H3  UNL     1      42.266   1.958  39.768  1.00  0.00     0.208 HD
HETATM    6  N4  UNL     1      40.302   2.173  39.828  1.00  0.00    -0.265 N 
ATOM      7  H4  UNL     1      40.306   2.458  38.849  1.00  0.00     0.190 HD
HETATM    8  C2  UNL     1      39.114   2.129  40.459  1.00  0.00     0.171 A 
HETATM    9  N5  UNL     1      38.033   2.442  39.825  1.00  0.00    -0.290 N 
ATOM     10  H5  UNL     1      38.099   2.721  38.846  1.00  0.00     0.172 HD
HETATM   11  C3  UNL     1      36.757   2.412  40.446  1.00  0.00     0.334 C 
HETATM   12  N6  UNL     1      36.437   1.491  41.476  1.00  0.00    -0.040 NA
HETATM   13  O1  UNL     1      35.867   3.221  40.085  1.00  0.00    -0.251 OA
HETATM   14  S1  UNL     1      39.212   1.642  42.092  1.00  0.00    -0.015 SA
ENDROOT
BRANCH   1  15
HETATM   15  N1  UNL     1      41.220   0.926  43.733  1.00  0.00    -0.378 N 
ATOM     16  H12 UNL     1      40.841   0.152  44.279  1.00  0.00     0.158 HD
ATOM     17  H11 UNL     1      41.985   1.405  44.209  1.00  0.00     0.158 HD
ENDBRANCH   1  15
TORSDOF 1
ENDMDL
MODEL 4
REMARK VINA RESULT: -5.081830308      6.737      7.794
REMARK  1 active torsions:
REMARK  status: ('A' for Active; 'I' for Inactive)
REMARK    1  A    between atoms: N1_1  and  C1_4 
REMARK       I    between atoms: N5_12  and  C3_14 
ROOT
HETATM    1  C1  UNL     1      40.390  -0.642  47.156  1.00  0.00     0.161 A 
HETATM    2  N2  UNL     1      40.814   0.397  46.444  1.00  0.00    -0.265 N 
ATOM      3  H2  UNL     1      40.656   1.320  46.850  1.00  0.00     0.190 HD
HETATM    4  N3  UNL     1      41.404   0.370  45.292  1.00  0.00    -0.239 N 
ATOM      5  H3  UNL     1      41.655   1.280  44.906  1.00  0.00     0.208 HD
HETATM    6  N4  UNL     1      41.726  -0.663  44.553  1.00  0.00    -0.265 N 
ATOM      7  H4  UNL     1      42.192  -0.482  43.664  1.00  0.00     0.190 HD
HETATM    8  C2  UNL     1      41.486  -1.947  44.880  1.00  0.00     0.171 A 
HETATM    9  N5  UNL     1      41.843  -2.896  44.080  1.00  0.00    -0.290 N 
ATOM     10  H5  UNL     1      42.305  -2.654  43.204  1.00  0.00     0.172 HD
HETATM   11  C3  UNL     1      41.612  -4.264  44.380  1.00  0.00     0.334 C 
HETATM   12  N6  UNL     1      41.609  -4.759  45.709  1.00  0.00    -0.040 NA
HETATM   13  O1  UNL     1      41.401  -5.080  43.448  1.00  0.00    -0.251 OA
HETATM   14  S1  UNL     1      40.702  -2.146  46.383  1.00  0.00    -0.015 SA
ENDROOT
BRANCH   1  15
HETATM   15  N1  UNL     1      39.818  -0.467  48.290  1.00  0.00    -0.378 N 
ATOM     16  H12 UNL     1      39.670  -1.170  49.014  1.00  0.00     0.158 HD
ATOM     17  H11 UNL     1      39.452   0.449  48.552  1.00  0.00     0.158 HD
ENDBRANCH   1  15
TORSDOF 1
ENDMDL
MODEL 5
REMARK VINA RESULT: -4.999723920      6.748      7.651
REMARK  1 active torsions:
REMARK  status: ('A' for Active; 'I' for Inactive)
REMARK    1  A    between atoms: N1_1  and  C1_4 
REMARK       I    between atoms: N5_12  and  C3_14 
ROOT
HETATM    1  C1  UNL     1      41.676  -2.492  43.778  1.00  0.00     0.161 A 
HETATM    2  N2  UNL     1      41.941  -1.274  43.317  1.00  0.00    -0.265 N 
ATOM      3  H2  UNL     1      42.280  -1.218  42.356  1.00  0.00     0.190 HD
HETATM    4  N3  UNL     1      41.818  -0.151  43.949  1.00  0.00    -0.239 N 
ATOM      5  H3  UNL     1      42.073   0.682  43.418  1.00  0.00     0.208 HD
HETATM    6  N4  UNL     1      41.411   0.065  45.176  1.00  0.00    -0.265 N 
ATOM      7  H4  UNL     1      41.382   1.031  45.501  1.00  0.00     0.190 HD
HETATM    8  C2  UNL     1      41.030  -0.894  46.039  1.00  0.00     0.171 A 
HETATM    9  N5  UNL     1      40.645  -0.576  47.231  1.00  0.00    -0.290 N 
ATOM     10  H5  UNL     1      40.637   0.408  47.500  1.00  0.00     0.172 HD
HETATM   11  C3  UNL     1      40.233  -1.550  48.177  1.00  0.00     0.334 C 
HETATM   12  N6  UNL     1      39.594  -2.757  47.794  1.00  0.00    -0.040 NA
HETATM   13  O1  UNL     1      40.432  -1.354  49.402  1.00  0.00    -0.251 OA
HETATM   14  S1  UNL     1      41.114  -2.476  45.403  1.00  0.00    -0.015 SA
ENDROOT
BRANCH   1  15
HETATM   15  N1  UNL     1      41.845  -3.523  43.035  1.00  0.00    -0.378 N 
ATOM     16  H12 UNL     1      41.208  -4.314  42.937  1.00  0.00     0.158 HD
ATOM     17  H11 UNL     1      42.682  -3.620  42.461  1.00  0.00     0.158 HD
ENDBRANCH   1  15
TORSDOF 1
ENDMDL
