MODEL 1
REMARK VINA RESULT: -7.236695051      0.000      0.000
REMARK  1 active torsions:
REMARK  status: ('A' for Active; 'I' for Inactive)
REMARK    1  A    between atoms: N1_1  and  C1_4 
ROOT
HETATM    1  C1  UNL     1      36.708   2.953  43.007  1.00  0.00     0.694 A 
HETATM    2  N2  UNL     1      36.483   2.479  41.765  1.00  0.00    -0.140 N 
ATOM      3  H2  UNL     1      35.530   2.282  41.460  1.00  0.00     0.189 HD
HETATM    4  C2  UNL     1      37.518   2.265  40.923  1.00  0.00     0.363 A 
HETATM    5  O1  UNL     1      37.263   1.824  39.777  1.00  0.00    -0.245 OA
HETATM    6  N3  UNL     1      38.795   2.512  41.280  1.00  0.00    -0.039 N 
HETATM    7  C3  UNL     1      39.984   2.388  40.646  1.00  0.00     0.364 A 
HETATM    8  O2  UNL     1      40.103   1.966  39.460  1.00  0.00    -0.244 OA
HETATM    9  N4  UNL     1      40.943   2.777  41.475  1.00  0.00    -0.236 N 
ATOM     10  H4  UNL     1      41.944   2.796  41.279  1.00  0.00     0.192 HD
HETATM   11  N5  UNL     1      40.360   3.133  42.595  1.00  0.00    -0.127 N 
ATOM     12  H5  UNL     1      40.856   3.478  43.417  1.00  0.00     0.205 HD
HETATM   13  C4  UNL     1      39.023   2.984  42.519  1.00  0.00     0.726 A 
HETATM   14  N6  UNL     1      37.980   3.190  43.343  1.00  0.00    -0.020 N 
ATOM     15  H6  UNL     1      38.170   3.549  44.279  1.00  0.00     0.203 HD
ENDROOT
BRANCH   1  16
HETATM   16  N1  UNL     1      35.733   3.168  43.839  1.00  0.00    -0.234 N 
ATOM     17  H12 UNL     1      34.884   3.653  43.551  1.00  0.00     0.174 HD
ATOM     18  H11 UNL     1      35.782   2.858  44.809  1.00  0.00     0.174 HD
ENDBRANCH   1  16
TORSDOF 1
ENDMDL
MODEL 2
REMARK VINA RESULT: -7.235174008      1.130      3.567
REMARK  1 active torsions:
REMARK  status: ('A' for Active; 'I' for Inactive)
REMARK    1  A    between atoms: N1_1  and  C1_4 
ROOT
HETATM    1  C1  UNL     1      40.846   2.385  41.235  1.00  0.00     0.694 A 
HETATM    2  N2  UNL     1      40.130   2.050  40.142  1.00  0.00    -0.140 N 
ATOM      3  H2  UNL     1      40.608   1.749  39.293  1.00  0.00     0.189 HD
HETATM    4  C2  UNL     1      38.781   2.113  40.169  1.00  0.00     0.363 A 
HETATM    5  O1  UNL     1      38.155   1.793  39.131  1.00  0.00    -0.245 OA
HETATM    6  N3  UNL     1      38.105   2.505  41.269  1.00  0.00    -0.039 N 
HETATM    7  C3  UNL     1      36.790   2.653  41.555  1.00  0.00     0.364 A 
HETATM    8  O2  UNL     1      35.863   2.415  40.729  1.00  0.00    -0.244 OA
HETATM    9  N4  UNL     1      36.679   3.074  42.808  1.00  0.00    -0.236 N 
ATOM     10  H4  UNL     1      35.812   3.274  43.306  1.00  0.00     0.192 HD
HETATM   11  N5  UNL     1      37.896   3.184  43.284  1.00  0.00    -0.127 N 
ATOM     12  H5  UNL     1      38.118   3.490  44.232  1.00  0.00     0.205 HD
HETATM   13  C4  UNL     1      38.816   2.840  42.361  1.00  0.00     0.726 A 
HETATM   14  N6  UNL     1      40.159   2.771  42.314  1.00  0.00    -0.020 N 
ATOM     15  H6  UNL     1      40.683   3.028  43.150  1.00  0.00     0.203 HD
ENDROOT
BRANCH   1  16
HETATM   16  N1  UNL     1      42.144   2.334  41.237  1.00  0.00    -0.234 N 
ATOM     17  H12 UNL     1      42.654   1.684  40.639  1.00  0.00     0.174 HD
ATOM     18  H11 UNL     1      42.700   2.943  41.838  1.00  0.00     0.174 HD
ENDBRANCH   1  16
TORSDOF 1
ENDMDL
MODEL 3
REMARK VINA RESULT: -6.811152710      2.175      4.146
REMARK  1 active torsions:
REMARK  status: ('A' for Active; 'I' for Inactive)
REMARK    1  A    between atoms: N1_1  and  C1_4 
ROOT
HETATM    1  C1  UNL     1      40.836   2.250  41.220  1.00  0.00     0.694 A 
HETATM    2  N2  UNL     1      40.308   2.257  42.461  1.00  0.00    -0.140 N 
ATOM      3  H2  UNL     1      40.922   2.245  43.275  1.00  0.00     0.189 HD
HETATM    4  C2  UNL     1      38.968   2.280  42.628  1.00  0.00     0.363 A 
HETATM    5  O1  UNL     1      38.520   2.285  43.799  1.00  0.00    -0.245 OA
HETATM    6  N3  UNL     1      38.116   2.297  41.581  1.00  0.00    -0.039 N 
HETATM    7  C3  UNL     1      36.767   2.320  41.474  1.00  0.00     0.364 A 
HETATM    8  O2  UNL     1      35.987   2.332  42.468  1.00  0.00    -0.244 OA
HETATM    9  N4  UNL     1      36.450   2.328  40.186  1.00  0.00    -0.236 N 
ATOM     10  H4  UNL     1      35.509   2.345  39.793  1.00  0.00     0.192 HD
HETATM   11  N5  UNL     1      37.577   2.309  39.514  1.00  0.00    -0.127 N 
ATOM     12  H5  UNL     1      37.639   2.310  38.496  1.00  0.00     0.205 HD
HETATM   13  C4  UNL     1      38.640   2.289  40.342  1.00  0.00     0.726 A 
HETATM   14  N6  UNL     1      39.977   2.266  40.196  1.00  0.00    -0.020 N 
ATOM     15  H6  UNL     1      40.357   2.262  39.251  1.00  0.00     0.203 HD
ENDROOT
BRANCH   1  16
HETATM   16  N1  UNL     1      42.121   2.228  41.029  1.00  0.00    -0.234 N 
ATOM     17  H12 UNL     1      42.524   1.933  40.140  1.00  0.00     0.174 HD
ATOM     18  H11 UNL     1      42.774   2.505  41.764  1.00  0.00     0.174 HD
ENDBRANCH   1  16
TORSDOF 1
ENDMDL
MODEL 4
REMARK VINA RESULT: -6.727342069      1.604      2.792
REMARK  1 active torsions:
REMARK  status: ('A' for Active; 'I' for Inactive)
REMARK    1  A    between atoms: N1_1  and  C1_4 
ROOT
HETATM    1  C1  UNL     1      36.569   2.481  39.676  1.00  0.00     0.694 A 
HETATM    2  N2  UNL     1      37.812   2.240  39.212  1.00  0.00    -0.140 N 
ATOM      3  H2  UNL     1      37.949   1.975  38.236  1.00  0.00     0.189 HD
HETATM    4  C2  UNL     1      38.877   2.349  40.036  1.00  0.00     0.363 A 
HETATM    5  O1  UNL     1      40.014   2.116  39.563  1.00  0.00    -0.245 OA
HETATM    6  N3  UNL     1      38.746   2.696  41.333  1.00  0.00    -0.039 N 
HETATM    7  C3  UNL     1      39.625   2.873  42.348  1.00  0.00     0.364 A 
HETATM    8  O2  UNL     1      40.873   2.719  42.225  1.00  0.00    -0.244 OA
HETATM    9  N4  UNL     1      38.946   3.219  43.433  1.00  0.00    -0.236 N 
ATOM     10  H4  UNL     1      39.336   3.418  44.355  1.00  0.00     0.192 HD
HETATM   11  N5  UNL     1      37.679   3.255  43.098  1.00  0.00    -0.127 N 
ATOM     12  H5  UNL     1      36.921   3.494  43.738  1.00  0.00     0.205 HD
HETATM   13  C4  UNL     1      37.507   2.937  41.800  1.00  0.00     0.726 A 
HETATM   14  N6  UNL     1      36.459   2.823  40.963  1.00  0.00    -0.020 N 
ATOM     15  H6  UNL     1      35.527   3.010  41.332  1.00  0.00     0.203 HD
ENDROOT
BRANCH   1  16
HETATM   16  N1  UNL     1      35.527   2.384  38.906  1.00  0.00    -0.234 N 
ATOM     17  H12 UNL     1      34.664   1.945  39.229  1.00  0.00     0.174 HD
ATOM     18  H11 UNL     1      35.534   2.744  37.952  1.00  0.00     0.174 HD
ENDBRANCH   1  16
TORSDOF 1
ENDMDL
MODEL 5
REMARK VINA RESULT: -6.405639536      2.198      3.007
REMARK  1 active torsions:
REMARK  status: ('A' for Active; 'I' for Inactive)
REMARK    1  A    between atoms: N1_1  and  C1_4 
ROOT
HETATM    1  C1  UNL     1      36.475   2.454  39.442  1.00  0.00     0.694 A 
HETATM    2  N2  UNL     1      35.950   2.329  40.678  1.00  0.00    -0.140 N 
ATOM      3  H2  UNL     1      34.942   2.219  40.793  1.00  0.00     0.189 HD
HETATM    4  C2  UNL     1      36.755   2.349  41.763  1.00  0.00     0.363 A 
HETATM    5  O1  UNL     1      36.224   2.230  42.892  1.00  0.00    -0.245 OA
HETATM    6  N3  UNL     1      38.092   2.491  41.659  1.00  0.00    -0.039 N 
HETATM    7  C3  UNL     1      39.100   2.542  42.562  1.00  0.00     0.364 A 
HETATM    8  O2  UNL     1      38.925   2.452  43.810  1.00  0.00    -0.244 OA
HETATM    9  N4  UNL     1      40.242   2.697  41.905  1.00  0.00    -0.236 N 
ATOM     10  H4  UNL     1      41.172   2.768  42.316  1.00  0.00     0.192 HD
HETATM   11  N5  UNL     1      39.947   2.740  40.628  1.00  0.00    -0.127 N 
ATOM     12  H5  UNL     1      40.634   2.854  39.882  1.00  0.00     0.205 HD
HETATM   13  C4  UNL     1      38.620   2.616  40.428  1.00  0.00     0.726 A 
HETATM   14  N6  UNL     1      37.802   2.594  39.360  1.00  0.00    -0.020 N 
ATOM     15  H6  UNL     1      38.218   2.690  38.434  1.00  0.00     0.203 HD
ENDROOT
BRANCH   1  16
HETATM   16  N1  UNL     1      35.725   2.438  38.381  1.00  0.00    -0.234 N 
ATOM     17  H12 UNL     1      35.083   3.202  38.170  1.00  0.00     0.174 HD
ATOM     18  H11 UNL     1      35.753   1.661  37.720  1.00  0.00     0.174 HD
ENDBRANCH   1  16
TORSDOF 1
ENDMDL
