MODEL 1
REMARK VINA RESULT: -6.114495658      0.000      0.000
REMARK  1 active torsions:
REMARK  status: ('A' for Active; 'I' for Inactive)
REMARK    1  A    between atoms: N1_1  and  N2_4 
ROOT
HETATM    1  N2  UNL     1      41.433   1.448  41.003  1.00  0.00    -0.145 N 
HETATM    2  N3  UNL     1      40.714   1.950  40.020  1.00  0.00    -0.258 N 
ATOM      3  H3  UNL     1      41.036   2.114  39.066  1.00  0.00     0.191 HD
HETATM    4  C1  UNL     1      39.470   2.213  40.496  1.00  0.00     0.153 A 
HETATM    5  C2  UNL     1      38.230   2.702  40.150  1.00  0.00     0.127 A 
HETATM    6  C3  UNL     1      37.437   2.642  41.272  1.00  0.00     0.264 A 
HETATM    7  O1  UNL     1      36.212   3.003  41.371  1.00  0.00    -0.267 OA
HETATM    8  N4  UNL     1      38.204   2.127  42.248  1.00  0.00    -0.254 N 
ATOM      9  H4  UNL     1      37.892   1.959  43.205  1.00  0.00     0.191 HD
HETATM   10  N5  UNL     1      39.418   1.868  41.795  1.00  0.00    -0.182 N 
HETATM   11  C4  UNL     1      40.645   1.398  42.084  1.00  0.00     0.383 A 
HETATM   12  O2  UNL     1      41.022   0.966  43.208  1.00  0.00    -0.241 OA
ENDROOT
BRANCH   1  13
HETATM   13  N1  UNL     1      42.778   1.034  40.958  1.00  0.00    -0.320 N 
ATOM     14  H12 UNL     1      43.576   1.590  41.264  1.00  0.00     0.179 HD
ATOM     15  H11 UNL     1      43.143   0.144  40.620  1.00  0.00     0.179 HD
ENDBRANCH   1  13
TORSDOF 1
ENDMDL
MODEL 2
REMARK VINA RESULT: -6.097741116      2.138      4.370
REMARK  1 active torsions:
REMARK  status: ('A' for Active; 'I' for Inactive)
REMARK    1  A    between atoms: N1_1  and  N2_4 
ROOT
HETATM    1  N2  UNL     1      36.823   2.967  43.080  1.00  0.00    -0.145 N 
HETATM    2  N3  UNL     1      38.060   3.346  43.331  1.00  0.00    -0.258 N 
ATOM      3  H3  UNL     1      38.367   3.892  44.136  1.00  0.00     0.191 HD
HETATM    4  C1  UNL     1      38.856   2.885  42.332  1.00  0.00     0.153 A 
HETATM    5  C2  UNL     1      40.154   2.846  41.877  1.00  0.00     0.127 A 
HETATM    6  C3  UNL     1      40.156   2.132  40.701  1.00  0.00     0.264 A 
HETATM    7  O1  UNL     1      41.168   1.867  39.961  1.00  0.00    -0.267 OA
HETATM    8  N4  UNL     1      38.883   1.765  40.481  1.00  0.00    -0.254 N 
ATOM      9  H4  UNL     1      38.564   1.220  39.680  1.00  0.00     0.191 HD
HETATM   10  N5  UNL     1      38.099   2.209  41.448  1.00  0.00    -0.182 N 
HETATM   11  C4  UNL     1      36.846   2.276  41.934  1.00  0.00     0.383 A 
HETATM   12  O2  UNL     1      35.823   1.765  41.402  1.00  0.00    -0.241 OA
ENDROOT
BRANCH   1  13
HETATM   13  N1  UNL     1      35.674   3.225  43.851  1.00  0.00    -0.320 N 
ATOM     14  H12 UNL     1      35.209   4.130  43.930  1.00  0.00     0.179 HD
ATOM     15  H11 UNL     1      35.152   2.566  44.428  1.00  0.00     0.179 HD
ENDBRANCH   1  13
TORSDOF 1
ENDMDL
MODEL 3
REMARK VINA RESULT: -6.083514302      2.185      2.876
REMARK  1 active torsions:
REMARK  status: ('A' for Active; 'I' for Inactive)
REMARK    1  A    between atoms: N1_1  and  N2_4 
ROOT
HETATM    1  N2  UNL     1      39.327   2.563  41.828  1.00  0.00    -0.145 N 
HETATM    2  N3  UNL     1      38.061   2.781  42.126  1.00  0.00    -0.258 N 
ATOM      3  H3  UNL     1      37.695   3.008  43.050  1.00  0.00     0.191 HD
HETATM    4  C1  UNL     1      37.330   2.648  40.990  1.00  0.00     0.153 A 
HETATM    5  C2  UNL     1      36.052   2.709  40.482  1.00  0.00     0.127 A 
HETATM    6  C3  UNL     1      36.133   2.434  39.136  1.00  0.00     0.264 A 
HETATM    7  O1  UNL     1      35.165   2.390  38.298  1.00  0.00    -0.267 OA
HETATM    8  N4  UNL     1      37.433   2.219  38.873  1.00  0.00    -0.254 N 
ATOM      9  H4  UNL     1      37.810   1.990  37.953  1.00  0.00     0.191 HD
HETATM   10  N5  UNL     1      38.155   2.344  39.973  1.00  0.00    -0.182 N 
HETATM   11  C4  UNL     1      39.384   2.297  40.518  1.00  0.00     0.383 A 
HETATM   12  O2  UNL     1      40.454   2.041  39.899  1.00  0.00    -0.241 OA
ENDROOT
BRANCH   1  13
HETATM   13  N1  UNL     1      40.431   2.596  42.700  1.00  0.00    -0.320 N 
ATOM     14  H12 UNL     1      41.117   1.850  42.810  1.00  0.00     0.179 HD
ATOM     15  H11 UNL     1      40.701   3.349  43.333  1.00  0.00     0.179 HD
ENDBRANCH   1  13
TORSDOF 1
ENDMDL
MODEL 4
REMARK VINA RESULT: -6.073609749      2.017      2.567
REMARK  1 active torsions:
REMARK  status: ('A' for Active; 'I' for Inactive)
REMARK    1  A    between atoms: N1_1  and  N2_4 
ROOT
HETATM    1  N2  UNL     1      40.119   2.210  40.937  1.00  0.00    -0.145 N 
HETATM    2  N3  UNL     1      40.108   2.634  42.185  1.00  0.00    -0.258 N 
ATOM      3  H3  UNL     1      40.929   2.815  42.763  1.00  0.00     0.191 HD
HETATM    4  C1  UNL     1      38.815   2.790  42.568  1.00  0.00     0.153 A 
HETATM    5  C2  UNL     1      38.008   3.163  43.619  1.00  0.00     0.127 A 
HETATM    6  C3  UNL     1      36.704   3.044  43.197  1.00  0.00     0.264 A 
HETATM    7  O1  UNL     1      35.648   3.296  43.875  1.00  0.00    -0.267 OA
HETATM    8  N4  UNL     1      36.758   2.611  41.926  1.00  0.00    -0.254 N 
ATOM      9  H4  UNL     1      35.944   2.427  41.339  1.00  0.00     0.191 HD
HETATM   10  N5  UNL     1      38.013   2.456  41.542  1.00  0.00    -0.182 N 
HETATM   11  C4  UNL     1      38.844   2.101  40.545  1.00  0.00     0.383 A 
HETATM   12  O2  UNL     1      38.493   1.717  39.396  1.00  0.00    -0.241 OA
ENDROOT
BRANCH   1  13
HETATM   13  N1  UNL     1      41.242   1.917  40.140  1.00  0.00    -0.320 N 
ATOM     14  H12 UNL     1      42.211   2.112  40.394  1.00  0.00     0.179 HD
ATOM     15  H11 UNL     1      41.253   1.480  39.219  1.00  0.00     0.179 HD
ENDBRANCH   1  13
TORSDOF 1
ENDMDL
MODEL 5
REMARK VINA RESULT: -6.017589337      1.812      2.139
REMARK  1 active torsions:
REMARK  status: ('A' for Active; 'I' for Inactive)
REMARK    1  A    between atoms: N1_1  and  N2_4 
ROOT
HETATM    1  N2  UNL     1      41.125   1.929  41.468  1.00  0.00    -0.145 N 
HETATM    2  N3  UNL     1      40.740   2.159  42.708  1.00  0.00    -0.258 N 
ATOM      3  H3  UNL     1      41.329   2.095  43.538  1.00  0.00     0.191 HD
HETATM    4  C1  UNL     1      39.425   2.495  42.688  1.00  0.00     0.153 A 
HETATM    5  C2  UNL     1      38.360   2.854  43.483  1.00  0.00     0.127 A 
HETATM    6  C3  UNL     1      37.277   3.045  42.658  1.00  0.00     0.264 A 
HETATM    7  O1  UNL     1      36.093   3.387  43.005  1.00  0.00    -0.267 OA
HETATM    8  N4  UNL     1      37.708   2.801  41.408  1.00  0.00    -0.254 N 
ATOM      9  H4  UNL     1      37.129   2.862  40.571  1.00  0.00     0.191 HD
HETATM   10  N5  UNL     1      38.988   2.473  41.416  1.00  0.00    -0.182 N 
HETATM   11  C4  UNL     1      40.059   2.119  40.682  1.00  0.00     0.383 A 
HETATM   12  O2  UNL     1      40.078   1.981  39.428  1.00  0.00    -0.241 OA
ENDROOT
BRANCH   1  13
HETATM   13  N1  UNL     1      42.406   1.552  41.024  1.00  0.00    -0.320 N 
ATOM     14  H12 UNL     1      43.287   1.850  41.443  1.00  0.00     0.179 HD
ATOM     15  H11 UNL     1      42.637   0.943  40.239  1.00  0.00     0.179 HD
ENDBRANCH   1  13
TORSDOF 1
ENDMDL
