MODEL 1
REMARK VINA RESULT: -7.141282928      0.000      0.000
REMARK  1 active torsions:
REMARK  status: ('A' for Active; 'I' for Inactive)
REMARK    1  A    between atoms: N1_1  and  C1_4 
ROOT
HETATM    1  C1  UNL     1      37.031   2.954  42.715  1.00  0.00     0.680 A 
HETATM    2  N2  UNL     1      36.769   2.767  41.409  1.00  0.00    -0.154 N 
ATOM      3  H2  UNL     1      35.798   2.772  41.098  1.00  0.00     0.187 HD
HETATM    4  C2  UNL     1      37.742   2.571  40.498  1.00  0.00     0.291 A 
HETATM    5  O1  UNL     1      37.469   2.401  39.296  1.00  0.00    -0.265 OA
HETATM    6  C3  UNL     1      39.068   2.558  40.885  1.00  0.00     0.164 A 
HETATM    7  N3  UNL     1      40.251   2.394  40.255  1.00  0.00    -0.278 N 
ATOM      8  H3  UNL     1      40.369   2.233  39.254  1.00  0.00     0.189 HD
HETATM    9  N4  UNL     1      41.233   2.477  41.137  1.00  0.00    -0.240 N 
ATOM     10  H4  UNL     1      42.230   2.391  40.941  1.00  0.00     0.208 HD
HETATM   11  N5  UNL     1      40.687   2.690  42.316  1.00  0.00    -0.268 N 
ATOM     12  H5  UNL     1      41.211   2.795  43.184  1.00  0.00     0.190 HD
HETATM   13  C4  UNL     1      39.341   2.750  42.223  1.00  0.00     0.170 A 
HETATM   14  N6  UNL     1      38.327   2.939  43.076  1.00  0.00    -0.173 N 
ATOM     15  H6  UNL     1      38.550   3.080  44.061  1.00  0.00     0.186 HD
ENDROOT
BRANCH   1  16
HETATM   16  N1  UNL     1      36.075   3.142  43.576  1.00  0.00    -0.234 N 
ATOM     17  H12 UNL     1      36.258   3.267  44.572  1.00  0.00     0.174 HD
ATOM     18  H11 UNL     1      35.098   3.172  43.284  1.00  0.00     0.174 HD
ENDBRANCH   1  16
TORSDOF 1
ENDMDL
MODEL 2
REMARK VINA RESULT: -7.094501992      1.806      2.768
REMARK  1 active torsions:
REMARK  status: ('A' for Active; 'I' for Inactive)
REMARK    1  A    between atoms: N1_1  and  C1_4 
ROOT
HETATM    1  C1  UNL     1      36.791   2.480  39.835  1.00  0.00     0.680 A 
HETATM    2  N2  UNL     1      36.163   2.391  41.022  1.00  0.00    -0.154 N 
ATOM      3  H2  UNL     1      35.157   2.231  41.034  1.00  0.00     0.187 HD
HETATM    4  C2  UNL     1      36.817   2.504  42.195  1.00  0.00     0.291 A 
HETATM    5  O1  UNL     1      36.210   2.416  43.277  1.00  0.00    -0.265 OA
HETATM    6  C3  UNL     1      38.181   2.721  42.215  1.00  0.00     0.164 A 
HETATM    7  N3  UNL     1      39.114   2.878  43.179  1.00  0.00    -0.278 N 
ATOM      8  H3  UNL     1      38.935   2.857  44.183  1.00  0.00     0.189 HD
HETATM    9  N4  UNL     1      40.298   3.061  42.617  1.00  0.00    -0.240 N 
ATOM     10  H4  UNL     1      41.182   3.205  43.105  1.00  0.00     0.208 HD
HETATM   11  N5  UNL     1      40.126   3.023  41.313  1.00  0.00    -0.268 N 
ATOM     12  H5  UNL     1      40.873   3.135  40.628  1.00  0.00     0.190 HD
HETATM   13  C4  UNL     1      38.827   2.814  41.001  1.00  0.00     0.170 A 
HETATM   14  N6  UNL     1      38.119   2.691  39.872  1.00  0.00    -0.173 N 
ATOM     15  H6  UNL     1      38.616   2.762  38.985  1.00  0.00     0.186 HD
ENDROOT
BRANCH   1  16
HETATM   16  N1  UNL     1      36.139   2.366  38.716  1.00  0.00    -0.234 N 
ATOM     17  H12 UNL     1      35.427   1.651  38.573  1.00  0.00     0.174 HD
ATOM     18  H11 UNL     1      36.317   2.995  37.933  1.00  0.00     0.174 HD
ENDBRANCH   1  16
TORSDOF 1
ENDMDL
MODEL 3
REMARK VINA RESULT: -7.018431875      1.775      3.919
REMARK  1 active torsions:
REMARK  status: ('A' for Active; 'I' for Inactive)
REMARK    1  A    between atoms: N1_1  and  C1_4 
ROOT
HETATM    1  C1  UNL     1      40.554   2.397  41.284  1.00  0.00     0.680 A 
HETATM    2  N2  UNL     1      39.964   2.845  42.407  1.00  0.00    -0.154 N 
ATOM      3  H2  UNL     1      40.546   3.055  43.217  1.00  0.00     0.187 HD
HETATM    4  C2  UNL     1      38.632   3.026  42.500  1.00  0.00     0.291 A 
HETATM    5  O1  UNL     1      38.114   3.442  43.552  1.00  0.00    -0.265 OA
HETATM    6  C3  UNL     1      37.813   2.751  41.421  1.00  0.00     0.164 A 
HETATM    7  N3  UNL     1      36.486   2.818  41.182  1.00  0.00    -0.278 N 
ATOM      8  H3  UNL     1      35.781   3.125  41.851  1.00  0.00     0.189 HD
HETATM    9  N4  UNL     1      36.245   2.424  39.942  1.00  0.00    -0.240 N 
ATOM     10  H4  UNL     1      35.331   2.374  39.491  1.00  0.00     0.208 HD
HETATM   11  N5  UNL     1      37.400   2.109  39.396  1.00  0.00    -0.268 N 
ATOM     12  H5  UNL     1      37.514   1.772  38.440  1.00  0.00     0.190 HD
HETATM   13  C4  UNL     1      38.415   2.292  40.269  1.00  0.00     0.170 A 
HETATM   14  N6  UNL     1      39.744   2.134  40.243  1.00  0.00    -0.173 N 
ATOM     15  H6  UNL     1      40.169   1.794  39.381  1.00  0.00     0.186 HD
ENDROOT
BRANCH   1  16
HETATM   16  N1  UNL     1      41.842   2.231  41.218  1.00  0.00    -0.234 N 
ATOM     17  H12 UNL     1      42.431   2.219  42.051  1.00  0.00     0.174 HD
ATOM     18  H11 UNL     1      42.314   2.105  40.323  1.00  0.00     0.174 HD
ENDBRANCH   1  16
TORSDOF 1
ENDMDL
MODEL 4
REMARK VINA RESULT: -6.829561686      1.669      2.549
REMARK  1 active torsions:
REMARK  status: ('A' for Active; 'I' for Inactive)
REMARK    1  A    between atoms: N1_1  and  C1_4 
ROOT
HETATM    1  C1  UNL     1      36.877   2.489  40.132  1.00  0.00     0.680 A 
HETATM    2  N2  UNL     1      36.738   2.879  41.412  1.00  0.00    -0.154 N 
ATOM      3  H2  UNL     1      35.802   3.073  41.767  1.00  0.00     0.187 HD
HETATM    4  C2  UNL     1      37.790   3.023  42.242  1.00  0.00     0.291 A 
HETATM    5  O1  UNL     1      37.632   3.385  43.421  1.00  0.00    -0.265 OA
HETATM    6  C3  UNL     1      39.072   2.768  41.793  1.00  0.00     0.164 A 
HETATM    7  N3  UNL     1      40.306   2.810  42.338  1.00  0.00    -0.278 N 
ATOM      8  H3  UNL     1      40.517   3.074  43.301  1.00  0.00     0.189 HD
HETATM    9  N4  UNL     1      41.200   2.457  41.429  1.00  0.00    -0.240 N 
ATOM     10  H4  UNL     1      42.209   2.400  41.564  1.00  0.00     0.208 HD
HETATM   11  N5  UNL     1      40.548   2.192  40.317  1.00  0.00    -0.268 N 
ATOM     12  H5  UNL     1      40.987   1.893  39.447  1.00  0.00     0.190 HD
HETATM   13  C4  UNL     1      39.218   2.368  40.481  1.00  0.00     0.170 A 
HETATM   14  N6  UNL     1      38.131   2.244  39.711  1.00  0.00    -0.173 N 
ATOM     15  H6  UNL     1      38.260   1.946  38.744  1.00  0.00     0.186 HD
ENDROOT
BRANCH   1  16
HETATM   16  N1  UNL     1      35.846   2.357  39.351  1.00  0.00    -0.234 N 
ATOM     17  H12 UNL     1      35.015   1.836  39.632  1.00  0.00     0.174 HD
ATOM     18  H11 UNL     1      35.830   2.773  38.420  1.00  0.00     0.174 HD
ENDBRANCH   1  16
TORSDOF 1
ENDMDL
MODEL 5
REMARK VINA RESULT: -6.819979348      0.841      3.390
REMARK  1 active torsions:
REMARK  status: ('A' for Active; 'I' for Inactive)
REMARK    1  A    between atoms: N1_1  and  C1_4 
ROOT
HETATM    1  C1  UNL     1      40.766   2.328  41.236  1.00  0.00     0.680 A 
HETATM    2  N2  UNL     1      39.973   2.124  40.169  1.00  0.00    -0.154 N 
ATOM      3  H2  UNL     1      40.400   1.846  39.286  1.00  0.00     0.187 HD
HETATM    4  C2  UNL     1      38.634   2.274  40.224  1.00  0.00     0.291 A 
HETATM    5  O1  UNL     1      37.926   2.079  39.220  1.00  0.00    -0.265 OA
HETATM    6  C3  UNL     1      38.023   2.651  41.404  1.00  0.00     0.164 A 
HETATM    7  N3  UNL     1      36.752   2.884  41.794  1.00  0.00    -0.278 N 
ATOM      8  H3  UNL     1      35.928   2.808  41.198  1.00  0.00     0.189 HD
HETATM    9  N4  UNL     1      36.741   3.225  43.073  1.00  0.00    -0.240 N 
ATOM     10  H4  UNL     1      35.919   3.456  43.630  1.00  0.00     0.208 HD
HETATM   11  N5  UNL     1      37.988   3.211  43.495  1.00  0.00    -0.268 N 
ATOM     12  H5  UNL     1      38.278   3.434  44.446  1.00  0.00     0.190 HD
HETATM   13  C4  UNL     1      38.833   2.860  42.500  1.00  0.00     0.170 A 
HETATM   14  N6  UNL     1      40.155   2.693  42.378  1.00  0.00    -0.173 N 
ATOM     15  H6  UNL     1      40.736   2.853  43.201  1.00  0.00     0.186 HD
ENDROOT
BRANCH   1  16
HETATM   16  N1  UNL     1      42.054   2.176  41.159  1.00  0.00    -0.234 N 
ATOM     17  H12 UNL     1      42.483   1.478  40.551  1.00  0.00     0.174 HD
ATOM     18  H11 UNL     1      42.690   2.755  41.707  1.00  0.00     0.174 HD
ENDBRANCH   1  16
TORSDOF 1
ENDMDL
