MODEL 1
REMARK VINA RESULT: -5.963182881      0.000      0.000
REMARK  16 active torsions:
REMARK  status: ('A' for Active; 'I' for Inactive)
REMARK    1  A    between atoms: N3_4  and  C2_6 
REMARK    2  A    between atoms: C2_6  and  C3_7 
REMARK    3  A    between atoms: C3_7  and  C4_8 
REMARK    4  A    between atoms: C4_8  and  C5_9 
REMARK    5  A    between atoms: C5_9  and  N4_10 
REMARK    6  A    between atoms: N4_10  and  C6_11 
REMARK    7  A    between atoms: N4_10  and  C11_21 
REMARK    8  A    between atoms: C6_11  and  C7_12 
REMARK    9  A    between atoms: C7_12  and  C8_13 
REMARK   10  A    between atoms: C8_13  and  N5_14 
REMARK   11  A    between atoms: N5_14  and  C9_17 
REMARK   12  A    between atoms: C9_17  and  C10_18 
REMARK   13  A    between atoms: C10_18  and  O1_19 
REMARK   14  A    between atoms: C11_21  and  C12_22 
REMARK   15  A    between atoms: C12_22  and  N6_23 
REMARK   16  A    between atoms: N6_23  and  C13_26 
ROOT
HETATM    1  N4  UNL     1      -5.209  54.721  37.598  1.00  0.00     0.090 N 
ENDROOT
BRANCH   1   2
HETATM    2  C5  UNL     1      -5.092  53.207  37.628  1.00  0.00     0.272 C 
BRANCH   2   3
HETATM    3  C4  UNL     1      -6.397  52.533  37.642  1.00  0.00     0.032 C 
BRANCH   3   4
HETATM    4  C3  UNL     1      -6.838  52.195  36.209  1.00  0.00     0.021 C 
BRANCH   4   5
HETATM    5  C2  UNL     1      -8.301  51.838  36.144  1.00  0.00     0.122 C 
BRANCH   5   6
HETATM    6  N3  UNL     1      -9.066  52.784  35.374  1.00  0.00    -0.367 N 
HETATM    7  C1  UNL     1     -10.239  53.198  35.658  1.00  0.00     0.196 C 
HETATM    8  N1  UNL     1     -10.823  54.134  34.762  1.00  0.00    -0.067 NA
HETATM    9  N2  UNL     1     -10.911  52.728  36.825  1.00  0.00    -0.067 NA
ATOM     10  H3  UNL     1      -8.633  53.154  34.528  1.00  0.00     0.161 HD
ENDBRANCH   5   6
ENDBRANCH   4   5
ENDBRANCH   3   4
ENDBRANCH   2   3
ENDBRANCH   1   2
BRANCH   1  11
HETATM   11  C6  UNL     1      -5.787  54.969  38.918  1.00  0.00     0.274 C 
BRANCH  11  12
HETATM   12  C7  UNL     1      -6.754  56.091  39.013  1.00  0.00     0.057 C 
BRANCH  12  13
HETATM   13  C8  UNL     1      -6.023  57.175  39.841  1.00  0.00     0.234 C 
BRANCH  13  14
HETATM   14  N5  UNL     1      -6.909  58.152  40.381  1.00  0.00    -0.073 N 
ATOM     15  H52 UNL     1      -7.824  57.754  40.593  1.00  0.00     0.277 HD
ATOM     16  H51 UNL     1      -6.636  58.427  41.324  1.00  0.00     0.277 HD
BRANCH  14  17
HETATM   17  C9  UNL     1      -7.014  59.280  39.514  1.00  0.00     0.258 C 
BRANCH  17  18
HETATM   18  C10 UNL     1      -5.636  59.572  38.925  1.00  0.00     0.191 C 
BRANCH  18  19
HETATM   19  O1  UNL     1      -5.002  60.544  39.713  1.00  0.00    -0.399 OA
ATOM     20  H1  UNL     1      -5.665  61.051  40.168  1.00  0.00     0.209 HD
ENDBRANCH  18  19
ENDBRANCH  17  18
ENDBRANCH  14  17
ENDBRANCH  13  14
ENDBRANCH  12  13
ENDBRANCH  11  12
ENDBRANCH   1  11
BRANCH   1  21
HETATM   21  C11 UNL     1      -3.858  55.199  37.475  1.00  0.00     0.299 C 
BRANCH  21  22
HETATM   22  C12 UNL     1      -3.446  55.811  36.180  1.00  0.00     0.263 C 
BRANCH  22  23
HETATM   23  N6  UNL     1      -4.659  56.319  35.566  1.00  0.00    -0.067 N 
ATOM     24  H62 UNL     1      -5.479  55.993  36.078  1.00  0.00     0.277 HD
ATOM     25  H61 UNL     1      -4.743  57.324  35.721  1.00  0.00     0.277 HD
BRANCH  23  26
HETATM   26  C13 UNL     1      -4.789  56.015  34.163  1.00  0.00     0.219 C 
HETATM   27  C14 UNL     1      -4.909  54.505  34.077  1.00  0.00     0.035 C 
HETATM   28  C15 UNL     1      -5.998  54.154  33.074  1.00  0.00     0.004 C 
HETATM   29  C16 UNL     1      -5.724  54.937  31.824  1.00  0.00     0.030 C 
HETATM   30  C17 UNL     1      -4.248  54.956  31.588  1.00  0.00     0.273 C 
HETATM   31  N7  UNL     1      -3.560  56.123  32.024  1.00  0.00     0.095 N 
HETATM   32  C18 UNL     1      -3.897  57.349  31.328  1.00  0.00     0.275 A 
HETATM   33  C20 UNL     1      -3.772  56.625  33.303  1.00  0.00     0.255 A 
HETATM   34  C19 UNL     1      -4.279  57.930  32.674  1.00  0.00     0.068 A 
ENDBRANCH  23  26
ENDBRANCH  22  23
ENDBRANCH  21  22
ENDBRANCH   1  21
TORSDOF 16
ENDMDL
MODEL 2
REMARK VINA RESULT: -5.856401039      2.744      5.398
REMARK  16 active torsions:
REMARK  status: ('A' for Active; 'I' for Inactive)
REMARK    1  A    between atoms: N3_4  and  C2_6 
REMARK    2  A    between atoms: C2_6  and  C3_7 
REMARK    3  A    between atoms: C3_7  and  C4_8 
REMARK    4  A    between atoms: C4_8  and  C5_9 
REMARK    5  A    between atoms: C5_9  and  N4_10 
REMARK    6  A    between atoms: N4_10  and  C6_11 
REMARK    7  A    between atoms: N4_10  and  C11_21 
REMARK    8  A    between atoms: C6_11  and  C7_12 
REMARK    9  A    between atoms: C7_12  and  C8_13 
REMARK   10  A    between atoms: C8_13  and  N5_14 
REMARK   11  A    between atoms: N5_14  and  C9_17 
REMARK   12  A    between atoms: C9_17  and  C10_18 
REMARK   13  A    between atoms: C10_18  and  O1_19 
REMARK   14  A    between atoms: C11_21  and  C12_22 
REMARK   15  A    between atoms: C12_22  and  N6_23 
REMARK   16  A    between atoms: N6_23  and  C13_26 
ROOT
HETATM    1  N4  UNL     1      -2.333  59.012  34.824  1.00  0.00     0.090 N 
ENDROOT
BRANCH   1   2
HETATM    2  C5  UNL     1      -2.216  58.294  33.491  1.00  0.00     0.272 C 
BRANCH   2   3
HETATM    3  C4  UNL     1      -3.483  57.697  33.051  1.00  0.00     0.032 C 
BRANCH   3   4
HETATM    4  C3  UNL     1      -3.218  56.522  32.097  1.00  0.00     0.021 C 
BRANCH   4   5
HETATM    5  C2  UNL     1      -4.494  55.825  31.699  1.00  0.00     0.122 C 
BRANCH   5   6
HETATM    6  N3  UNL     1      -4.955  54.901  32.702  1.00  0.00    -0.367 N 
HETATM    7  C1  UNL     1      -6.146  54.828  33.153  1.00  0.00     0.196 C 
HETATM    8  N1  UNL     1      -6.396  53.843  34.147  1.00  0.00    -0.067 NA
HETATM    9  N2  UNL     1      -7.161  55.705  32.666  1.00  0.00    -0.067 NA
ATOM     10  H3  UNL     1      -4.271  54.249  33.085  1.00  0.00     0.161 HD
ENDBRANCH   5   6
ENDBRANCH   4   5
ENDBRANCH   3   4
ENDBRANCH   2   3
ENDBRANCH   1   2
BRANCH   1  11
HETATM   11  C6  UNL     1      -3.639  58.531  35.271  1.00  0.00     0.274 C 
BRANCH  11  12
HETATM   12  C7  UNL     1      -4.306  59.326  36.333  1.00  0.00     0.057 C 
BRANCH  12  13
HETATM   13  C8  UNL     1      -4.922  58.275  37.286  1.00  0.00     0.234 C 
BRANCH  13  14
HETATM   14  N5  UNL     1      -5.045  58.746  38.626  1.00  0.00    -0.073 N 
ATOM     15  H52 UNL     1      -4.136  58.827  39.081  1.00  0.00     0.277 HD
ATOM     16  H51 UNL     1      -5.321  59.727  38.656  1.00  0.00     0.277 HD
BRANCH  14  17
HETATM   17  C9  UNL     1      -5.937  57.925  39.377  1.00  0.00     0.258 C 
BRANCH  17  18
HETATM   18  C10 UNL     1      -5.170  56.703  39.878  1.00  0.00     0.191 C 
BRANCH  18  19
HETATM   19  O1  UNL     1      -4.231  57.117  40.833  1.00  0.00    -0.399 OA
ATOM     20  H1  UNL     1      -4.687  57.328  41.640  1.00  0.00     0.209 HD
ENDBRANCH  18  19
ENDBRANCH  17  18
ENDBRANCH  14  17
ENDBRANCH  13  14
ENDBRANCH  12  13
ENDBRANCH  11  12
ENDBRANCH   1  11
BRANCH   1  21
HETATM   21  C11 UNL     1      -1.244  58.510  35.618  1.00  0.00     0.299 C 
BRANCH  21  22
HETATM   22  C12 UNL     1      -0.806  57.103  35.397  1.00  0.00     0.263 C 
BRANCH  22  23
HETATM   23  N6  UNL     1      -0.888  56.444  36.689  1.00  0.00    -0.067 N 
ATOM     24  H62 UNL     1       0.025  56.439  37.143  1.00  0.00     0.277 HD
ATOM     25  H61 UNL     1      -1.409  57.021  37.350  1.00  0.00     0.277 HD
BRANCH  23  26
HETATM   26  C13 UNL     1      -1.435  55.112  36.645  1.00  0.00     0.219 C 
HETATM   27  C14 UNL     1      -2.241  55.039  35.361  1.00  0.00     0.035 C 
HETATM   28  C15 UNL     1      -1.964  53.705  34.682  1.00  0.00     0.004 C 
HETATM   29  C16 UNL     1      -2.138  52.632  35.716  1.00  0.00     0.030 C 
HETATM   30  C17 UNL     1      -3.310  52.984  36.575  1.00  0.00     0.273 C 
HETATM   31  N7  UNL     1      -3.007  53.612  37.816  1.00  0.00     0.095 N 
HETATM   32  C18 UNL     1      -2.284  52.797  38.774  1.00  0.00     0.275 A 
HETATM   33  C20 UNL     1      -2.132  54.691  37.861  1.00  0.00     0.255 A 
HETATM   34  C19 UNL     1      -1.215  53.870  38.778  1.00  0.00     0.068 A 
ENDBRANCH  23  26
ENDBRANCH  22  23
ENDBRANCH  21  22
ENDBRANCH   1  21
TORSDOF 16
ENDMDL
MODEL 3
REMARK VINA RESULT: -5.830184513      3.683      6.181
REMARK  16 active torsions:
REMARK  status: ('A' for Active; 'I' for Inactive)
REMARK    1  A    between atoms: N3_4  and  C2_6 
REMARK    2  A    between atoms: C2_6  and  C3_7 
REMARK    3  A    between atoms: C3_7  and  C4_8 
REMARK    4  A    between atoms: C4_8  and  C5_9 
REMARK    5  A    between atoms: C5_9  and  N4_10 
REMARK    6  A    between atoms: N4_10  and  C6_11 
REMARK    7  A    between atoms: N4_10  and  C11_21 
REMARK    8  A    between atoms: C6_11  and  C7_12 
REMARK    9  A    between atoms: C7_12  and  C8_13 
REMARK   10  A    between atoms: C8_13  and  N5_14 
REMARK   11  A    between atoms: N5_14  and  C9_17 
REMARK   12  A    between atoms: C9_17  and  C10_18 
REMARK   13  A    between atoms: C10_18  and  O1_19 
REMARK   14  A    between atoms: C11_21  and  C12_22 
REMARK   15  A    between atoms: C12_22  and  N6_23 
REMARK   16  A    between atoms: N6_23  and  C13_26 
ROOT
HETATM    1  N4  UNL     1      -5.601  59.716  37.010  1.00  0.00     0.090 N 
ENDROOT
BRANCH   1   2
HETATM    2  C5  UNL     1      -5.403  60.162  38.447  1.00  0.00     0.272 C 
BRANCH   2   3
HETATM    3  C4  UNL     1      -6.587  60.827  39.007  1.00  0.00     0.032 C 
BRANCH   3   4
HETATM    4  C3  UNL     1      -7.523  59.796  39.654  1.00  0.00     0.021 C 
BRANCH   4   5
HETATM    5  C2  UNL     1      -6.818  58.491  39.924  1.00  0.00     0.122 C 
BRANCH   5   6
HETATM    6  N3  UNL     1      -7.578  57.350  39.482  1.00  0.00    -0.367 N 
HETATM    7  C1  UNL     1      -7.129  56.164  39.353  1.00  0.00     0.196 C 
HETATM    8  N1  UNL     1      -8.046  55.177  38.900  1.00  0.00    -0.067 NA
HETATM    9  N2  UNL     1      -5.766  55.866  39.655  1.00  0.00    -0.067 NA
ATOM     10  H3  UNL     1      -8.560  57.505  39.254  1.00  0.00     0.161 HD
ENDBRANCH   5   6
ENDBRANCH   4   5
ENDBRANCH   3   4
ENDBRANCH   2   3
ENDBRANCH   1   2
BRANCH   1  11
HETATM   11  C6  UNL     1      -6.047  60.968  36.402  1.00  0.00     0.274 C 
BRANCH  11  12
HETATM   12  C7  UNL     1      -6.388  60.915  34.958  1.00  0.00     0.057 C 
BRANCH  12  13
HETATM   13  C8  UNL     1      -6.909  62.333  34.621  1.00  0.00     0.234 C 
BRANCH  13  14
HETATM   14  N5  UNL     1      -8.319  62.459  34.787  1.00  0.00    -0.073 N 
ATOM     15  H52 UNL     1      -8.791  61.560  34.688  1.00  0.00     0.277 HD
ATOM     16  H51 UNL     1      -8.568  62.659  35.755  1.00  0.00     0.277 HD
BRANCH  14  17
HETATM   17  C9  UNL     1      -8.853  63.434  33.894  1.00  0.00     0.258 C 
BRANCH  17  18
HETATM   18  C10 UNL     1      -8.988  62.804  32.509  1.00  0.00     0.191 C 
BRANCH  18  19
HETATM   19  O1  UNL     1     -10.347  62.739  32.171  1.00  0.00    -0.399 OA
ATOM     20  H1  UNL     1     -10.477  62.025  31.557  1.00  0.00     0.209 HD
ENDBRANCH  18  19
ENDBRANCH  17  18
ENDBRANCH  14  17
ENDBRANCH  13  14
ENDBRANCH  12  13
ENDBRANCH  11  12
ENDBRANCH   1  11
BRANCH   1  21
HETATM   21  C11 UNL     1      -4.297  59.305  36.562  1.00  0.00     0.299 C 
BRANCH  21  22
HETATM   22  C12 UNL     1      -4.176  57.993  35.865  1.00  0.00     0.263 C 
BRANCH  22  23
HETATM   23  N6  UNL     1      -4.395  56.975  36.876  1.00  0.00    -0.067 N 
ATOM     24  H62 UNL     1      -4.207  57.351  37.806  1.00  0.00     0.277 HD
ATOM     25  H61 UNL     1      -5.390  56.772  36.968  1.00  0.00     0.277 HD
BRANCH  23  26
HETATM   26  C13 UNL     1      -3.651  55.758  36.667  1.00  0.00     0.219 C 
HETATM   27  C14 UNL     1      -2.344  56.179  36.022  1.00  0.00     0.035 C 
HETATM   28  C15 UNL     1      -1.205  55.403  36.668  1.00  0.00     0.004 C 
HETATM   29  C16 UNL     1      -1.591  53.953  36.659  1.00  0.00     0.030 C 
HETATM   30  C17 UNL     1      -2.272  53.649  35.364  1.00  0.00     0.273 C 
HETATM   31  N7  UNL     1      -3.695  53.643  35.394  1.00  0.00     0.095 N 
HETATM   32  C18 UNL     1      -4.303  52.601  36.198  1.00  0.00     0.275 A 
HETATM   33  C20 UNL     1      -4.389  54.695  35.980  1.00  0.00     0.255 A 
HETATM   34  C19 UNL     1      -4.996  53.699  36.978  1.00  0.00     0.068 A 
ENDBRANCH  23  26
ENDBRANCH  22  23
ENDBRANCH  21  22
ENDBRANCH   1  21
TORSDOF 16
ENDMDL
MODEL 4
REMARK VINA RESULT: -5.808411039      4.329      6.260
REMARK  16 active torsions:
REMARK  status: ('A' for Active; 'I' for Inactive)
REMARK    1  A    between atoms: N3_4  and  C2_6 
REMARK    2  A    between atoms: C2_6  and  C3_7 
REMARK    3  A    between atoms: C3_7  and  C4_8 
REMARK    4  A    between atoms: C4_8  and  C5_9 
REMARK    5  A    between atoms: C5_9  and  N4_10 
REMARK    6  A    between atoms: N4_10  and  C6_11 
REMARK    7  A    between atoms: N4_10  and  C11_21 
REMARK    8  A    between atoms: C6_11  and  C7_12 
REMARK    9  A    between atoms: C7_12  and  C8_13 
REMARK   10  A    between atoms: C8_13  and  N5_14 
REMARK   11  A    between atoms: N5_14  and  C9_17 
REMARK   12  A    between atoms: C9_17  and  C10_18 
REMARK   13  A    between atoms: C10_18  and  O1_19 
REMARK   14  A    between atoms: C11_21  and  C12_22 
REMARK   15  A    between atoms: C12_22  and  N6_23 
REMARK   16  A    between atoms: N6_23  and  C13_26 
ROOT
HETATM    1  N4  UNL     1      -6.963  59.966  38.872  1.00  0.00     0.090 N 
ENDROOT
BRANCH   1   2
HETATM    2  C5  UNL     1      -6.833  58.541  39.380  1.00  0.00     0.272 C 
BRANCH   2   3
HETATM    3  C4  UNL     1      -5.495  57.975  39.159  1.00  0.00     0.032 C 
BRANCH   3   4
HETATM    4  C3  UNL     1      -5.318  56.686  39.976  1.00  0.00     0.021 C 
BRANCH   4   5
HETATM    5  C2  UNL     1      -4.858  55.537  39.116  1.00  0.00     0.122 C 
BRANCH   5   6
HETATM    6  N3  UNL     1      -5.909  55.016  38.282  1.00  0.00    -0.367 N 
HETATM    7  C1  UNL     1      -6.396  53.839  38.349  1.00  0.00     0.196 C 
HETATM    8  N1  UNL     1      -7.431  53.520  37.429  1.00  0.00    -0.067 NA
HETATM    9  N2  UNL     1      -5.907  52.906  39.311  1.00  0.00    -0.067 NA
ATOM     10  H3  UNL     1      -6.297  55.641  37.576  1.00  0.00     0.161 HD
ENDBRANCH   5   6
ENDBRANCH   4   5
ENDBRANCH   3   4
ENDBRANCH   2   3
ENDBRANCH   1   2
BRANCH   1  11
HETATM   11  C6  UNL     1      -7.147  60.682  40.133  1.00  0.00     0.274 C 
BRANCH  11  12
HETATM   12  C7  UNL     1      -6.401  61.958  40.281  1.00  0.00     0.057 C 
BRANCH  12  13
HETATM   13  C8  UNL     1      -7.490  63.024  40.547  1.00  0.00     0.234 C 
BRANCH  13  14
HETATM   14  N5  UNL     1      -7.006  64.136  41.297  1.00  0.00    -0.073 N 
ATOM     15  H52 UNL     1      -7.250  65.022  40.855  1.00  0.00     0.277 HD
ATOM     16  H51 UNL     1      -7.518  64.252  42.171  1.00  0.00     0.277 HD
BRANCH  14  17
HETATM   17  C9  UNL     1      -5.601  64.029  41.520  1.00  0.00     0.258 C 
BRANCH  17  18
HETATM   18  C10 UNL     1      -5.160  65.186  42.413  1.00  0.00     0.191 C 
BRANCH  18  19
HETATM   19  O1  UNL     1      -5.013  66.337  41.625  1.00  0.00    -0.399 OA
ATOM     20  H1  UNL     1      -4.767  67.064  42.186  1.00  0.00     0.209 HD
ENDBRANCH  18  19
ENDBRANCH  17  18
ENDBRANCH  14  17
ENDBRANCH  13  14
ENDBRANCH  12  13
ENDBRANCH  11  12
ENDBRANCH   1  11
BRANCH   1  21
HETATM   21  C11 UNL     1      -5.704  60.254  38.238  1.00  0.00     0.299 C 
BRANCH  21  22
HETATM   22  C12 UNL     1      -5.713  60.611  36.791  1.00  0.00     0.263 C 
BRANCH  22  23
HETATM   23  N6  UNL     1      -6.413  61.879  36.689  1.00  0.00    -0.067 N 
ATOM     24  H62 UNL     1      -7.311  61.828  37.169  1.00  0.00     0.277 HD
ATOM     25  H61 UNL     1      -5.950  62.588  37.259  1.00  0.00     0.277 HD
BRANCH  23  26
HETATM   26  C13 UNL     1      -6.590  62.355  35.341  1.00  0.00     0.219 C 
HETATM   27  C14 UNL     1      -7.781  61.595  34.788  1.00  0.00     0.035 C 
HETATM   28  C15 UNL     1      -8.668  62.563  34.018  1.00  0.00     0.004 C 
HETATM   29  C16 UNL     1      -7.785  63.325  33.074  1.00  0.00     0.030 C 
HETATM   30  C17 UNL     1      -6.768  62.385  32.510  1.00  0.00     0.273 C 
HETATM   31  N7  UNL     1      -5.488  62.404  33.131  1.00  0.00     0.095 N 
HETATM   32  C18 UNL     1      -4.736  63.635  32.987  1.00  0.00     0.275 A 
HETATM   33  C20 UNL     1      -5.380  62.334  34.516  1.00  0.00     0.255 A 
HETATM   34  C19 UNL     1      -4.689  63.705  34.500  1.00  0.00     0.068 A 
ENDBRANCH  23  26
ENDBRANCH  22  23
ENDBRANCH  21  22
ENDBRANCH   1  21
TORSDOF 16
ENDMDL
MODEL 5
REMARK VINA RESULT: -5.754873001      4.114      7.984
REMARK  16 active torsions:
REMARK  status: ('A' for Active; 'I' for Inactive)
REMARK    1  A    between atoms: N3_4  and  C2_6 
REMARK    2  A    between atoms: C2_6  and  C3_7 
REMARK    3  A    between atoms: C3_7  and  C4_8 
REMARK    4  A    between atoms: C4_8  and  C5_9 
REMARK    5  A    between atoms: C5_9  and  N4_10 
REMARK    6  A    between atoms: N4_10  and  C6_11 
REMARK    7  A    between atoms: N4_10  and  C11_21 
REMARK    8  A    between atoms: C6_11  and  C7_12 
REMARK    9  A    between atoms: C7_12  and  C8_13 
REMARK   10  A    between atoms: C8_13  and  N5_14 
REMARK   11  A    between atoms: N5_14  and  C9_17 
REMARK   12  A    between atoms: C9_17  and  C10_18 
REMARK   13  A    between atoms: C10_18  and  O1_19 
REMARK   14  A    between atoms: C11_21  and  C12_22 
REMARK   15  A    between atoms: C12_22  and  N6_23 
REMARK   16  A    between atoms: N6_23  and  C13_26 
ROOT
HETATM    1  N4  UNL     1      -3.868  58.971  35.967  1.00  0.00     0.090 N 
ENDROOT
BRANCH   1   2
HETATM    2  C5  UNL     1      -3.458  60.041  34.971  1.00  0.00     0.272 C 
BRANCH   2   3
HETATM    3  C4  UNL     1      -2.011  60.068  34.724  1.00  0.00     0.032 C 
BRANCH   3   4
HETATM    4  C3  UNL     1      -1.686  61.003  33.549  1.00  0.00     0.021 C 
BRANCH   4   5
HETATM    5  C2  UNL     1      -1.545  62.435  33.997  1.00  0.00     0.122 C 
BRANCH   5   6
HETATM    6  N3  UNL     1      -0.169  62.848  34.102  1.00  0.00    -0.367 N 
HETATM    7  C1  UNL     1       0.306  63.629  34.991  1.00  0.00     0.196 C 
HETATM    8  N1  UNL     1       1.697  63.914  34.918  1.00  0.00    -0.067 NA
HETATM    9  N2  UNL     1      -0.540  64.179  36.001  1.00  0.00    -0.067 NA
ATOM     10  H3  UNL     1       0.481  62.484  33.406  1.00  0.00     0.161 HD
ENDBRANCH   5   6
ENDBRANCH   4   5
ENDBRANCH   3   4
ENDBRANCH   2   3
ENDBRANCH   1   2
BRANCH   1  11
HETATM   11  C6  UNL     1      -5.082  59.571  36.518  1.00  0.00     0.274 C 
BRANCH  11  12
HETATM   12  C7  UNL     1      -5.066  59.873  37.972  1.00  0.00     0.057 C 
BRANCH  12  13
HETATM   13  C8  UNL     1      -5.727  58.643  38.638  1.00  0.00     0.234 C 
BRANCH  13  14
HETATM   14  N5  UNL     1      -4.986  58.152  39.753  1.00  0.00    -0.073 N 
ATOM     15  H52 UNL     1      -3.993  58.067  39.537  1.00  0.00     0.277 HD
ATOM     16  H51 UNL     1      -4.925  58.844  40.499  1.00  0.00     0.277 HD
BRANCH  14  17
HETATM   17  C9  UNL     1      -5.528  56.919  40.223  1.00  0.00     0.258 C 
BRANCH  17  18
HETATM   18  C10 UNL     1      -7.031  57.095  40.430  1.00  0.00     0.191 C 
BRANCH  18  19
HETATM   19  O1  UNL     1      -7.253  57.652  41.697  1.00  0.00    -0.399 OA
ATOM     20  H1  UNL     1      -6.896  58.533  41.712  1.00  0.00     0.209 HD
ENDBRANCH  18  19
ENDBRANCH  17  18
ENDBRANCH  14  17
ENDBRANCH  13  14
ENDBRANCH  12  13
ENDBRANCH  11  12
ENDBRANCH   1  11
BRANCH   1  21
HETATM   21  C11 UNL     1      -4.128  57.800  35.174  1.00  0.00     0.299 C 
BRANCH  21  22
HETATM   22  C12 UNL     1      -4.344  56.507  35.882  1.00  0.00     0.263 C 
BRANCH  22  23
HETATM   23  N6  UNL     1      -3.190  56.316  36.742  1.00  0.00    -0.067 N 
ATOM     24  H62 UNL     1      -2.408  56.886  36.418  1.00  0.00     0.277 HD
ATOM     25  H61 UNL     1      -3.351  56.742  37.654  1.00  0.00     0.277 HD
BRANCH  23  26
HETATM   26  C13 UNL     1      -2.781  54.942  36.895  1.00  0.00     0.219 C 
HETATM   27  C14 UNL     1      -3.065  54.276  35.561  1.00  0.00     0.035 C 
HETATM   28  C15 UNL     1      -1.890  53.380  35.199  1.00  0.00     0.004 C 
HETATM   29  C16 UNL     1      -1.595  52.524  36.395  1.00  0.00     0.030 C 
HETATM   30  C17 UNL     1      -2.891  52.110  37.016  1.00  0.00     0.273 C 
HETATM   31  N7  UNL     1      -3.319  52.877  38.136  1.00  0.00     0.095 N 
HETATM   32  C18 UNL     1      -2.484  52.785  39.318  1.00  0.00     0.275 A 
HETATM   33  C20 UNL     1      -3.324  54.266  38.075  1.00  0.00     0.255 A 
HETATM   34  C19 UNL     1      -2.329  54.290  39.242  1.00  0.00     0.068 A 
ENDBRANCH  23  26
ENDBRANCH  22  23
ENDBRANCH  21  22
ENDBRANCH   1  21
TORSDOF 16
ENDMDL
