MODEL 1
REMARK VINA RESULT: -6.330963197      0.000      0.000
REMARK  17 active torsions:
REMARK  status: ('A' for Active; 'I' for Inactive)
REMARK    1  A    between atoms: C2_2  and  C3_3 
REMARK    2  A    between atoms: C3_3  and  N1_4 
REMARK    3  A    between atoms: N1_4  and  C4_6 
REMARK    4  A    between atoms: C5_9  and  C6_10 
REMARK    5  A    between atoms: C6_10  and  C7_11 
REMARK    6  A    between atoms: C7_11  and  C8_12 
REMARK    7  A    between atoms: C8_12  and  N3_13 
REMARK    8  A    between atoms: C10_20  and  N7_21 
REMARK    9  A    between atoms: N7_21  and  C11_23 
REMARK   10  A    between atoms: C11_23  and  C12_24 
REMARK   11  A    between atoms: C12_24  and  C13_25 
REMARK   12  A    between atoms: C13_25  and  C14_26 
REMARK   13  A    between atoms: C14_26  and  C15_27 
REMARK   14  A    between atoms: C15_27  and  C16_28 
REMARK   15  A    between atoms: C16_28  and  C17_29 
REMARK   16  A    between atoms: C17_29  and  N8_30 
REMARK   17  A    between atoms: N8_30  and  C18_32 
ROOT
HETATM    1  C4  UNL     1      -3.598  54.837  39.195  1.00  0.00     0.694 A 
HETATM    2  N2  UNL     1      -4.296  55.976  39.242  1.00  0.00    -0.180 N 
ATOM      3  H2  UNL     1      -3.824  56.852  39.465  1.00  0.00     0.185 HD
HETATM    4  C5  UNL     1      -5.621  55.973  38.996  1.00  0.00     0.113 A 
HETATM    5  N6  UNL     1      -6.241  54.833  38.708  1.00  0.00    -0.180 N 
ATOM      6  H6  UNL     1      -7.244  54.832  38.525  1.00  0.00     0.185 HD
HETATM    7  C10 UNL     1      -5.544  53.674  38.658  1.00  0.00     0.694 A 
HETATM    8  N9  UNL     1      -4.219  53.668  38.902  1.00  0.00    -0.022 N 
ATOM      9  H9  UNL     1      -3.691  52.796  38.866  1.00  0.00     0.203 HD
ENDROOT
BRANCH   7  10
HETATM   10  N7  UNL     1      -6.096  52.553  38.385  1.00  0.00    -0.226 N 
ATOM     11  H7  UNL     1      -6.114  51.840  39.115  1.00  0.00     0.177 HD
BRANCH  10  12
HETATM   12  C11 UNL     1      -6.698  52.231  37.106  1.00  0.00     0.138 C 
BRANCH  12  13
HETATM   13  C12 UNL     1      -5.673  52.261  35.991  1.00  0.00     0.020 C 
BRANCH  13  14
HETATM   14  C13 UNL     1      -5.910  53.348  34.999  1.00  0.00     0.002 C 
BRANCH  14  15
HETATM   15  C14 UNL     1      -4.878  54.446  35.050  1.00  0.00     0.000 C 
BRANCH  15  16
HETATM   16  C15 UNL     1      -3.502  53.924  35.348  1.00  0.00     0.002 C 
BRANCH  16  17
HETATM   17  C16 UNL     1      -2.400  54.868  34.978  1.00  0.00     0.020 C 
BRANCH  17  18
HETATM   18  C17 UNL     1      -2.882  56.311  35.112  1.00  0.00     0.122 C 
BRANCH  18  19
HETATM   19  N8  UNL     1      -2.077  57.035  36.056  1.00  0.00    -0.368 N 
ATOM     20  H8  UNL     1      -2.472  57.327  36.950  1.00  0.00     0.161 HD
BRANCH  19  21
HETATM   21  C18 UNL     1      -0.738  57.339  35.742  1.00  0.00     0.348 C 
HETATM   22  O1  UNL     1      -0.349  58.520  35.747  1.00  0.00    -0.284 OA
ENDBRANCH  19  21
ENDBRANCH  18  19
ENDBRANCH  17  18
ENDBRANCH  16  17
ENDBRANCH  15  16
ENDBRANCH  14  15
ENDBRANCH  13  14
ENDBRANCH  12  13
ENDBRANCH  10  12
ENDBRANCH   7  10
BRANCH   4  23
HETATM   23  C6  UNL     1      -6.383  57.242  39.051  1.00  0.00     0.079 C 
BRANCH  23  24
HETATM   24  C7  UNL     1      -5.465  58.401  39.350  1.00  0.00     0.027 C 
BRANCH  24  25
HETATM   25  C8  UNL     1      -5.984  59.617  38.579  1.00  0.00     0.122 C 
BRANCH  25  26
HETATM   26  N3  UNL     1      -5.734  60.772  39.408  1.00  0.00    -0.367 N 
HETATM   27  C9  UNL     1      -6.668  61.345  40.110  1.00  0.00     0.196 C 
HETATM   28  N4  UNL     1      -6.356  62.475  40.903  1.00  0.00    -0.067 NA
HETATM   29  N5  UNL     1      -7.967  60.786  40.031  1.00  0.00    -0.067 NA
ATOM     30  H3  UNL     1      -4.789  61.154  39.445  1.00  0.00     0.161 HD
ENDBRANCH  25  26
ENDBRANCH  24  25
ENDBRANCH  23  24
ENDBRANCH   4  23
BRANCH   1  31
HETATM   31  N1  UNL     1      -2.321  54.831  39.429  1.00  0.00    -0.222 N 
ATOM     32  H1  UNL     1      -1.990  55.052  40.368  1.00  0.00     0.178 HD
BRANCH  31  33
HETATM   33  C3  UNL     1      -1.357  54.523  38.405  1.00  0.00     0.164 C 
BRANCH  33  34
HETATM   34  C2  UNL     1      -0.840  53.152  38.656  1.00  0.00    -0.017 C 
HETATM   35  C1  UNL     1      -0.834  52.216  37.701  1.00  0.00     0.008 C 
ENDBRANCH  33  34
ENDBRANCH  31  33
ENDBRANCH   1  31
TORSDOF 17
ENDMDL
MODEL 2
REMARK VINA RESULT: -6.282421925      4.628      8.335
REMARK  17 active torsions:
REMARK  status: ('A' for Active; 'I' for Inactive)
REMARK    1  A    between atoms: C2_2  and  C3_3 
REMARK    2  A    between atoms: C3_3  and  N1_4 
REMARK    3  A    between atoms: N1_4  and  C4_6 
REMARK    4  A    between atoms: C5_9  and  C6_10 
REMARK    5  A    between atoms: C6_10  and  C7_11 
REMARK    6  A    between atoms: C7_11  and  C8_12 
REMARK    7  A    between atoms: C8_12  and  N3_13 
REMARK    8  A    between atoms: C10_20  and  N7_21 
REMARK    9  A    between atoms: N7_21  and  C11_23 
REMARK   10  A    between atoms: C11_23  and  C12_24 
REMARK   11  A    between atoms: C12_24  and  C13_25 
REMARK   12  A    between atoms: C13_25  and  C14_26 
REMARK   13  A    between atoms: C14_26  and  C15_27 
REMARK   14  A    between atoms: C15_27  and  C16_28 
REMARK   15  A    between atoms: C16_28  and  C17_29 
REMARK   16  A    between atoms: C17_29  and  N8_30 
REMARK   17  A    between atoms: N8_30  and  C18_32 
ROOT
HETATM    1  C4  UNL     1      -6.274  61.274  39.619  1.00  0.00     0.694 A 
HETATM    2  N2  UNL     1      -5.893  59.994  39.571  1.00  0.00    -0.180 N 
ATOM      3  H2  UNL     1      -5.694  59.490  40.435  1.00  0.00     0.185 HD
HETATM    4  C5  UNL     1      -5.771  59.365  38.386  1.00  0.00     0.113 A 
HETATM    5  N6  UNL     1      -6.027  60.018  37.257  1.00  0.00    -0.180 N 
ATOM      6  H6  UNL     1      -5.932  59.541  36.361  1.00  0.00     0.185 HD
HETATM    7  C10 UNL     1      -6.413  61.314  37.294  1.00  0.00     0.694 A 
HETATM    8  N9  UNL     1      -6.538  61.951  38.475  1.00  0.00    -0.022 N 
ATOM      9  H9  UNL     1      -6.827  62.929  38.507  1.00  0.00     0.203 HD
ENDROOT
BRANCH   7  10
HETATM   10  N7  UNL     1      -6.670  61.984  36.236  1.00  0.00    -0.226 N 
ATOM     11  H7  UNL     1      -6.988  62.947  36.346  1.00  0.00     0.177 HD
BRANCH  10  12
HETATM   12  C11 UNL     1      -6.538  61.464  34.889  1.00  0.00     0.138 C 
BRANCH  12  13
HETATM   13  C12 UNL     1      -7.890  61.133  34.290  1.00  0.00     0.020 C 
BRANCH  13  14
HETATM   14  C13 UNL     1      -7.824  60.102  33.216  1.00  0.00     0.002 C 
BRANCH  14  15
HETATM   15  C14 UNL     1      -9.133  59.898  32.496  1.00  0.00     0.000 C 
BRANCH  15  16
HETATM   16  C15 UNL     1      -9.268  58.510  31.939  1.00  0.00     0.002 C 
BRANCH  16  17
HETATM   17  C16 UNL     1     -10.620  57.899  32.148  1.00  0.00     0.020 C 
BRANCH  17  18
HETATM   18  C17 UNL     1     -10.475  56.505  32.756  1.00  0.00     0.122 C 
BRANCH  18  19
HETATM   19  N8  UNL     1     -11.679  55.742  32.582  1.00  0.00    -0.368 N 
ATOM     20  H8  UNL     1     -12.213  55.817  31.716  1.00  0.00     0.161 HD
BRANCH  19  21
HETATM   21  C18 UNL     1     -12.118  54.888  33.612  1.00  0.00     0.348 C 
HETATM   22  O1  UNL     1     -11.382  53.974  34.022  1.00  0.00    -0.284 OA
ENDBRANCH  19  21
ENDBRANCH  18  19
ENDBRANCH  17  18
ENDBRANCH  16  17
ENDBRANCH  15  16
ENDBRANCH  14  15
ENDBRANCH  13  14
ENDBRANCH  12  13
ENDBRANCH  10  12
ENDBRANCH   7  10
BRANCH   4  23
HETATM   23  C6  UNL     1      -5.349  57.945  38.345  1.00  0.00     0.079 C 
BRANCH  23  24
HETATM   24  C7  UNL     1      -5.415  57.331  39.721  1.00  0.00     0.027 C 
BRANCH  24  25
HETATM   25  C8  UNL     1      -6.039  55.940  39.581  1.00  0.00     0.122 C 
BRANCH  25  26
HETATM   26  N3  UNL     1      -7.468  56.133  39.500  1.00  0.00    -0.367 N 
HETATM   27  C9  UNL     1      -8.250  55.308  38.865  1.00  0.00     0.196 C 
HETATM   28  N4  UNL     1      -9.643  55.556  38.823  1.00  0.00    -0.067 NA
HETATM   29  N5  UNL     1      -7.640  54.193  38.241  1.00  0.00    -0.067 NA
ATOM     30  H3  UNL     1      -7.880  56.945  39.958  1.00  0.00     0.161 HD
ENDBRANCH  25  26
ENDBRANCH  24  25
ENDBRANCH  23  24
ENDBRANCH   4  23
BRANCH   1  31
HETATM   31  N1  UNL     1      -6.395  61.887  40.757  1.00  0.00    -0.222 N 
ATOM     32  H1  UNL     1      -6.408  61.337  41.616  1.00  0.00     0.178 HD
BRANCH  31  33
HETATM   33  C3  UNL     1      -6.512  63.320  40.845  1.00  0.00     0.164 C 
BRANCH  33  34
HETATM   34  C2  UNL     1      -5.371  63.828  41.651  1.00  0.00    -0.017 C 
HETATM   35  C1  UNL     1      -5.280  65.112  42.010  1.00  0.00     0.008 C 
ENDBRANCH  33  34
ENDBRANCH  31  33
ENDBRANCH   1  31
TORSDOF 17
ENDMDL
MODEL 3
REMARK VINA RESULT: -6.144940529      4.658      8.522
REMARK  17 active torsions:
REMARK  status: ('A' for Active; 'I' for Inactive)
REMARK    1  A    between atoms: C2_2  and  C3_3 
REMARK    2  A    between atoms: C3_3  and  N1_4 
REMARK    3  A    between atoms: N1_4  and  C4_6 
REMARK    4  A    between atoms: C5_9  and  C6_10 
REMARK    5  A    between atoms: C6_10  and  C7_11 
REMARK    6  A    between atoms: C7_11  and  C8_12 
REMARK    7  A    between atoms: C8_12  and  N3_13 
REMARK    8  A    between atoms: C10_20  and  N7_21 
REMARK    9  A    between atoms: N7_21  and  C11_23 
REMARK   10  A    between atoms: C11_23  and  C12_24 
REMARK   11  A    between atoms: C12_24  and  C13_25 
REMARK   12  A    between atoms: C13_25  and  C14_26 
REMARK   13  A    between atoms: C14_26  and  C15_27 
REMARK   14  A    between atoms: C15_27  and  C16_28 
REMARK   15  A    between atoms: C16_28  and  C17_29 
REMARK   16  A    between atoms: C17_29  and  N8_30 
REMARK   17  A    between atoms: N8_30  and  C18_32 
ROOT
HETATM    1  C4  UNL     1      -6.191  61.252  39.522  1.00  0.00     0.694 A 
HETATM    2  N2  UNL     1      -5.793  59.979  39.430  1.00  0.00    -0.180 N 
ATOM      3  H2  UNL     1      -5.563  59.457  40.275  1.00  0.00     0.185 HD
HETATM    4  C5  UNL     1      -5.692  59.383  38.226  1.00  0.00     0.113 A 
HETATM    5  N6  UNL     1      -5.986  60.061  37.122  1.00  0.00    -0.180 N 
ATOM      6  H6  UNL     1      -5.907  59.609  36.211  1.00  0.00     0.185 HD
HETATM    7  C10 UNL     1      -6.391  61.350  37.203  1.00  0.00     0.694 A 
HETATM    8  N9  UNL     1      -6.495  61.954  38.402  1.00  0.00    -0.022 N 
ATOM      9  H9  UNL     1      -6.799  62.926  38.468  1.00  0.00     0.203 HD
ENDROOT
BRANCH   7  10
HETATM   10  N7  UNL     1      -6.686  62.042  36.169  1.00  0.00    -0.226 N 
ATOM     11  H7  UNL     1      -6.639  63.059  36.247  1.00  0.00     0.177 HD
BRANCH  10  12
HETATM   12  C11 UNL     1      -7.082  61.477  34.894  1.00  0.00     0.138 C 
BRANCH  12  13
HETATM   13  C12 UNL     1      -8.544  61.745  34.602  1.00  0.00     0.020 C 
BRANCH  13  14
HETATM   14  C13 UNL     1      -8.761  62.873  33.653  1.00  0.00     0.002 C 
BRANCH  14  15
HETATM   15  C14 UNL     1      -9.467  62.467  32.385  1.00  0.00     0.000 C 
BRANCH  15  16
HETATM   16  C15 UNL     1      -8.762  61.351  31.670  1.00  0.00     0.002 C 
BRANCH  16  17
HETATM   17  C16 UNL     1      -9.646  60.191  31.328  1.00  0.00     0.020 C 
BRANCH  17  18
HETATM   18  C17 UNL     1      -9.394  59.038  32.297  1.00  0.00     0.122 C 
BRANCH  18  19
HETATM   19  N8  UNL     1     -10.618  58.353  32.608  1.00  0.00    -0.368 N 
ATOM     20  H8  UNL     1     -11.427  58.875  32.946  1.00  0.00     0.161 HD
BRANCH  19  21
HETATM   21  C18 UNL     1     -10.696  56.957  32.443  1.00  0.00     0.348 C 
HETATM   22  O1  UNL     1      -9.872  56.215  33.005  1.00  0.00    -0.284 OA
ENDBRANCH  19  21
ENDBRANCH  18  19
ENDBRANCH  17  18
ENDBRANCH  16  17
ENDBRANCH  15  16
ENDBRANCH  14  15
ENDBRANCH  13  14
ENDBRANCH  12  13
ENDBRANCH  10  12
ENDBRANCH   7  10
BRANCH   4  23
HETATM   23  C6  UNL     1      -5.249  57.972  38.138  1.00  0.00     0.079 C 
BRANCH  23  24
HETATM   24  C7  UNL     1      -6.073  57.098  39.049  1.00  0.00     0.027 C 
BRANCH  24  25
HETATM   25  C8  UNL     1      -5.149  56.569  40.149  1.00  0.00     0.122 C 
BRANCH  25  26
HETATM   26  N3  UNL     1      -4.121  55.797  39.492  1.00  0.00    -0.367 N 
HETATM   27  C9  UNL     1      -3.373  54.942  40.129  1.00  0.00     0.196 C 
HETATM   28  N4  UNL     1      -2.382  54.217  39.425  1.00  0.00    -0.067 NA
HETATM   29  N5  UNL     1      -3.606  54.793  41.518  1.00  0.00    -0.067 NA
ATOM     30  H3  UNL     1      -3.975  55.925  38.491  1.00  0.00     0.161 HD
ENDBRANCH  25  26
ENDBRANCH  24  25
ENDBRANCH  23  24
ENDBRANCH   4  23
BRANCH   1  31
HETATM   31  N1  UNL     1      -6.292  61.834  40.678  1.00  0.00    -0.222 N 
ATOM     32  H1  UNL     1      -6.213  61.269  41.524  1.00  0.00     0.178 HD
BRANCH  31  33
HETATM   33  C3  UNL     1      -6.513  63.251  40.804  1.00  0.00     0.164 C 
BRANCH  33  34
HETATM   34  C2  UNL     1      -5.530  63.786  41.782  1.00  0.00    -0.017 C 
HETATM   35  C1  UNL     1      -5.220  65.086  41.829  1.00  0.00     0.008 C 
ENDBRANCH  33  34
ENDBRANCH  31  33
ENDBRANCH   1  31
TORSDOF 17
ENDMDL
MODEL 4
REMARK VINA RESULT: -6.111212296      3.344      6.554
REMARK  17 active torsions:
REMARK  status: ('A' for Active; 'I' for Inactive)
REMARK    1  A    between atoms: C2_2  and  C3_3 
REMARK    2  A    between atoms: C3_3  and  N1_4 
REMARK    3  A    between atoms: N1_4  and  C4_6 
REMARK    4  A    between atoms: C5_9  and  C6_10 
REMARK    5  A    between atoms: C6_10  and  C7_11 
REMARK    6  A    between atoms: C7_11  and  C8_12 
REMARK    7  A    between atoms: C8_12  and  N3_13 
REMARK    8  A    between atoms: C10_20  and  N7_21 
REMARK    9  A    between atoms: N7_21  and  C11_23 
REMARK   10  A    between atoms: C11_23  and  C12_24 
REMARK   11  A    between atoms: C12_24  and  C13_25 
REMARK   12  A    between atoms: C13_25  and  C14_26 
REMARK   13  A    between atoms: C14_26  and  C15_27 
REMARK   14  A    between atoms: C15_27  and  C16_28 
REMARK   15  A    between atoms: C16_28  and  C17_29 
REMARK   16  A    between atoms: C17_29  and  N8_30 
REMARK   17  A    between atoms: N8_30  and  C18_32 
ROOT
HETATM    1  C4  UNL     1      -6.562  61.221  39.498  1.00  0.00     0.694 A 
HETATM    2  N2  UNL     1      -6.614  61.746  38.270  1.00  0.00    -0.180 N 
ATOM      3  H2  UNL     1      -7.051  62.656  38.125  1.00  0.00     0.185 HD
HETATM    4  C5  UNL     1      -6.091  61.080  37.222  1.00  0.00     0.113 A 
HETATM    5  N6  UNL     1      -5.522  59.893  37.406  1.00  0.00    -0.180 N 
ATOM      6  H6  UNL     1      -5.128  59.389  36.612  1.00  0.00     0.185 HD
HETATM    7  C10 UNL     1      -5.464  59.352  38.645  1.00  0.00     0.694 A 
HETATM    8  N9  UNL     1      -5.984  60.011  39.698  1.00  0.00    -0.022 N 
ATOM      9  H9  UNL     1      -5.943  59.606  40.633  1.00  0.00     0.203 HD
ENDROOT
BRANCH   7  10
HETATM   10  N7  UNL     1      -4.927  58.214  38.871  1.00  0.00    -0.226 N 
ATOM     11  H7  UNL     1      -3.954  58.082  38.594  1.00  0.00     0.177 HD
BRANCH  10  12
HETATM   12  C11 UNL     1      -5.611  57.100  39.498  1.00  0.00     0.138 C 
BRANCH  12  13
HETATM   13  C12 UNL     1      -5.266  55.789  38.821  1.00  0.00     0.020 C 
BRANCH  13  14
HETATM   14  C13 UNL     1      -4.099  55.095  39.435  1.00  0.00     0.002 C 
BRANCH  14  15
HETATM   15  C14 UNL     1      -3.562  53.963  38.597  1.00  0.00     0.000 C 
BRANCH  15  16
HETATM   16  C15 UNL     1      -2.100  53.718  38.838  1.00  0.00     0.002 C 
BRANCH  16  17
HETATM   17  C16 UNL     1      -1.196  54.666  38.111  1.00  0.00     0.020 C 
BRANCH  17  18
HETATM   18  C17 UNL     1      -1.681  54.851  36.674  1.00  0.00     0.122 C 
BRANCH  18  19
HETATM   19  N8  UNL     1      -1.937  56.237  36.395  1.00  0.00    -0.368 N 
ATOM     20  H8  UNL     1      -1.279  56.953  36.704  1.00  0.00     0.161 HD
BRANCH  19  21
HETATM   21  C18 UNL     1      -3.101  56.603  35.691  1.00  0.00     0.348 C 
HETATM   22  O1  UNL     1      -3.838  57.503  36.129  1.00  0.00    -0.284 OA
ENDBRANCH  19  21
ENDBRANCH  18  19
ENDBRANCH  17  18
ENDBRANCH  16  17
ENDBRANCH  15  16
ENDBRANCH  14  15
ENDBRANCH  13  14
ENDBRANCH  12  13
ENDBRANCH  10  12
ENDBRANCH   7  10
BRANCH   4  23
HETATM   23  C6  UNL     1      -6.155  61.674  35.866  1.00  0.00     0.079 C 
BRANCH  23  24
HETATM   24  C7  UNL     1      -7.422  61.259  35.163  1.00  0.00     0.027 C 
BRANCH  24  25
HETATM   25  C8  UNL     1      -7.832  62.400  34.229  1.00  0.00     0.122 C 
BRANCH  25  26
HETATM   26  N3  UNL     1      -7.467  63.630  34.891  1.00  0.00    -0.367 N 
HETATM   27  C9  UNL     1      -7.135  64.705  34.237  1.00  0.00     0.196 C 
HETATM   28  N4  UNL     1      -6.786  65.879  34.947  1.00  0.00    -0.067 NA
HETATM   29  N5  UNL     1      -7.144  64.626  32.822  1.00  0.00    -0.067 NA
ATOM     30  H3  UNL     1      -7.468  63.657  35.910  1.00  0.00     0.161 HD
ENDBRANCH  25  26
ENDBRANCH  24  25
ENDBRANCH  23  24
ENDBRANCH   4  23
BRANCH   1  31
HETATM   31  N1  UNL     1      -7.062  61.857  40.513  1.00  0.00    -0.222 N 
ATOM     32  H1  UNL     1      -7.575  61.331  41.221  1.00  0.00     0.178 HD
BRANCH  31  33
HETATM   33  C3  UNL     1      -6.917  63.281  40.671  1.00  0.00     0.164 C 
BRANCH  33  34
HETATM   34  C2  UNL     1      -5.793  63.528  41.612  1.00  0.00    -0.017 C 
HETATM   35  C1  UNL     1      -5.320  64.759  41.834  1.00  0.00     0.008 C 
ENDBRANCH  33  34
ENDBRANCH  31  33
ENDBRANCH   1  31
TORSDOF 17
ENDMDL
MODEL 5
REMARK VINA RESULT: -6.045829882      3.948      6.946
REMARK  17 active torsions:
REMARK  status: ('A' for Active; 'I' for Inactive)
REMARK    1  A    between atoms: C2_2  and  C3_3 
REMARK    2  A    between atoms: C3_3  and  N1_4 
REMARK    3  A    between atoms: N1_4  and  C4_6 
REMARK    4  A    between atoms: C5_9  and  C6_10 
REMARK    5  A    between atoms: C6_10  and  C7_11 
REMARK    6  A    between atoms: C7_11  and  C8_12 
REMARK    7  A    between atoms: C8_12  and  N3_13 
REMARK    8  A    between atoms: C10_20  and  N7_21 
REMARK    9  A    between atoms: N7_21  and  C11_23 
REMARK   10  A    between atoms: C11_23  and  C12_24 
REMARK   11  A    between atoms: C12_24  and  C13_25 
REMARK   12  A    between atoms: C13_25  and  C14_26 
REMARK   13  A    between atoms: C14_26  and  C15_27 
REMARK   14  A    between atoms: C15_27  and  C16_28 
REMARK   15  A    between atoms: C16_28  and  C17_29 
REMARK   16  A    between atoms: C17_29  and  N8_30 
REMARK   17  A    between atoms: N8_30  and  C18_32 
ROOT
HETATM    1  C4  UNL     1      -5.885  60.875  38.667  1.00  0.00     0.694 A 
HETATM    2  N2  UNL     1      -6.438  61.532  37.642  1.00  0.00    -0.180 N 
ATOM      3  H2  UNL     1      -7.019  62.351  37.819  1.00  0.00     0.185 HD
HETATM    4  C5  UNL     1      -6.233  61.116  36.377  1.00  0.00     0.113 A 
HETATM    5  N6  UNL     1      -5.479  60.047  36.143  1.00  0.00    -0.180 N 
ATOM      6  H6  UNL     1      -5.326  59.733  35.185  1.00  0.00     0.185 HD
HETATM    7  C10 UNL     1      -4.914  59.375  37.172  1.00  0.00     0.694 A 
HETATM    8  N9  UNL     1      -5.114  59.783  38.440  1.00  0.00    -0.022 N 
ATOM      9  H9  UNL     1      -4.691  59.278  39.219  1.00  0.00     0.203 HD
ENDROOT
BRANCH   7  10
HETATM   10  N7  UNL     1      -4.181  58.341  36.997  1.00  0.00    -0.226 N 
ATOM     11  H7  UNL     1      -3.981  57.756  37.808  1.00  0.00     0.177 HD
BRANCH  10  12
HETATM   12  C11 UNL     1      -3.617  57.949  35.720  1.00  0.00     0.138 C 
BRANCH  12  13
HETATM   13  C12 UNL     1      -3.501  56.442  35.608  1.00  0.00     0.020 C 
BRANCH  13  14
HETATM   14  C13 UNL     1      -2.106  55.943  35.758  1.00  0.00     0.002 C 
BRANCH  14  15
HETATM   15  C14 UNL     1      -1.959  54.469  35.479  1.00  0.00     0.000 C 
BRANCH  15  16
HETATM   16  C15 UNL     1      -1.506  53.701  36.686  1.00  0.00     0.002 C 
BRANCH  16  17
HETATM   17  C16 UNL     1      -1.148  54.563  37.858  1.00  0.00     0.020 C 
BRANCH  17  18
HETATM   18  C17 UNL     1      -1.976  54.160  39.076  1.00  0.00     0.122 C 
BRANCH  18  19
HETATM   19  N8  UNL     1      -2.917  55.189  39.420  1.00  0.00    -0.368 N 
ATOM     20  H8  UNL     1      -2.614  56.003  39.956  1.00  0.00     0.161 HD
BRANCH  19  21
HETATM   21  C18 UNL     1      -4.260  55.070  39.013  1.00  0.00     0.348 C 
HETATM   22  O1  UNL     1      -4.955  56.088  38.851  1.00  0.00    -0.284 OA
ENDBRANCH  19  21
ENDBRANCH  18  19
ENDBRANCH  17  18
ENDBRANCH  16  17
ENDBRANCH  15  16
ENDBRANCH  14  15
ENDBRANCH  13  14
ENDBRANCH  12  13
ENDBRANCH  10  12
ENDBRANCH   7  10
BRANCH   4  23
HETATM   23  C6  UNL     1      -6.851  61.853  35.251  1.00  0.00     0.079 C 
BRANCH  23  24
HETATM   24  C7  UNL     1      -8.270  61.394  35.030  1.00  0.00     0.027 C 
BRANCH  24  25
HETATM   25  C8  UNL     1      -8.347  60.775  33.632  1.00  0.00     0.122 C 
BRANCH  25  26
HETATM   26  N3  UNL     1      -9.255  61.595  32.865  1.00  0.00    -0.367 N 
HETATM   27  C9  UNL     1      -8.858  62.339  31.873  1.00  0.00     0.196 C 
HETATM   28  N4  UNL     1      -9.800  63.121  31.162  1.00  0.00    -0.067 NA
HETATM   29  N5  UNL     1      -7.476  62.318  31.566  1.00  0.00    -0.067 NA
ATOM     30  H3  UNL     1     -10.245  61.592  33.109  1.00  0.00     0.161 HD
ENDBRANCH  25  26
ENDBRANCH  24  25
ENDBRANCH  23  24
ENDBRANCH   4  23
BRANCH   1  31
HETATM   31  N1  UNL     1      -6.078  61.269  39.889  1.00  0.00    -0.222 N 
ATOM     32  H1  UNL     1      -5.351  61.097  40.583  1.00  0.00     0.178 HD
BRANCH  31  33
HETATM   33  C3  UNL     1      -7.285  61.940  40.295  1.00  0.00     0.164 C 
BRANCH  33  34
HETATM   34  C2  UNL     1      -6.924  63.312  40.738  1.00  0.00    -0.017 C 
HETATM   35  C1  UNL     1      -5.859  63.544  41.512  1.00  0.00     0.008 C 
ENDBRANCH  33  34
ENDBRANCH  31  33
ENDBRANCH   1  31
TORSDOF 17
ENDMDL
