MODEL 1
REMARK VINA RESULT: -6.890272756      0.000      0.000
REMARK  4 active torsions:
REMARK  status: ('A' for Active; 'I' for Inactive)
REMARK    1  A    between atoms: C9_12  and  N1_13 
REMARK    2  A    between atoms: C10_14  and  S1_15 
REMARK    3  A    between atoms: S1_15  and  C11_16 
REMARK    4  A    between atoms: C11_16  and  C12_17 
ROOT
HETATM    1  N1  UNL     1      31.782  65.690  93.501  1.00  0.00    -0.259 N 
HETATM    2  C10 UNL     1      31.273  66.796  92.854  1.00  0.00     0.086 A 
HETATM    3  C13 UNL     1      32.023  67.936  92.649  1.00  0.00     0.112 A 
HETATM    4  C14 UNL     1      33.323  68.017  93.089  1.00  0.00     0.251 A 
HETATM    5  O3  UNL     1      34.031  69.019  92.926  1.00  0.00    -0.268 OA
HETATM    6  N2  UNL     1      33.808  66.939  93.715  1.00  0.00    -0.275 N 
ATOM      7  H2  UNL     1      34.768  66.951  94.059  1.00  0.00     0.173 HD
HETATM    8  C15 UNL     1      33.045  65.829  93.902  1.00  0.00     0.334 A 
HETATM    9  O4  UNL     1      33.578  64.895  94.488  1.00  0.00    -0.246 OA
ENDROOT
BRANCH   1  10
HETATM   10  C9  UNL     1      30.935  64.575  93.658  1.00  0.00     0.078 C 
HETATM   11  C2  UNL     1      30.569  64.038  94.984  1.00  0.00     0.142 C 
HETATM   12  C1  UNL     1      29.700  65.049  95.738  1.00  0.00     0.058 C 
HETATM   13  F1  UNL     1      31.459  63.417  95.769  1.00  0.00    -0.237 F 
HETATM   14  C3  UNL     1      29.580  62.884  94.653  1.00  0.00     0.050 C 
HETATM   15  C4  UNL     1      30.472  61.744  94.212  1.00  0.00     0.016 C 
HETATM   16  C5  UNL     1      31.369  62.124  93.065  1.00  0.00    -0.007 C 
HETATM   17  C6  UNL     1      32.805  61.755  93.292  1.00  0.00     0.018 C 
HETATM   18  C7  UNL     1      30.941  61.195  91.905  1.00  0.00     0.018 C 
HETATM   19  C8  UNL     1      31.198  63.520  92.589  1.00  0.00     0.162 C 
HETATM   20 CL1  UNL     1      32.596  63.922  91.571  1.00  0.00    -0.094 Cl
HETATM   21 CL2  UNL     1      29.806  63.433  91.427  1.00  0.00    -0.094 Cl
ENDBRANCH   1  10
BRANCH   2  22
HETATM   22  S1  UNL     1      29.579  66.834  92.304  1.00  0.00    -0.101 SA
BRANCH  22  23
HETATM   23  C11 UNL     1      28.939  68.478  92.032  1.00  0.00     0.194 C 
BRANCH  23  24
HETATM   24  C12 UNL     1      28.213  68.934  93.263  1.00  0.00     0.182 C 
HETATM   25  O1  UNL     1      27.444  69.894  93.230  1.00  0.00    -0.647 OA
HETATM   26  O2  UNL     1      28.431  68.240  94.459  1.00  0.00    -0.647 OA
ENDBRANCH  23  24
ENDBRANCH  22  23
ENDBRANCH   2  22
TORSDOF 4
ENDMDL
MODEL 2
REMARK VINA RESULT: -6.419399615      9.302     11.730
REMARK  4 active torsions:
REMARK  status: ('A' for Active; 'I' for Inactive)
REMARK    1  A    between atoms: C9_12  and  N1_13 
REMARK    2  A    between atoms: C10_14  and  S1_15 
REMARK    3  A    between atoms: S1_15  and  C11_16 
REMARK    4  A    between atoms: C11_16  and  C12_17 
ROOT
HETATM    1  N1  UNL     1      28.657  55.198  90.849  1.00  0.00    -0.259 N 
HETATM    2  C10 UNL     1      28.243  54.292  91.802  1.00  0.00     0.086 A 
HETATM    3  C13 UNL     1      29.086  53.327  92.314  1.00  0.00     0.112 A 
HETATM    4  C14 UNL     1      30.389  53.228  91.886  1.00  0.00     0.251 A 
HETATM    5  O3  UNL     1      31.180  52.379  92.318  1.00  0.00    -0.268 OA
HETATM    6  N2  UNL     1      30.782  54.111  90.962  1.00  0.00    -0.275 N 
ATOM      7  H2  UNL     1      31.740  54.078  90.615  1.00  0.00     0.173 HD
HETATM    8  C15 UNL     1      29.929  55.051  90.477  1.00  0.00     0.334 A 
HETATM    9  O4  UNL     1      30.381  55.813  89.632  1.00  0.00    -0.246 OA
ENDROOT
BRANCH   1  10
HETATM   10  C9  UNL     1      27.719  56.146  90.393  1.00  0.00     0.078 C 
HETATM   11  C2  UNL     1      27.353  56.277  88.968  1.00  0.00     0.142 C 
HETATM   12  C1  UNL     1      26.607  55.024  88.501  1.00  0.00     0.058 C 
HETATM   13  F1  UNL     1      28.211  56.752  88.056  1.00  0.00    -0.237 F 
HETATM   14  C3  UNL     1      26.253  57.376  88.971  1.00  0.00     0.050 C 
HETATM   15  C4  UNL     1      27.022  58.673  89.102  1.00  0.00     0.016 C 
HETATM   16  C5  UNL     1      27.909  58.696  90.319  1.00  0.00    -0.007 C 
HETATM   17  C6  UNL     1      29.313  59.130  90.017  1.00  0.00     0.018 C 
HETATM   18  C7  UNL     1      27.357  59.852  91.186  1.00  0.00     0.018 C 
HETATM   19  C8  UNL     1      27.848  57.465  91.146  1.00  0.00     0.162 C 
HETATM   20 CL1  UNL     1      29.240  57.482  92.249  1.00  0.00    -0.094 Cl
HETATM   21 CL2  UNL     1      26.413  57.720  92.229  1.00  0.00    -0.094 Cl
ENDBRANCH   1  10
BRANCH   2  22
HETATM   22  S1  UNL     1      26.557  54.279  92.378  1.00  0.00    -0.101 SA
BRANCH  22  23
HETATM   23  C11 UNL     1      25.487  53.177  91.469  1.00  0.00     0.194 C 
BRANCH  23  24
HETATM   24  C12 UNL     1      24.249  53.919  91.060  1.00  0.00     0.182 C 
HETATM   25  O1  UNL     1      23.238  53.319  90.696  1.00  0.00    -0.647 OA
HETATM   26  O2  UNL     1      24.269  55.318  91.099  1.00  0.00    -0.647 OA
ENDBRANCH  23  24
ENDBRANCH  22  23
ENDBRANCH   2  22
TORSDOF 4
ENDMDL
MODEL 3
REMARK VINA RESULT: -6.203069225      8.598     10.628
REMARK  4 active torsions:
REMARK  status: ('A' for Active; 'I' for Inactive)
REMARK    1  A    between atoms: C9_12  and  N1_13 
REMARK    2  A    between atoms: C10_14  and  S1_15 
REMARK    3  A    between atoms: S1_15  and  C11_16 
REMARK    4  A    between atoms: C11_16  and  C12_17 
ROOT
HETATM    1  N1  UNL     1      27.509  56.829  90.903  1.00  0.00    -0.259 N 
HETATM    2  C10 UNL     1      26.836  57.484  89.894  1.00  0.00     0.086 A 
HETATM    3  C13 UNL     1      26.817  58.860  89.796  1.00  0.00     0.112 A 
HETATM    4  C14 UNL     1      27.475  59.643  90.715  1.00  0.00     0.251 A 
HETATM    5  O3  UNL     1      27.485  60.880  90.666  1.00  0.00    -0.268 OA
HETATM    6  N2  UNL     1      28.125  59.000  91.690  1.00  0.00    -0.275 N 
ATOM      7  H2  UNL     1      28.630  59.537  92.394  1.00  0.00     0.173 HD
HETATM    8  C15 UNL     1      28.127  57.642  91.760  1.00  0.00     0.334 A 
HETATM    9  O4  UNL     1      28.749  57.145  92.690  1.00  0.00    -0.246 OA
ENDROOT
BRANCH   1  10
HETATM   10  C9  UNL     1      27.468  55.420  90.912  1.00  0.00     0.078 C 
HETATM   11  C2  UNL     1      26.989  54.648  92.077  1.00  0.00     0.142 C 
HETATM   12  C1  UNL     1      25.491  54.887  92.284  1.00  0.00     0.058 C 
HETATM   13  F1  UNL     1      27.679  54.593  93.224  1.00  0.00    -0.237 F 
HETATM   14  C3  UNL     1      27.059  53.172  91.593  1.00  0.00     0.050 C 
HETATM   15  C4  UNL     1      28.525  52.813  91.702  1.00  0.00     0.016 C 
HETATM   16  C5  UNL     1      29.407  53.752  90.923  1.00  0.00    -0.007 C 
HETATM   17  C6  UNL     1      30.568  54.269  91.720  1.00  0.00     0.018 C 
HETATM   18  C7  UNL     1      30.080  52.861  89.851  1.00  0.00     0.018 C 
HETATM   19  C8  UNL     1      28.677  54.823  90.200  1.00  0.00     0.162 C 
HETATM   20 CL1  UNL     1      29.859  56.058  89.721  1.00  0.00    -0.094 Cl
HETATM   21 CL2  UNL     1      28.173  54.051  88.636  1.00  0.00    -0.094 Cl
ENDBRANCH   1  10
BRANCH   2  22
HETATM   22  S1  UNL     1      25.888  56.576  88.689  1.00  0.00    -0.101 SA
BRANCH  22  23
HETATM   23  C11 UNL     1      25.267  57.577  87.348  1.00  0.00     0.194 C 
BRANCH  23  24
HETATM   24  C12 UNL     1      26.302  57.645  86.264  1.00  0.00     0.182 C 
HETATM   25  O1  UNL     1      26.417  58.645  85.555  1.00  0.00    -0.647 OA
HETATM   26  O2  UNL     1      27.139  56.540  86.073  1.00  0.00    -0.647 OA
ENDBRANCH  23  24
ENDBRANCH  22  23
ENDBRANCH   2  22
TORSDOF 4
ENDMDL
MODEL 4
REMARK VINA RESULT: -6.144375286      8.063     10.561
REMARK  4 active torsions:
REMARK  status: ('A' for Active; 'I' for Inactive)
REMARK    1  A    between atoms: C9_12  and  N1_13 
REMARK    2  A    between atoms: C10_14  and  S1_15 
REMARK    3  A    between atoms: S1_15  and  C11_16 
REMARK    4  A    between atoms: C11_16  and  C12_17 
ROOT
HETATM    1  N1  UNL     1      27.236  56.536  91.090  1.00  0.00    -0.259 N 
HETATM    2  C10 UNL     1      26.336  56.108  90.138  1.00  0.00     0.086 A 
HETATM    3  C13 UNL     1      25.248  55.322  90.457  1.00  0.00     0.112 A 
HETATM    4  C14 UNL     1      25.017  54.927  91.753  1.00  0.00     0.251 A 
HETATM    5  O3  UNL     1      24.054  54.223  92.084  1.00  0.00    -0.268 OA
HETATM    6  N2  UNL     1      25.895  55.347  92.670  1.00  0.00    -0.275 N 
ATOM      7  H2  UNL     1      25.765  55.081  93.646  1.00  0.00     0.173 HD
HETATM    8  C15 UNL     1      26.958  56.122  92.326  1.00  0.00     0.334 A 
HETATM    9  O4  UNL     1      27.707  56.455  93.235  1.00  0.00    -0.246 OA
ENDROOT
BRANCH   1  10
HETATM   10  C9  UNL     1      28.313  57.338  90.661  1.00  0.00     0.078 C 
HETATM   11  C2  UNL     1      29.723  56.937  90.845  1.00  0.00     0.142 C 
HETATM   12  C1  UNL     1      30.036  55.712  89.980  1.00  0.00     0.058 C 
HETATM   13  F1  UNL     1      30.295  56.891  92.054  1.00  0.00    -0.237 F 
HETATM   14  C3  UNL     1      30.523  58.080  90.158  1.00  0.00     0.050 C 
HETATM   15  C4  UNL     1      30.500  59.208  91.167  1.00  0.00     0.016 C 
HETATM   16  C5  UNL     1      29.102  59.597  91.565  1.00  0.00    -0.007 C 
HETATM   17  C6  UNL     1      28.914  59.685  93.051  1.00  0.00     0.018 C 
HETATM   18  C7  UNL     1      28.954  61.065  91.100  1.00  0.00     0.018 C 
HETATM   19  C8  UNL     1      28.032  58.819  90.892  1.00  0.00     0.162 C 
HETATM   20 CL1  UNL     1      26.519  59.091  91.781  1.00  0.00    -0.094 Cl
HETATM   21 CL2  UNL     1      27.783  59.671  89.308  1.00  0.00    -0.094 Cl
ENDBRANCH   1  10
BRANCH   2  22
HETATM   22  S1  UNL     1      26.573  56.497  88.416  1.00  0.00    -0.101 SA
BRANCH  22  23
HETATM   23  C11 UNL     1      25.179  57.314  87.655  1.00  0.00     0.194 C 
BRANCH  23  24
HETATM   24  C12 UNL     1      25.681  58.338  86.680  1.00  0.00     0.182 C 
HETATM   25  O1  UNL     1      25.227  59.482  86.669  1.00  0.00    -0.647 OA
HETATM   26  O2  UNL     1      26.680  57.961  85.775  1.00  0.00    -0.647 OA
ENDBRANCH  23  24
ENDBRANCH  22  23
ENDBRANCH   2  22
TORSDOF 4
ENDMDL
MODEL 5
REMARK VINA RESULT: -6.109430408      8.727     10.802
REMARK  4 active torsions:
REMARK  status: ('A' for Active; 'I' for Inactive)
REMARK    1  A    between atoms: C9_12  and  N1_13 
REMARK    2  A    between atoms: C10_14  and  S1_15 
REMARK    3  A    between atoms: S1_15  and  C11_16 
REMARK    4  A    between atoms: C11_16  and  C12_17 
ROOT
HETATM    1  N1  UNL     1      27.460  56.416  90.724  1.00  0.00    -0.259 N 
HETATM    2  C10 UNL     1      27.080  57.454  89.899  1.00  0.00     0.086 A 
HETATM    3  C13 UNL     1      26.824  58.721  90.383  1.00  0.00     0.112 A 
HETATM    4  C14 UNL     1      26.937  59.001  91.724  1.00  0.00     0.251 A 
HETATM    5  O3  UNL     1      26.718  60.122  92.202  1.00  0.00    -0.268 OA
HETATM    6  N2  UNL     1      27.306  57.989  92.516  1.00  0.00    -0.275 N 
ATOM      7  H2  UNL     1      27.405  58.148  93.518  1.00  0.00     0.173 HD
HETATM    8  C15 UNL     1      27.552  56.751  92.010  1.00  0.00     0.334 A 
HETATM    9  O4  UNL     1      27.882  55.889  92.815  1.00  0.00    -0.246 OA
ENDROOT
BRANCH   1  10
HETATM   10  C9  UNL     1      27.699  55.161  90.130  1.00  0.00     0.078 C 
HETATM   11  C2  UNL     1      26.976  53.940  90.538  1.00  0.00     0.142 C 
HETATM   12  C1  UNL     1      25.497  54.055  90.158  1.00  0.00     0.058 C 
HETATM   13  F1  UNL     1      27.171  53.364  91.731  1.00  0.00    -0.237 F 
HETATM   14  C3  UNL     1      27.517  52.851  89.567  1.00  0.00     0.050 C 
HETATM   15  C4  UNL     1      28.870  52.484  90.138  1.00  0.00     0.016 C 
HETATM   16  C5  UNL     1      29.777  53.676  90.281  1.00  0.00    -0.007 C 
HETATM   17  C6  UNL     1      30.418  53.771  91.635  1.00  0.00     0.018 C 
HETATM   18  C7  UNL     1      30.971  53.379  89.342  1.00  0.00     0.018 C 
HETATM   19  C8  UNL     1      29.181  54.959  89.831  1.00  0.00     0.162 C 
HETATM   20 CL1  UNL     1      30.186  56.278  90.468  1.00  0.00    -0.094 Cl
HETATM   21 CL2  UNL     1      29.477  54.991  88.041  1.00  0.00    -0.094 Cl
ENDBRANCH   1  10
BRANCH   2  22
HETATM   22  S1  UNL     1      26.832  57.191  88.155  1.00  0.00    -0.101 SA
BRANCH  22  23
HETATM   23  C11 UNL     1      25.806  58.425  87.372  1.00  0.00     0.194 C 
BRANCH  23  24
HETATM   24  C12 UNL     1      26.587  59.095  86.280  1.00  0.00     0.182 C 
HETATM   25  O1  UNL     1      26.629  58.621  85.145  1.00  0.00    -0.647 OA
HETATM   26  O2  UNL     1      27.274  60.276  86.583  1.00  0.00    -0.647 OA
ENDBRANCH  23  24
ENDBRANCH  22  23
ENDBRANCH   2  22
TORSDOF 4
ENDMDL
