MODEL 1
REMARK VINA RESULT: -8.462324255      0.000      0.000
REMARK  4 active torsions:
REMARK  status: ('A' for Active; 'I' for Inactive)
REMARK    1  A    between atoms: N2_4  and  C3_5 
REMARK    2  A    between atoms: C5_7  and  C6_8 
REMARK    3  A    between atoms: C6_8  and  C7_9 
REMARK    4  A    between atoms: C11_21  and  C12_22 
ROOT
HETATM    1  C3  UNL     1      29.825  62.291  90.492  1.00  0.00     0.071 A 
HETATM    2  C4  UNL     1      29.409  61.035  90.907  1.00  0.00     0.043 A 
HETATM    3  C5  UNL     1      28.803  60.132  90.071  1.00  0.00    -0.009 A 
HETATM    4  C11 UNL     1      28.624  60.555  88.760  1.00  0.00    -0.036 A 
HETATM    5  C15 UNL     1      29.036  61.814  88.321  1.00  0.00     0.053 A 
HETATM    6  C16 UNL     1      29.646  62.691  89.207  1.00  0.00     0.143 A 
HETATM    7  F5  UNL     1      30.037  63.918  88.742  1.00  0.00    -0.204 F 
ENDROOT
BRANCH   3   8
HETATM    8  C6  UNL     1      28.413  58.844  90.575  1.00  0.00     0.163 C 
HETATM    9  C8  UNL     1      27.028  58.501  90.897  1.00  0.00     0.214 C 
HETATM   10  O1  UNL     1      26.430  57.450  90.282  1.00  0.00    -0.381 OA
HETATM   11  C9  UNL     1      27.081  56.378  89.892  1.00  0.00     0.243 C 
HETATM   12  C10 UNL     1      28.525  56.557  89.625  1.00  0.00     0.096 C 
HETATM   13  N3  UNL     1      29.307  55.536  89.392  1.00  0.00    -0.387 N 
HETATM   14  N4  UNL     1      28.990  57.873  89.629  1.00  0.00    -0.355 N 
ATOM     15  H32 UNL     1      28.967  54.575  89.389  1.00  0.00     0.157 HD
ATOM     16  H31 UNL     1      30.302  55.660  89.208  1.00  0.00     0.157 HD
ATOM     17  H4  UNL     1      29.725  58.160  88.982  1.00  0.00     0.162 HD
BRANCH   8  18
HETATM   18  C7  UNL     1      29.224  58.522  91.852  1.00  0.00     0.279 C 
HETATM   19  F1  UNL     1      28.531  57.877  92.812  1.00  0.00    -0.175 F 
HETATM   20  F2  UNL     1      30.511  58.173  91.619  1.00  0.00    -0.175 F 
ENDBRANCH   8  18
ENDBRANCH   3   8
BRANCH   4  21
HETATM   21  C12 UNL     1      27.970  59.680  87.805  1.00  0.00     0.097 A 
HETATM   22  C13 UNL     1      27.289  60.317  86.579  1.00  0.00     0.095 A 
HETATM   23  C14 UNL     1      26.438  59.741  87.634  1.00  0.00     0.252 A 
HETATM   24  F3  UNL     1      25.761  58.593  87.323  1.00  0.00    -0.206 F 
HETATM   25  F4  UNL     1      25.798  60.563  88.544  1.00  0.00    -0.206 F 
ENDBRANCH   4  21
BRANCH   1  26
HETATM   26  N2  UNL     1      30.454  63.222  91.381  1.00  0.00    -0.350 N 
HETATM   27  C2  UNL     1      30.302  64.645  91.291  1.00  0.00     0.398 C 
HETATM   28  N1  UNL     1      30.391  65.069  92.655  1.00  0.00     0.112 N 
HETATM   29  C1  UNL     1      30.747  66.439  92.822  1.00  0.00     0.313 C 
HETATM   30  C18 UNL     1      31.125  64.126  93.420  1.00  0.00     0.170 C 
HETATM   31  C17 UNL     1      31.316  62.934  92.492  1.00  0.00     0.166 C 
HETATM   32  C19 UNL     1      32.460  64.589  93.903  1.00  0.00     0.050 C 
HETATM   33  C20 UNL     1      30.296  63.738  94.630  1.00  0.00     0.050 C 
ENDBRANCH   1  26
TORSDOF 4
ENDMDL
MODEL 2
REMARK VINA RESULT: -8.415946062      2.860      7.509
REMARK  4 active torsions:
REMARK  status: ('A' for Active; 'I' for Inactive)
REMARK    1  A    between atoms: N2_4  and  C3_5 
REMARK    2  A    between atoms: C5_7  and  C6_8 
REMARK    3  A    between atoms: C6_8  and  C7_9 
REMARK    4  A    between atoms: C11_21  and  C12_22 
ROOT
HETATM    1  C3  UNL     1      28.912  60.671  90.436  1.00  0.00     0.071 A 
HETATM    2  C4  UNL     1      29.371  61.908  90.863  1.00  0.00     0.043 A 
HETATM    3  C5  UNL     1      30.134  62.075  91.991  1.00  0.00    -0.009 A 
HETATM    4  C11 UNL     1      30.425  60.913  92.696  1.00  0.00    -0.036 A 
HETATM    5  C15 UNL     1      29.974  59.659  92.283  1.00  0.00     0.053 A 
HETATM    6  C16 UNL     1      29.205  59.544  91.132  1.00  0.00     0.143 A 
HETATM    7  F5  UNL     1      28.779  58.298  90.758  1.00  0.00    -0.204 F 
ENDROOT
BRANCH   3   8
HETATM    8  C6  UNL     1      30.584  63.389  92.360  1.00  0.00     0.163 C 
HETATM    9  C8  UNL     1      30.094  64.094  93.544  1.00  0.00     0.214 C 
HETATM   10  O1  UNL     1      30.967  64.499  94.501  1.00  0.00    -0.381 OA
HETATM   11  C9  UNL     1      32.204  64.857  94.242  1.00  0.00     0.243 C 
HETATM   12  C10 UNL     1      32.798  64.293  93.010  1.00  0.00     0.096 C 
HETATM   13  N3  UNL     1      33.956  64.702  92.563  1.00  0.00    -0.387 N 
HETATM   14  N4  UNL     1      32.054  63.302  92.369  1.00  0.00    -0.355 N 
ATOM     15  H32 UNL     1      34.500  65.427  93.032  1.00  0.00     0.157 HD
ATOM     16  H31 UNL     1      34.365  64.314  91.714  1.00  0.00     0.157 HD
ATOM     17  H4  UNL     1      32.525  62.522  91.910  1.00  0.00     0.162 HD
BRANCH   8  18
HETATM   18  C7  UNL     1      30.358  64.362  91.179  1.00  0.00     0.279 C 
HETATM   19  F1  UNL     1      30.282  65.663  91.528  1.00  0.00    -0.175 F 
HETATM   20  F2  UNL     1      31.012  64.020  90.045  1.00  0.00    -0.175 F 
ENDBRANCH   8  18
ENDBRANCH   3   8
BRANCH   4  21
HETATM   21  C12 UNL     1      31.205  60.989  93.916  1.00  0.00     0.097 A 
HETATM   22  C13 UNL     1      31.088  59.836  94.931  1.00  0.00     0.095 A 
HETATM   23  C14 UNL     1      30.491  61.138  95.276  1.00  0.00     0.252 A 
HETATM   24  F3  UNL     1      31.102  61.853  96.270  1.00  0.00    -0.206 F 
HETATM   25  F4  UNL     1      29.125  61.329  95.180  1.00  0.00    -0.206 F 
ENDBRANCH   4  21
BRANCH   1  26
HETATM   26  N2  UNL     1      28.114  60.517  89.257  1.00  0.00    -0.350 N 
HETATM   27  C2  UNL     1      28.513  60.963  87.953  1.00  0.00     0.398 C 
HETATM   28  N1  UNL     1      27.904  60.007  87.080  1.00  0.00     0.112 N 
HETATM   29  C1  UNL     1      27.733  60.460  85.740  1.00  0.00     0.313 C 
HETATM   30  C18 UNL     1      26.769  59.423  87.701  1.00  0.00     0.170 C 
HETATM   31  C17 UNL     1      26.818  59.910  89.143  1.00  0.00     0.166 C 
HETATM   32  C19 UNL     1      25.450  59.788  87.106  1.00  0.00     0.050 C 
HETATM   33  C20 UNL     1      26.911  57.913  87.639  1.00  0.00     0.050 C 
ENDBRANCH   1  26
TORSDOF 4
ENDMDL
MODEL 3
REMARK VINA RESULT: -8.326598373      0.772      1.257
REMARK  4 active torsions:
REMARK  status: ('A' for Active; 'I' for Inactive)
REMARK    1  A    between atoms: N2_4  and  C3_5 
REMARK    2  A    between atoms: C5_7  and  C6_8 
REMARK    3  A    between atoms: C6_8  and  C7_9 
REMARK    4  A    between atoms: C11_21  and  C12_22 
ROOT
HETATM    1  C3  UNL     1      29.715  62.157  90.720  1.00  0.00     0.071 A 
HETATM    2  C4  UNL     1      29.366  60.855  91.045  1.00  0.00     0.043 A 
HETATM    3  C5  UNL     1      28.820  59.978  90.141  1.00  0.00    -0.009 A 
HETATM    4  C11 UNL     1      28.630  60.479  88.860  1.00  0.00    -0.036 A 
HETATM    5  C15 UNL     1      28.974  61.785  88.512  1.00  0.00     0.053 A 
HETATM    6  C16 UNL     1      29.526  62.633  89.463  1.00  0.00     0.143 A 
HETATM    7  F5  UNL     1      29.851  63.909  89.087  1.00  0.00    -0.204 F 
ENDROOT
BRANCH   3   8
HETATM    8  C6  UNL     1      28.499  58.639  90.552  1.00  0.00     0.163 C 
HETATM    9  C8  UNL     1      27.129  58.128  90.598  1.00  0.00     0.214 C 
HETATM   10  O1  UNL     1      26.789  57.033  89.872  1.00  0.00    -0.381 OA
HETATM   11  C9  UNL     1      27.627  56.056  89.609  1.00  0.00     0.243 C 
HETATM   12  C10 UNL     1      29.063  56.410  89.626  1.00  0.00     0.096 C 
HETATM   13  N3  UNL     1      29.992  55.495  89.541  1.00  0.00    -0.387 N 
HETATM   14  N4  UNL     1      29.358  57.770  89.729  1.00  0.00    -0.355 N 
ATOM     15  H32 UNL     1      29.776  54.500  89.466  1.00  0.00     0.157 HD
ATOM     16  H31 UNL     1      30.982  55.739  89.554  1.00  0.00     0.157 HD
ATOM     17  H4  UNL     1      30.163  58.160  89.238  1.00  0.00     0.162 HD
BRANCH   8  18
HETATM   18  C7  UNL     1      29.084  58.376  91.959  1.00  0.00     0.279 C 
HETATM   19  F1  UNL     1      28.237  57.772  92.818  1.00  0.00    -0.175 F 
HETATM   20  F2  UNL     1      30.390  58.021  91.960  1.00  0.00    -0.175 F 
ENDBRANCH   8  18
ENDBRANCH   3   8
BRANCH   4  21
HETATM   21  C12 UNL     1      28.035  59.636  87.839  1.00  0.00     0.097 A 
HETATM   22  C13 UNL     1      27.408  60.314  86.607  1.00  0.00     0.095 A 
HETATM   23  C14 UNL     1      26.513  59.686  87.595  1.00  0.00     0.252 A 
HETATM   24  F3  UNL     1      25.868  58.544  87.205  1.00  0.00    -0.206 F 
HETATM   25  F4  UNL     1      25.818  60.463  88.503  1.00  0.00    -0.206 F 
ENDBRANCH   4  21
BRANCH   1  26
HETATM   26  N2  UNL     1      30.282  63.059  91.678  1.00  0.00    -0.350 N 
HETATM   27  C2  UNL     1      30.200  62.876  93.098  1.00  0.00     0.398 C 
HETATM   28  N1  UNL     1      31.422  63.448  93.572  1.00  0.00     0.112 N 
HETATM   29  C1  UNL     1      31.398  63.833  94.944  1.00  0.00     0.313 C 
HETATM   30  C18 UNL     1      31.906  64.416  92.652  1.00  0.00     0.170 C 
HETATM   31  C17 UNL     1      31.016  64.265  91.425  1.00  0.00     0.166 C 
HETATM   32  C19 UNL     1      31.857  65.832  93.122  1.00  0.00     0.050 C 
HETATM   33  C20 UNL     1      33.347  64.081  92.316  1.00  0.00     0.050 C 
ENDBRANCH   1  26
TORSDOF 4
ENDMDL
MODEL 4
REMARK VINA RESULT: -8.064934885      3.232      7.099
REMARK  4 active torsions:
REMARK  status: ('A' for Active; 'I' for Inactive)
REMARK    1  A    between atoms: N2_4  and  C3_5 
REMARK    2  A    between atoms: C5_7  and  C6_8 
REMARK    3  A    between atoms: C6_8  and  C7_9 
REMARK    4  A    between atoms: C11_21  and  C12_22 
ROOT
HETATM    1  C3  UNL     1      29.693  62.451  90.576  1.00  0.00     0.071 A 
HETATM    2  C4  UNL     1      29.924  62.209  91.921  1.00  0.00     0.043 A 
HETATM    3  C5  UNL     1      30.379  63.170  92.788  1.00  0.00    -0.009 A 
HETATM    4  C11 UNL     1      30.600  64.423  92.230  1.00  0.00    -0.036 A 
HETATM    5  C15 UNL     1      30.373  64.688  90.880  1.00  0.00     0.053 A 
HETATM    6  C16 UNL     1      29.911  63.680  90.044  1.00  0.00     0.143 A 
HETATM    7  F5  UNL     1      29.700  63.976  88.724  1.00  0.00    -0.204 F 
ENDROOT
BRANCH   3   8
HETATM    8  C6  UNL     1      30.580  62.844  94.173  1.00  0.00     0.163 C 
HETATM    9  C8  UNL     1      30.111  63.693  95.267  1.00  0.00     0.214 C 
HETATM   10  O1  UNL     1      29.257  63.193  96.195  1.00  0.00    -0.381 OA
HETATM   11  C9  UNL     1      29.260  61.934  96.570  1.00  0.00     0.243 C 
HETATM   12  C10 UNL     1      29.804  60.966  95.593  1.00  0.00     0.096 C 
HETATM   13  N3  UNL     1      30.009  59.716  95.913  1.00  0.00    -0.387 N 
HETATM   14  N4  UNL     1      30.074  61.468  94.319  1.00  0.00    -0.355 N 
ATOM     15  H32 UNL     1      29.813  59.349  96.845  1.00  0.00     0.157 HD
ATOM     16  H31 UNL     1      30.385  59.050  95.239  1.00  0.00     0.157 HD
ATOM     17  H4  UNL     1      29.921  60.887  93.495  1.00  0.00     0.162 HD
BRANCH   8  18
HETATM   18  C7  UNL     1      32.088  62.627  94.437  1.00  0.00     0.279 C 
HETATM   19  F1  UNL     1      32.798  62.232  93.360  1.00  0.00    -0.175 F 
HETATM   20  F2  UNL     1      32.635  63.517  95.297  1.00  0.00    -0.175 F 
ENDBRANCH   8  18
ENDBRANCH   3   8
BRANCH   4  21
HETATM   21  C12 UNL     1      31.105  65.501  93.061  1.00  0.00     0.097 A 
HETATM   22  C13 UNL     1      31.676  66.752  92.367  1.00  0.00     0.095 A 
HETATM   23  C14 UNL     1      32.610  65.838  93.048  1.00  0.00     0.252 A 
HETATM   24  F3  UNL     1      33.194  66.298  94.197  1.00  0.00    -0.206 F 
HETATM   25  F4  UNL     1      33.383  64.954  92.318  1.00  0.00    -0.206 F 
ENDBRANCH   4  21
BRANCH   1  26
HETATM   26  N2  UNL     1      29.221  61.433  89.685  1.00  0.00    -0.350 N 
HETATM   27  C2  UNL     1      29.485  60.033  89.854  1.00  0.00     0.398 C 
HETATM   28  N1  UNL     1      28.313  59.412  89.318  1.00  0.00     0.112 N 
HETATM   29  C1  UNL     1      28.495  58.055  88.922  1.00  0.00     0.313 C 
HETATM   30  C18 UNL     1      27.687  60.268  88.373  1.00  0.00     0.170 C 
HETATM   31  C17 UNL     1      28.421  61.597  88.504  1.00  0.00     0.166 C 
HETATM   32  C19 UNL     1      27.748  59.814  86.953  1.00  0.00     0.050 C 
HETATM   33  C20 UNL     1      26.226  60.421  88.756  1.00  0.00     0.050 C 
ENDBRANCH   1  26
TORSDOF 4
ENDMDL
MODEL 5
REMARK VINA RESULT: -8.023872434      2.926      7.311
REMARK  4 active torsions:
REMARK  status: ('A' for Active; 'I' for Inactive)
REMARK    1  A    between atoms: N2_4  and  C3_5 
REMARK    2  A    between atoms: C5_7  and  C6_8 
REMARK    3  A    between atoms: C6_8  and  C7_9 
REMARK    4  A    between atoms: C11_21  and  C12_22 
ROOT
HETATM    1  C3  UNL     1      29.315  59.347  91.237  1.00  0.00     0.071 A 
HETATM    2  C4  UNL     1      29.754  59.789  92.475  1.00  0.00     0.043 A 
HETATM    3  C5  UNL     1      30.027  61.106  92.747  1.00  0.00    -0.009 A 
HETATM    4  C11 UNL     1      29.838  61.987  91.690  1.00  0.00    -0.036 A 
HETATM    5  C15 UNL     1      29.397  61.563  90.436  1.00  0.00     0.053 A 
HETATM    6  C16 UNL     1      29.132  60.218  90.213  1.00  0.00     0.143 A 
HETATM    7  F5  UNL     1      28.701  59.838  88.971  1.00  0.00    -0.204 F 
ENDROOT
BRANCH   3   8
HETATM    8  C6  UNL     1      30.465  61.487  94.062  1.00  0.00     0.163 C 
HETATM    9  C8  UNL     1      31.876  61.580  94.434  1.00  0.00     0.214 C 
HETATM   10  O1  UNL     1      32.379  62.752  94.898  1.00  0.00    -0.381 OA
HETATM   11  C9  UNL     1      31.672  63.614  95.592  1.00  0.00     0.243 C 
HETATM   12  C10 UNL     1      30.207  63.566  95.387  1.00  0.00     0.096 C 
HETATM   13  N3  UNL     1      29.392  64.257  96.138  1.00  0.00    -0.387 N 
HETATM   14  N4  UNL     1      29.761  62.749  94.348  1.00  0.00    -0.355 N 
ATOM     15  H32 UNL     1      29.718  64.854  96.898  1.00  0.00     0.157 HD
ATOM     16  H31 UNL     1      28.382  64.223  95.997  1.00  0.00     0.157 HD
ATOM     17  H4  UNL     1      28.952  63.024  93.790  1.00  0.00     0.162 HD
BRANCH   8  18
HETATM   18  C7  UNL     1      29.823  60.551  95.111  1.00  0.00     0.279 C 
HETATM   19  F1  UNL     1      30.452  59.369  95.271  1.00  0.00    -0.175 F 
HETATM   20  F2  UNL     1      29.331  61.190  96.198  1.00  0.00    -0.175 F 
ENDBRANCH   8  18
ENDBRANCH   3   8
BRANCH   4  21
HETATM   21  C12 UNL     1      30.124  63.398  91.870  1.00  0.00     0.097 A 
HETATM   22  C13 UNL     1      30.613  64.206  90.653  1.00  0.00     0.095 A 
HETATM   23  C14 UNL     1      31.573  63.911  91.730  1.00  0.00     0.252 A 
HETATM   24  F3  UNL     1      31.978  64.967  92.501  1.00  0.00    -0.206 F 
HETATM   25  F4  UNL     1      32.516  62.911  91.575  1.00  0.00    -0.206 F 
ENDBRANCH   4  21
BRANCH   1  26
HETATM   26  N2  UNL     1      29.037  57.966  90.973  1.00  0.00    -0.350 N 
HETATM   27  C2  UNL     1      30.047  56.973  90.748  1.00  0.00     0.398 C 
HETATM   28  N1  UNL     1      29.461  55.783  91.284  1.00  0.00     0.112 N 
HETATM   29  C1  UNL     1      30.021  54.574  90.782  1.00  0.00     0.313 C 
HETATM   30  C18 UNL     1      28.044  55.880  91.269  1.00  0.00     0.170 C 
HETATM   31  C17 UNL     1      27.755  57.326  90.888  1.00  0.00     0.166 C 
HETATM   32  C19 UNL     1      27.348  54.973  90.309  1.00  0.00     0.050 C 
HETATM   33  C20 UNL     1      27.526  55.577  92.663  1.00  0.00     0.050 C 
ENDBRANCH   1  26
TORSDOF 4
ENDMDL
