MODEL 1
REMARK VINA RESULT: -9.028238729      0.000      0.000
REMARK  10 active torsions:
REMARK  status: ('A' for Active; 'I' for Inactive)
REMARK    1  A    between atoms: C2_2  and  C3_3 
REMARK    2  A    between atoms: C3_3  and  C4_4 
REMARK    3  A    between atoms: C4_4  and  C5_5 
REMARK    4  A    between atoms: C5_5  and  C6_6 
REMARK    5  A    between atoms: C8_8  and  C9_9 
REMARK    6  A    between atoms: C13_13  and  O1_14 
REMARK    7  A    between atoms: O1_14  and  C14_15 
REMARK    8  A    between atoms: C14_15  and  C15_16 
REMARK    9  A    between atoms: C15_16  and  C16_17 
REMARK   10  A    between atoms: C16_17  and  O2_19 
ROOT
HETATM    1  C6  UNL     1      19.449  40.727  18.811  1.00  0.00    -0.055 A 
HETATM    2  C7  UNL     1      20.457  41.506  18.288  1.00  0.00     0.015 A 
HETATM    3  C8  UNL     1      21.611  40.945  17.783  1.00  0.00    -0.049 A 
HETATM    4  C11 UNL     1      21.803  39.590  17.778  1.00  0.00    -0.022 A 
HETATM    5  C12 UNL     1      23.064  38.973  17.227  1.00  0.00     0.052 C 
HETATM    6  C13 UNL     1      20.804  38.792  18.296  1.00  0.00     0.075 A 
HETATM    7  C18 UNL     1      19.642  39.364  18.805  1.00  0.00     0.044 A 
ENDROOT
BRANCH   6   8
HETATM    8  O1  UNL     1      21.007  37.412  18.287  1.00  0.00    -0.350 OA
BRANCH   8   9
HETATM    9  C14 UNL     1      20.487  36.676  19.351  1.00  0.00     0.178 C 
BRANCH   9  10
HETATM   10  C15 UNL     1      19.918  35.353  18.955  1.00  0.00     0.058 C 
BRANCH  10  11
HETATM   11  C16 UNL     1      18.680  35.464  18.113  1.00  0.00     0.116 C 
HETATM   12  C17 UNL     1      17.552  34.659  18.738  1.00  0.00     0.039 C 
BRANCH  11  13
HETATM   13  O2  UNL     1      18.859  34.968  16.832  1.00  0.00    -0.396 OA
ATOM     14  H2  UNL     1      18.039  34.844  16.369  1.00  0.00     0.210 HD
ENDBRANCH  11  13
ENDBRANCH  10  11
ENDBRANCH   9  10
ENDBRANCH   8   9
ENDBRANCH   6   8
BRANCH   3  15
HETATM   15  C9  UNL     1      22.671  41.813  17.230  1.00  0.00     0.035 C 
HETATM   16  C10 UNL     1      22.475  43.237  17.672  1.00  0.00     0.010 C 
ENDBRANCH   3  15
BRANCH   1  17
HETATM   17  C5  UNL     1      18.244  41.366  19.334  1.00  0.00     0.038 C 
BRANCH  17  18
HETATM   18  C4  UNL     1      16.972  40.992  18.628  1.00  0.00     0.005 C 
BRANCH  18  19
HETATM   19  C3  UNL     1      16.055  40.135  19.435  1.00  0.00    -0.000 C 
BRANCH  19  20
HETATM   20  C2  UNL     1      16.481  40.189  20.885  1.00  0.00    -0.005 C 
HETATM   21  C1  UNL     1      15.525  40.961  21.748  1.00  0.00     0.005 C 
ENDBRANCH  19  20
ENDBRANCH  18  19
ENDBRANCH  17  18
ENDBRANCH   1  17
TORSDOF 10
ENDMDL
MODEL 2
REMARK VINA RESULT: -8.853491412      1.085      1.347
REMARK  10 active torsions:
REMARK  status: ('A' for Active; 'I' for Inactive)
REMARK    1  A    between atoms: C2_2  and  C3_3 
REMARK    2  A    between atoms: C3_3  and  C4_4 
REMARK    3  A    between atoms: C4_4  and  C5_5 
REMARK    4  A    between atoms: C5_5  and  C6_6 
REMARK    5  A    between atoms: C8_8  and  C9_9 
REMARK    6  A    between atoms: C13_13  and  O1_14 
REMARK    7  A    between atoms: O1_14  and  C14_15 
REMARK    8  A    between atoms: C14_15  and  C15_16 
REMARK    9  A    between atoms: C15_16  and  C16_17 
REMARK   10  A    between atoms: C16_17  and  O2_19 
ROOT
HETATM    1  C6  UNL     1      19.586  40.678  18.741  1.00  0.00    -0.055 A 
HETATM    2  C7  UNL     1      20.547  41.516  18.223  1.00  0.00     0.015 A 
HETATM    3  C8  UNL     1      21.728  41.024  17.705  1.00  0.00    -0.049 A 
HETATM    4  C11 UNL     1      21.993  39.682  17.684  1.00  0.00    -0.022 A 
HETATM    5  C12 UNL     1      23.282  39.140  17.120  1.00  0.00     0.052 C 
HETATM    6  C13 UNL     1      21.042  38.825  18.198  1.00  0.00     0.075 A 
HETATM    7  C18 UNL     1      19.853  39.327  18.719  1.00  0.00     0.044 A 
ENDROOT
BRANCH   6   8
HETATM    8  O1  UNL     1      21.320  37.458  18.172  1.00  0.00    -0.350 OA
BRANCH   8   9
HETATM    9  C14 UNL     1      20.242  36.579  18.277  1.00  0.00     0.178 C 
BRANCH   9  10
HETATM   10  C15 UNL     1      20.247  35.756  19.523  1.00  0.00     0.058 C 
BRANCH  10  11
HETATM   11  C16 UNL     1      19.071  36.022  20.419  1.00  0.00     0.116 C 
HETATM   12  C17 UNL     1      17.849  36.363  19.582  1.00  0.00     0.039 C 
BRANCH  11  13
HETATM   13  O2  UNL     1      19.282  37.094  21.271  1.00  0.00    -0.396 OA
ATOM     14  H2  UNL     1      18.790  37.865  21.017  1.00  0.00     0.210 HD
ENDBRANCH  11  13
ENDBRANCH  10  11
ENDBRANCH   9  10
ENDBRANCH   8   9
ENDBRANCH   6   8
BRANCH   3  15
HETATM   15  C9  UNL     1      22.736  41.955  17.158  1.00  0.00     0.035 C 
HETATM   16  C10 UNL     1      22.527  43.343  17.698  1.00  0.00     0.010 C 
ENDBRANCH   3  15
BRANCH   1  17
HETATM   17  C5  UNL     1      18.351  41.244  19.277  1.00  0.00     0.038 C 
BRANCH  17  18
HETATM   18  C4  UNL     1      17.100  40.829  18.557  1.00  0.00     0.005 C 
BRANCH  18  19
HETATM   19  C3  UNL     1      16.128  40.080  19.405  1.00  0.00    -0.000 C 
BRANCH  19  20
HETATM   20  C2  UNL     1      16.566  40.166  20.850  1.00  0.00    -0.005 C 
HETATM   21  C1  UNL     1      15.614  40.952  21.705  1.00  0.00     0.005 C 
ENDBRANCH  19  20
ENDBRANCH  18  19
ENDBRANCH  17  18
ENDBRANCH   1  17
TORSDOF 10
ENDMDL
MODEL 3
REMARK VINA RESULT: -8.705546771      1.720      5.764
REMARK  10 active torsions:
REMARK  status: ('A' for Active; 'I' for Inactive)
REMARK    1  A    between atoms: C2_2  and  C3_3 
REMARK    2  A    between atoms: C3_3  and  C4_4 
REMARK    3  A    between atoms: C4_4  and  C5_5 
REMARK    4  A    between atoms: C5_5  and  C6_6 
REMARK    5  A    between atoms: C8_8  and  C9_9 
REMARK    6  A    between atoms: C13_13  and  O1_14 
REMARK    7  A    between atoms: O1_14  and  C14_15 
REMARK    8  A    between atoms: C14_15  and  C15_16 
REMARK    9  A    between atoms: C15_16  and  C16_17 
REMARK   10  A    between atoms: C16_17  and  O2_19 
ROOT
HETATM    1  C6  UNL     1      19.406  36.905  18.793  1.00  0.00    -0.055 A 
HETATM    2  C7  UNL     1      18.285  37.669  19.027  1.00  0.00     0.015 A 
HETATM    3  C8  UNL     1      18.344  39.047  19.038  1.00  0.00    -0.049 A 
HETATM    4  C11 UNL     1      19.518  39.713  18.816  1.00  0.00    -0.022 A 
HETATM    5  C12 UNL     1      19.586  41.219  18.828  1.00  0.00     0.052 C 
HETATM    6  C13 UNL     1      20.653  38.965  18.578  1.00  0.00     0.075 A 
HETATM    7  C18 UNL     1      20.587  37.575  18.568  1.00  0.00     0.044 A 
ENDROOT
BRANCH   6   8
HETATM    8  O1  UNL     1      21.846  39.652  18.352  1.00  0.00    -0.350 OA
BRANCH   8   9
HETATM    9  C14 UNL     1      22.664  39.199  17.317  1.00  0.00     0.178 C 
BRANCH   9  10
HETATM   10  C15 UNL     1      23.574  40.245  16.759  1.00  0.00     0.058 C 
BRANCH  10  11
HETATM   11  C16 UNL     1      22.852  41.476  16.292  1.00  0.00     0.116 C 
HETATM   12  C17 UNL     1      22.762  42.486  17.426  1.00  0.00     0.039 C 
BRANCH  11  13
HETATM   13  O2  UNL     1      21.553  41.213  15.890  1.00  0.00    -0.396 OA
ATOM     14  H2  UNL     1      21.478  41.096  14.951  1.00  0.00     0.210 HD
ENDBRANCH  11  13
ENDBRANCH  10  11
ENDBRANCH   9  10
ENDBRANCH   8   9
ENDBRANCH   6   8
BRANCH   3  15
HETATM   15  C9  UNL     1      17.120  39.834  19.293  1.00  0.00     0.035 C 
HETATM   16  C10 UNL     1      16.818  39.884  20.766  1.00  0.00     0.010 C 
ENDBRANCH   3  15
BRANCH   1  17
HETATM   17  C5  UNL     1      19.295  35.448  18.790  1.00  0.00     0.038 C 
BRANCH  17  18
HETATM   18  C4  UNL     1      17.979  34.915  18.300  1.00  0.00     0.005 C 
BRANCH  18  19
HETATM   19  C3  UNL     1      17.081  34.418  19.383  1.00  0.00    -0.000 C 
BRANCH  19  20
HETATM   20  C2  UNL     1      16.492  33.090  18.963  1.00  0.00    -0.005 C 
HETATM   21  C1  UNL     1      15.306  32.686  19.790  1.00  0.00     0.005 C 
ENDBRANCH  19  20
ENDBRANCH  18  19
ENDBRANCH  17  18
ENDBRANCH   1  17
TORSDOF 10
ENDMDL
MODEL 4
REMARK VINA RESULT: -8.705149765      2.161      4.975
REMARK  10 active torsions:
REMARK  status: ('A' for Active; 'I' for Inactive)
REMARK    1  A    between atoms: C2_2  and  C3_3 
REMARK    2  A    between atoms: C3_3  and  C4_4 
REMARK    3  A    between atoms: C4_4  and  C5_5 
REMARK    4  A    between atoms: C5_5  and  C6_6 
REMARK    5  A    between atoms: C8_8  and  C9_9 
REMARK    6  A    between atoms: C13_13  and  O1_14 
REMARK    7  A    between atoms: O1_14  and  C14_15 
REMARK    8  A    between atoms: C14_15  and  C15_16 
REMARK    9  A    between atoms: C15_16  and  C16_17 
REMARK   10  A    between atoms: C16_17  and  O2_19 
ROOT
HETATM    1  C6  UNL     1      21.054  38.275  18.253  1.00  0.00    -0.055 A 
HETATM    2  C7  UNL     1      22.224  38.676  17.648  1.00  0.00     0.015 A 
HETATM    3  C8  UNL     1      22.510  40.010  17.449  1.00  0.00    -0.049 A 
HETATM    4  C11 UNL     1      21.644  40.993  17.845  1.00  0.00    -0.022 A 
HETATM    5  C12 UNL     1      21.953  42.453  17.629  1.00  0.00     0.052 C 
HETATM    6  C13 UNL     1      20.466  40.611  18.455  1.00  0.00     0.075 A 
HETATM    7  C18 UNL     1      20.183  39.263  18.653  1.00  0.00     0.044 A 
ENDROOT
BRANCH   6   8
HETATM    8  O1  UNL     1      19.589  41.619  18.857  1.00  0.00    -0.350 OA
BRANCH   8   9
HETATM    9  C14 UNL     1      18.273  41.254  19.138  1.00  0.00     0.178 C 
BRANCH   9  10
HETATM   10  C15 UNL     1      17.647  42.039  20.244  1.00  0.00     0.058 C 
BRANCH  10  11
HETATM   11  C16 UNL     1      17.133  41.184  21.367  1.00  0.00     0.116 C 
HETATM   12  C17 UNL     1      17.064  39.732  20.923  1.00  0.00     0.039 C 
BRANCH  11  13
HETATM   13  O2  UNL     1      15.855  41.539  21.766  1.00  0.00    -0.396 OA
ATOM     14  H2  UNL     1      15.331  41.881  21.052  1.00  0.00     0.210 HD
ENDBRANCH  11  13
ENDBRANCH  10  11
ENDBRANCH   9  10
ENDBRANCH   8   9
ENDBRANCH   6   8
BRANCH   3  15
HETATM   15  C9  UNL     1      23.776  40.403  16.795  1.00  0.00     0.035 C 
HETATM   16  C10 UNL     1      24.303  39.281  15.943  1.00  0.00     0.010 C 
ENDBRANCH   3  15
BRANCH   1  17
HETATM   17  C5  UNL     1      20.795  36.850  18.444  1.00  0.00     0.038 C 
BRANCH  17  18
HETATM   18  C4  UNL     1      19.457  36.525  19.044  1.00  0.00     0.005 C 
BRANCH  18  19
HETATM   19  C3  UNL     1      18.633  35.588  18.228  1.00  0.00    -0.000 C 
BRANCH  19  20
HETATM   20  C2  UNL     1      17.499  35.060  19.078  1.00  0.00    -0.005 C 
HETATM   21  C1  UNL     1      16.993  33.724  18.617  1.00  0.00     0.005 C 
ENDBRANCH  19  20
ENDBRANCH  18  19
ENDBRANCH  17  18
ENDBRANCH   1  17
TORSDOF 10
ENDMDL
MODEL 5
REMARK VINA RESULT: -8.541504843      1.382      4.703
REMARK  10 active torsions:
REMARK  status: ('A' for Active; 'I' for Inactive)
REMARK    1  A    between atoms: C2_2  and  C3_3 
REMARK    2  A    between atoms: C3_3  and  C4_4 
REMARK    3  A    between atoms: C4_4  and  C5_5 
REMARK    4  A    between atoms: C5_5  and  C6_6 
REMARK    5  A    between atoms: C8_8  and  C9_9 
REMARK    6  A    between atoms: C13_13  and  O1_14 
REMARK    7  A    between atoms: O1_14  and  C14_15 
REMARK    8  A    between atoms: C14_15  and  C15_16 
REMARK    9  A    between atoms: C15_16  and  C16_17 
REMARK   10  A    between atoms: C16_17  and  O2_19 
ROOT
HETATM    1  C6  UNL     1      19.879  39.850  18.402  1.00  0.00    -0.055 A 
HETATM    2  C7  UNL     1      18.807  40.168  19.205  1.00  0.00     0.015 A 
HETATM    3  C8  UNL     1      18.278  39.255  20.093  1.00  0.00    -0.049 A 
HETATM    4  C11 UNL     1      18.797  37.994  20.214  1.00  0.00    -0.022 A 
HETATM    5  C12 UNL     1      18.221  36.993  21.184  1.00  0.00     0.052 C 
HETATM    6  C13 UNL     1      19.873  37.657  19.419  1.00  0.00     0.075 A 
HETATM    7  C18 UNL     1      20.402  38.583  18.525  1.00  0.00     0.044 A 
ENDROOT
BRANCH   6   8
HETATM    8  O1  UNL     1      20.397  36.371  19.549  1.00  0.00    -0.350 OA
BRANCH   8   9
HETATM    9  C14 UNL     1      20.282  35.513  18.455  1.00  0.00     0.178 C 
BRANCH   9  10
HETATM   10  C15 UNL     1      18.920  35.490  17.841  1.00  0.00     0.058 C 
BRANCH  10  11
HETATM   11  C16 UNL     1      18.271  34.136  17.882  1.00  0.00     0.116 C 
HETATM   12  C17 UNL     1      17.210  34.102  18.970  1.00  0.00     0.039 C 
BRANCH  11  13
HETATM   13  O2  UNL     1      19.169  33.122  18.171  1.00  0.00    -0.396 OA
ATOM     14  H2  UNL     1      18.764  32.263  18.172  1.00  0.00     0.210 HD
ENDBRANCH  11  13
ENDBRANCH  10  11
ENDBRANCH   9  10
ENDBRANCH   8   9
ENDBRANCH   6   8
BRANCH   3  15
HETATM   15  C9  UNL     1      17.126  39.631  20.938  1.00  0.00     0.035 C 
HETATM   16  C10 UNL     1      16.154  40.479  20.165  1.00  0.00     0.010 C 
ENDBRANCH   3  15
BRANCH   1  17
HETATM   17  C5  UNL     1      20.406  40.851  17.477  1.00  0.00     0.038 C 
BRANCH  17  18
HETATM   18  C4  UNL     1      21.159  41.977  18.125  1.00  0.00     0.005 C 
BRANCH  18  19
HETATM   19  C3  UNL     1      22.435  42.333  17.439  1.00  0.00    -0.000 C 
BRANCH  19  20
HETATM   20  C2  UNL     1      22.754  41.270  16.412  1.00  0.00    -0.005 C 
HETATM   21  C1  UNL     1      23.945  40.434  16.784  1.00  0.00     0.005 C 
ENDBRANCH  19  20
ENDBRANCH  18  19
ENDBRANCH  17  18
ENDBRANCH   1  17
TORSDOF 10
ENDMDL
