MODEL 1
REMARK VINA RESULT: -8.852924620      0.000      0.000
REMARK  10 active torsions:
REMARK  status: ('A' for Active; 'I' for Inactive)
REMARK    1  A    between atoms: C2_2  and  C3_3 
REMARK    2  A    between atoms: C3_3  and  C4_4 
REMARK    3  A    between atoms: C3_3  and  O2_10 
REMARK    4  A    between atoms: C4_4  and  C5_5 
REMARK    5  A    between atoms: C5_5  and  C6_6 
REMARK    6  A    between atoms: C6_6  and  C7_7 
REMARK    7  A    between atoms: C7_7  and  O1_8 
REMARK    8  A    between atoms: O2_10  and  C8_11 
REMARK    9  A    between atoms: C8_11  and  C9_12 
REMARK   10  A    between atoms: C9_12  and  C10_13 
ROOT
HETATM    1  C8  UNL     1      20.892  37.469  18.767  1.00  0.00     0.172 C 
ENDROOT
BRANCH   1   2
HETATM    2  O2  UNL     1      20.423  37.189  20.034  1.00  0.00    -0.386 OA
BRANCH   2   3
HETATM    3  C3  UNL     1      19.065  37.166  20.154  1.00  0.00     0.121 C 
BRANCH   3   4
HETATM    4  C2  UNL     1      18.532  37.813  21.406  1.00  0.00     0.027 C 
HETATM    5  C1  UNL     1      17.808  39.087  21.050  1.00  0.00     0.007 C 
ENDBRANCH   3   4
BRANCH   3   6
HETATM    6  C4  UNL     1      18.658  35.678  20.239  1.00  0.00     0.032 C 
BRANCH   6   7
HETATM    7  C5  UNL     1      17.705  35.322  19.158  1.00  0.00     0.004 C 
BRANCH   7   8
HETATM    8  C6  UNL     1      18.304  34.957  17.853  1.00  0.00     0.026 C 
BRANCH   8   9
HETATM    9  C7  UNL     1      19.501  34.077  17.873  1.00  0.00     0.164 C 
BRANCH   9  10
HETATM   10  O1  UNL     1      19.239  32.740  18.129  1.00  0.00    -0.401 OA
ATOM     11  H1  UNL     1      18.753  32.574  18.928  1.00  0.00     0.209 HD
ENDBRANCH   9  10
ENDBRANCH   8   9
ENDBRANCH   7   8
ENDBRANCH   6   7
ENDBRANCH   3   6
ENDBRANCH   2   3
ENDBRANCH   1   2
BRANCH   1  12
HETATM   12  C9  UNL     1      20.294  38.791  18.331  1.00  0.00     0.065 C 
BRANCH  12  13
HETATM   13  C10 UNL     1      21.350  39.720  17.852  1.00  0.00    -0.049 A 
HETATM   14  C11 UNL     1      22.442  39.193  17.204  1.00  0.00     0.014 A 
HETATM   15  C12 UNL     1      23.456  39.972  16.737  1.00  0.00    -0.061 A 
HETATM   16  C13 UNL     1      24.625  39.342  16.037  1.00  0.00     0.048 C 
HETATM   17  C14 UNL     1      23.378  41.330  16.923  1.00  0.00     0.014 A 
HETATM   18  C15 UNL     1      22.295  41.874  17.567  1.00  0.00    -0.055 A 
HETATM   19  C16 UNL     1      22.247  43.349  17.750  1.00  0.00     0.049 C 
HETATM   20  C17 UNL     1      21.267  41.086  18.041  1.00  0.00    -0.050 A 
HETATM   21  C18 UNL     1      20.110  41.710  18.734  1.00  0.00     0.049 C 
ENDBRANCH  12  13
ENDBRANCH   1  12
TORSDOF 10
ENDMDL
MODEL 2
REMARK VINA RESULT: -8.531801027      1.947      3.644
REMARK  10 active torsions:
REMARK  status: ('A' for Active; 'I' for Inactive)
REMARK    1  A    between atoms: C2_2  and  C3_3 
REMARK    2  A    between atoms: C3_3  and  C4_4 
REMARK    3  A    between atoms: C3_3  and  O2_10 
REMARK    4  A    between atoms: C4_4  and  C5_5 
REMARK    5  A    between atoms: C5_5  and  C6_6 
REMARK    6  A    between atoms: C6_6  and  C7_7 
REMARK    7  A    between atoms: C7_7  and  O1_8 
REMARK    8  A    between atoms: O2_10  and  C8_11 
REMARK    9  A    between atoms: C8_11  and  C9_12 
REMARK   10  A    between atoms: C9_12  and  C10_13 
ROOT
HETATM    1  C8  UNL     1      20.790  37.834  19.319  1.00  0.00     0.172 C 
ENDROOT
BRANCH   1   2
HETATM    2  O2  UNL     1      19.696  37.279  19.951  1.00  0.00    -0.386 OA
BRANCH   2   3
HETATM    3  C3  UNL     1      19.046  38.110  20.815  1.00  0.00     0.121 C 
BRANCH   3   4
HETATM    4  C2  UNL     1      18.815  37.536  22.189  1.00  0.00     0.027 C 
HETATM    5  C1  UNL     1      18.376  36.098  22.071  1.00  0.00     0.007 C 
ENDBRANCH   3   4
BRANCH   3   6
HETATM    6  C4  UNL     1      17.644  38.354  20.215  1.00  0.00     0.032 C 
BRANCH   6   7
HETATM    7  C5  UNL     1      17.097  39.664  20.649  1.00  0.00     0.004 C 
BRANCH   7   8
HETATM    8  C6  UNL     1      16.616  40.560  19.571  1.00  0.00     0.026 C 
BRANCH   8   9
HETATM    9  C7  UNL     1      16.253  41.950  19.948  1.00  0.00     0.164 C 
BRANCH   9  10
HETATM   10  O1  UNL     1      17.246  42.654  20.610  1.00  0.00    -0.401 OA
ATOM     11  H1  UNL     1      17.107  42.761  21.544  1.00  0.00     0.209 HD
ENDBRANCH   9  10
ENDBRANCH   8   9
ENDBRANCH   7   8
ENDBRANCH   6   7
ENDBRANCH   3   6
ENDBRANCH   2   3
ENDBRANCH   1   2
BRANCH   1  12
HETATM   12  C9  UNL     1      20.280  38.772  18.244  1.00  0.00     0.065 C 
BRANCH  12  13
HETATM   13  C10 UNL     1      21.348  39.709  17.806  1.00  0.00    -0.049 A 
HETATM   14  C11 UNL     1      22.453  39.192  17.173  1.00  0.00     0.014 A 
HETATM   15  C12 UNL     1      23.478  39.979  16.742  1.00  0.00    -0.061 A 
HETATM   16  C13 UNL     1      24.661  39.361  16.056  1.00  0.00     0.048 C 
HETATM   17  C14 UNL     1      23.397  41.333  16.953  1.00  0.00     0.014 A 
HETATM   18  C15 UNL     1      22.301  41.867  17.583  1.00  0.00    -0.055 A 
HETATM   19  C16 UNL     1      22.250  43.337  17.793  1.00  0.00     0.049 C 
HETATM   20  C17 UNL     1      21.261  41.071  18.020  1.00  0.00    -0.050 A 
HETATM   21  C18 UNL     1      20.090  41.683  18.698  1.00  0.00     0.049 C 
ENDBRANCH  12  13
ENDBRANCH   1  12
TORSDOF 10
ENDMDL
MODEL 3
REMARK VINA RESULT: -8.516445866      2.184      3.687
REMARK  10 active torsions:
REMARK  status: ('A' for Active; 'I' for Inactive)
REMARK    1  A    between atoms: C2_2  and  C3_3 
REMARK    2  A    between atoms: C3_3  and  C4_4 
REMARK    3  A    between atoms: C3_3  and  O2_10 
REMARK    4  A    between atoms: C4_4  and  C5_5 
REMARK    5  A    between atoms: C5_5  and  C6_6 
REMARK    6  A    between atoms: C6_6  and  C7_7 
REMARK    7  A    between atoms: C7_7  and  O1_8 
REMARK    8  A    between atoms: O2_10  and  C8_11 
REMARK    9  A    between atoms: C8_11  and  C9_12 
REMARK   10  A    between atoms: C9_12  and  C10_13 
ROOT
HETATM    1  C8  UNL     1      18.645  41.215  18.340  1.00  0.00     0.172 C 
ENDROOT
BRANCH   1   2
HETATM    2  O2  UNL     1      17.924  41.305  19.513  1.00  0.00    -0.386 OA
BRANCH   2   3
HETATM    3  C3  UNL     1      16.975  40.340  19.682  1.00  0.00     0.121 C 
BRANCH   3   4
HETATM    4  C2  UNL     1      15.625  40.852  20.112  1.00  0.00     0.027 C 
HETATM    5  C1  UNL     1      15.567  40.929  21.617  1.00  0.00     0.007 C 
ENDBRANCH   3   4
BRANCH   3   6
HETATM    6  C4  UNL     1      17.473  39.435  20.832  1.00  0.00     0.032 C 
BRANCH   6   7
HETATM    7  C5  UNL     1      17.953  38.129  20.315  1.00  0.00     0.004 C 
BRANCH   7   8
HETATM    8  C6  UNL     1      18.885  37.383  21.194  1.00  0.00     0.026 C 
BRANCH   8   9
HETATM    9  C7  UNL     1      18.331  36.242  21.966  1.00  0.00     0.164 C 
BRANCH   9  10
HETATM   10  O1  UNL     1      18.859  36.084  23.236  1.00  0.00    -0.401 OA
ATOM     11  H1  UNL     1      19.719  35.680  23.265  1.00  0.00     0.209 HD
ENDBRANCH   9  10
ENDBRANCH   8   9
ENDBRANCH   7   8
ENDBRANCH   6   7
ENDBRANCH   3   6
ENDBRANCH   2   3
ENDBRANCH   1   2
BRANCH   1  12
HETATM   12  C9  UNL     1      20.071  41.630  18.638  1.00  0.00     0.065 C 
BRANCH  12  13
HETATM   13  C10 UNL     1      21.033  40.593  18.181  1.00  0.00    -0.049 A 
HETATM   14  C11 UNL     1      20.710  39.270  18.374  1.00  0.00     0.014 A 
HETATM   15  C12 UNL     1      21.536  38.258  17.989  1.00  0.00    -0.061 A 
HETATM   16  C13 UNL     1      21.133  36.831  18.225  1.00  0.00     0.048 C 
HETATM   17  C14 UNL     1      22.728  38.577  17.389  1.00  0.00     0.014 A 
HETATM   18  C15 UNL     1      23.067  39.892  17.188  1.00  0.00    -0.055 A 
HETATM   19  C16 UNL     1      24.367  40.196  16.536  1.00  0.00     0.049 C 
HETATM   20  C17 UNL     1      22.232  40.919  17.577  1.00  0.00    -0.050 A 
HETATM   21  C18 UNL     1      22.630  42.331  17.343  1.00  0.00     0.049 C 
ENDBRANCH  12  13
ENDBRANCH   1  12
TORSDOF 10
ENDMDL
MODEL 4
REMARK VINA RESULT: -8.469030664      1.366      3.194
REMARK  10 active torsions:
REMARK  status: ('A' for Active; 'I' for Inactive)
REMARK    1  A    between atoms: C2_2  and  C3_3 
REMARK    2  A    between atoms: C3_3  and  C4_4 
REMARK    3  A    between atoms: C3_3  and  O2_10 
REMARK    4  A    between atoms: C4_4  and  C5_5 
REMARK    5  A    between atoms: C5_5  and  C6_6 
REMARK    6  A    between atoms: C6_6  and  C7_7 
REMARK    7  A    between atoms: C7_7  and  O1_8 
REMARK    8  A    between atoms: O2_10  and  C8_11 
REMARK    9  A    between atoms: C8_11  and  C9_12 
REMARK   10  A    between atoms: C9_12  and  C10_13 
ROOT
HETATM    1  C8  UNL     1      20.834  37.418  18.692  1.00  0.00     0.172 C 
ENDROOT
BRANCH   1   2
HETATM    2  O2  UNL     1      20.441  37.082  19.972  1.00  0.00    -0.386 OA
BRANCH   2   3
HETATM    3  C3  UNL     1      19.524  36.075  20.047  1.00  0.00     0.121 C 
BRANCH   3   4
HETATM    4  C2  UNL     1      18.683  35.894  18.810  1.00  0.00     0.027 C 
HETATM    5  C1  UNL     1      17.514  34.992  19.118  1.00  0.00     0.007 C 
ENDBRANCH   3   4
BRANCH   3   6
HETATM    6  C4  UNL     1      18.542  36.462  21.176  1.00  0.00     0.032 C 
BRANCH   6   7
HETATM    7  C5  UNL     1      18.585  37.922  21.445  1.00  0.00     0.004 C 
BRANCH   7   8
HETATM    8  C6  UNL     1      17.555  38.741  20.762  1.00  0.00     0.026 C 
BRANCH   8   9
HETATM    9  C7  UNL     1      17.440  40.166  21.164  1.00  0.00     0.164 C 
BRANCH   9  10
HETATM   10  O1  UNL     1      16.147  40.665  21.187  1.00  0.00    -0.401 OA
ATOM     11  H1  UNL     1      15.679  40.602  20.362  1.00  0.00     0.209 HD
ENDBRANCH   9  10
ENDBRANCH   8   9
ENDBRANCH   7   8
ENDBRANCH   6   7
ENDBRANCH   3   6
ENDBRANCH   2   3
ENDBRANCH   1   2
BRANCH   1  12
HETATM   12  C9  UNL     1      20.270  38.788  18.377  1.00  0.00     0.065 C 
BRANCH  12  13
HETATM   13  C10 UNL     1      21.335  39.699  17.880  1.00  0.00    -0.049 A 
HETATM   14  C11 UNL     1      22.417  39.151  17.235  1.00  0.00     0.014 A 
HETATM   15  C12 UNL     1      23.438  39.914  16.752  1.00  0.00    -0.061 A 
HETATM   16  C13 UNL     1      24.596  39.262  16.055  1.00  0.00     0.048 C 
HETATM   17  C14 UNL     1      23.375  41.275  16.921  1.00  0.00     0.014 A 
HETATM   18  C15 UNL     1      22.301  41.839  17.563  1.00  0.00    -0.055 A 
HETATM   19  C16 UNL     1      22.270  43.316  17.726  1.00  0.00     0.049 C 
HETATM   20  C17 UNL     1      21.267  41.068  18.052  1.00  0.00    -0.050 A 
HETATM   21  C18 UNL     1      20.120  41.714  18.742  1.00  0.00     0.049 C 
ENDBRANCH  12  13
ENDBRANCH   1  12
TORSDOF 10
ENDMDL
MODEL 5
REMARK VINA RESULT: -8.327436916      2.134      6.645
REMARK  10 active torsions:
REMARK  status: ('A' for Active; 'I' for Inactive)
REMARK    1  A    between atoms: C2_2  and  C3_3 
REMARK    2  A    between atoms: C3_3  and  C4_4 
REMARK    3  A    between atoms: C3_3  and  O2_10 
REMARK    4  A    between atoms: C4_4  and  C5_5 
REMARK    5  A    between atoms: C5_5  and  C6_6 
REMARK    6  A    between atoms: C6_6  and  C7_7 
REMARK    7  A    between atoms: C7_7  and  O1_8 
REMARK    8  A    between atoms: O2_10  and  C8_11 
REMARK    9  A    between atoms: C8_11  and  C9_12 
REMARK   10  A    between atoms: C9_12  and  C10_13 
ROOT
HETATM    1  C8  UNL     1      21.506  38.589  18.232  1.00  0.00     0.172 C 
ENDROOT
BRANCH   1   2
HETATM    2  O2  UNL     1      20.454  39.311  17.706  1.00  0.00    -0.386 OA
BRANCH   2   3
HETATM    3  C3  UNL     1      20.702  40.638  17.518  1.00  0.00     0.121 C 
BRANCH   3   4
HETATM    4  C2  UNL     1      22.157  41.023  17.587  1.00  0.00     0.027 C 
HETATM    5  C1  UNL     1      22.286  42.526  17.561  1.00  0.00     0.007 C 
ENDBRANCH   3   4
BRANCH   3   6
HETATM    6  C4  UNL     1      20.009  41.382  18.681  1.00  0.00     0.032 C 
BRANCH   6   7
HETATM    7  C5  UNL     1      18.694  40.771  18.999  1.00  0.00     0.004 C 
BRANCH   7   8
HETATM    8  C6  UNL     1      17.763  41.605  19.795  1.00  0.00     0.026 C 
BRANCH   8   9
HETATM    9  C7  UNL     1      16.315  41.286  19.708  1.00  0.00     0.164 C 
BRANCH   9  10
HETATM   10  O1  UNL     1      15.482  42.159  20.388  1.00  0.00    -0.401 OA
ATOM     11  H1  UNL     1      15.477  42.055  21.332  1.00  0.00     0.209 HD
ENDBRANCH   9  10
ENDBRANCH   8   9
ENDBRANCH   7   8
ENDBRANCH   6   7
ENDBRANCH   3   6
ENDBRANCH   2   3
ENDBRANCH   1   2
BRANCH   1  12
HETATM   12  C9  UNL     1      21.169  37.118  18.108  1.00  0.00     0.065 C 
BRANCH  12  13
HETATM   13  C10 UNL     1      20.038  36.754  19.002  1.00  0.00    -0.049 A 
HETATM   14  C11 UNL     1      19.906  37.422  20.196  1.00  0.00     0.014 A 
HETATM   15  C12 UNL     1      18.902  37.148  21.074  1.00  0.00    -0.061 A 
HETATM   16  C13 UNL     1      18.807  37.909  22.365  1.00  0.00     0.048 C 
HETATM   17  C14 UNL     1      17.994  36.172  20.748  1.00  0.00     0.014 A 
HETATM   18  C15 UNL     1      18.110  35.495  19.560  1.00  0.00    -0.055 A 
HETATM   19  C16 UNL     1      17.107  34.444  19.243  1.00  0.00     0.049 C 
HETATM   20  C17 UNL     1      19.127  35.771  18.668  1.00  0.00    -0.050 A 
HETATM   21  C18 UNL     1      19.220  35.018  17.391  1.00  0.00     0.049 C 
ENDBRANCH  12  13
ENDBRANCH   1  12
TORSDOF 10
ENDMDL
