MODEL 1
REMARK VINA RESULT: -8.637543934      0.000      0.000
REMARK  10 active torsions:
REMARK  status: ('A' for Active; 'I' for Inactive)
REMARK    1  A    between atoms: C2_2  and  C4_4 
REMARK    2  A    between atoms: C4_4  and  C5_5 
REMARK    3  A    between atoms: C5_5  and  C6_6 
REMARK    4  A    between atoms: C6_6  and  C7_7 
REMARK    5  A    between atoms: C7_7  and  O2_9 
REMARK    6  A    between atoms: O2_9  and  C8_10 
REMARK    7  A    between atoms: C8_10  and  C9_11 
REMARK    8  A    between atoms: C8_10  and  C15_17 
REMARK    9  A    between atoms: C9_11  and  C10_12 
REMARK   10  A    between atoms: C15_17  and  C16_18 
ROOT
HETATM    1  C8  UNL     1      19.960  40.385  17.967  1.00  0.00     0.136 C 
ENDROOT
BRANCH   1   2
HETATM    2  O2  UNL     1      20.301  39.357  18.850  1.00  0.00    -0.316 OA
BRANCH   2   3
HETATM    3  C7  UNL     1      20.878  38.194  18.457  1.00  0.00     0.259 C 
HETATM    4  O1  UNL     1      21.971  38.262  17.872  1.00  0.00    -0.265 OA
BRANCH   3   5
HETATM    5  C6  UNL     1      20.262  36.840  18.692  1.00  0.00     0.111 C 
BRANCH   5   6
HETATM    6  C5  UNL     1      18.762  36.962  18.761  1.00  0.00     0.010 C 
BRANCH   6   7
HETATM    7  C4  UNL     1      18.272  36.314  20.021  1.00  0.00     0.004 C 
BRANCH   7   8
HETATM    8  C2  UNL     1      18.880  36.907  21.257  1.00  0.00    -0.023 C 
HETATM    9  C1  UNL     1      18.376  38.300  21.537  1.00  0.00     0.009 C 
HETATM   10  C3  UNL     1      18.428  36.041  22.439  1.00  0.00     0.009 C 
ENDBRANCH   7   8
ENDBRANCH   6   7
ENDBRANCH   5   6
ENDBRANCH   3   5
ENDBRANCH   2   3
ENDBRANCH   1   2
BRANCH   1  11
HETATM   11  C9  UNL     1      18.541  40.490  17.561  1.00  0.00     0.070 C 
BRANCH  11  12
HETATM   12  C10 UNL     1      17.705  40.787  18.756  1.00  0.00    -0.059 A 
HETATM   13  C11 UNL     1      17.902  41.617  19.758  1.00  0.00    -0.016 A 
HETATM   14  C12 UNL     1      16.780  41.568  20.722  1.00  0.00     0.054 A 
HETATM   15  C13 UNL     1      15.869  40.562  20.128  1.00  0.00    -0.022 A 
HETATM   16  C14 UNL     1      16.402  40.120  19.007  1.00  0.00     0.003 A 
ENDBRANCH  11  12
ENDBRANCH   1  11
BRANCH   1  17
HETATM   17  C15 UNL     1      20.681  41.665  18.285  1.00  0.00     0.037 C 
BRANCH  17  18
HETATM   18  C16 UNL     1      22.024  41.861  17.719  1.00  0.00    -0.020 C 
HETATM   19  C17 UNL     1      22.494  43.315  17.794  1.00  0.00     0.009 C 
HETATM   20  C18 UNL     1      22.342  41.271  16.394  1.00  0.00     0.009 C 
ENDBRANCH  17  18
ENDBRANCH   1  17
TORSDOF 10
ENDMDL
MODEL 2
REMARK VINA RESULT: -8.553874930      1.474      2.195
REMARK  10 active torsions:
REMARK  status: ('A' for Active; 'I' for Inactive)
REMARK    1  A    between atoms: C2_2  and  C4_4 
REMARK    2  A    between atoms: C4_4  and  C5_5 
REMARK    3  A    between atoms: C5_5  and  C6_6 
REMARK    4  A    between atoms: C6_6  and  C7_7 
REMARK    5  A    between atoms: C7_7  and  O2_9 
REMARK    6  A    between atoms: O2_9  and  C8_10 
REMARK    7  A    between atoms: C8_10  and  C9_11 
REMARK    8  A    between atoms: C8_10  and  C15_17 
REMARK    9  A    between atoms: C9_11  and  C10_12 
REMARK   10  A    between atoms: C15_17  and  C16_18 
ROOT
HETATM    1  C8  UNL     1      20.087  39.978  18.048  1.00  0.00     0.136 C 
ENDROOT
BRANCH   1   2
HETATM    2  O2  UNL     1      20.532  39.047  18.990  1.00  0.00    -0.316 OA
BRANCH   2   3
HETATM    3  C7  UNL     1      20.736  37.736  18.706  1.00  0.00     0.259 C 
HETATM    4  O1  UNL     1      21.624  37.456  17.884  1.00  0.00    -0.265 OA
BRANCH   3   5
HETATM    5  C6  UNL     1      19.948  36.617  19.334  1.00  0.00     0.111 C 
BRANCH   5   6
HETATM    6  C5  UNL     1      18.856  36.170  18.398  1.00  0.00     0.010 C 
BRANCH   6   7
HETATM    7  C4  UNL     1      17.780  35.485  19.186  1.00  0.00     0.004 C 
BRANCH   7   8
HETATM    8  C2  UNL     1      17.287  34.229  18.531  1.00  0.00    -0.023 C 
HETATM    9  C1  UNL     1      18.386  33.220  18.315  1.00  0.00     0.009 C 
HETATM   10  C3  UNL     1      16.291  33.580  19.499  1.00  0.00     0.009 C 
ENDBRANCH   7   8
ENDBRANCH   6   7
ENDBRANCH   5   6
ENDBRANCH   3   5
ENDBRANCH   2   3
ENDBRANCH   1   2
BRANCH   1  11
HETATM   11  C9  UNL     1      18.682  39.870  17.596  1.00  0.00     0.070 C 
BRANCH  11  12
HETATM   12  C10 UNL     1      17.773  40.281  18.701  1.00  0.00    -0.059 A 
HETATM   13  C11 UNL     1      17.041  41.364  18.852  1.00  0.00    -0.016 A 
HETATM   14  C12 UNL     1      16.292  41.329  20.129  1.00  0.00     0.054 A 
HETATM   15  C13 UNL     1      16.700  40.035  20.723  1.00  0.00    -0.022 A 
HETATM   16  C14 UNL     1      17.545  39.442  19.903  1.00  0.00     0.003 A 
ENDBRANCH  11  12
ENDBRANCH   1  11
BRANCH   1  17
HETATM   17  C15 UNL     1      20.616  41.358  18.323  1.00  0.00     0.037 C 
BRANCH  17  18
HETATM   18  C16 UNL     1      21.705  41.862  17.475  1.00  0.00    -0.020 C 
HETATM   19  C17 UNL     1      22.784  40.810  17.205  1.00  0.00     0.009 C 
HETATM   20  C18 UNL     1      22.318  43.177  17.791  1.00  0.00     0.009 C 
ENDBRANCH  17  18
ENDBRANCH   1  17
TORSDOF 10
ENDMDL
MODEL 3
REMARK VINA RESULT: -8.527679185      1.369      2.042
REMARK  10 active torsions:
REMARK  status: ('A' for Active; 'I' for Inactive)
REMARK    1  A    between atoms: C2_2  and  C4_4 
REMARK    2  A    between atoms: C4_4  and  C5_5 
REMARK    3  A    between atoms: C5_5  and  C6_6 
REMARK    4  A    between atoms: C6_6  and  C7_7 
REMARK    5  A    between atoms: C7_7  and  O2_9 
REMARK    6  A    between atoms: O2_9  and  C8_10 
REMARK    7  A    between atoms: C8_10  and  C9_11 
REMARK    8  A    between atoms: C8_10  and  C15_17 
REMARK    9  A    between atoms: C9_11  and  C10_12 
REMARK   10  A    between atoms: C15_17  and  C16_18 
ROOT
HETATM    1  C8  UNL     1      19.994  40.095  17.998  1.00  0.00     0.136 C 
ENDROOT
BRANCH   1   2
HETATM    2  O2  UNL     1      20.486  39.185  18.938  1.00  0.00    -0.316 OA
BRANCH   2   3
HETATM    3  C7  UNL     1      20.852  37.916  18.628  1.00  0.00     0.259 C 
HETATM    4  O1  UNL     1      21.812  37.767  17.853  1.00  0.00    -0.265 OA
BRANCH   3   5
HETATM    5  C6  UNL     1      20.159  36.695  19.171  1.00  0.00     0.111 C 
BRANCH   5   6
HETATM    6  C5  UNL     1      18.969  36.355  18.313  1.00  0.00     0.010 C 
BRANCH   6   7
HETATM    7  C4  UNL     1      17.953  35.630  19.143  1.00  0.00     0.004 C 
BRANCH   7   8
HETATM    8  C2  UNL     1      17.458  34.373  18.492  1.00  0.00    -0.023 C 
HETATM    9  C1  UNL     1      18.555  33.359  18.285  1.00  0.00     0.009 C 
HETATM   10  C3  UNL     1      16.457  33.731  19.459  1.00  0.00     0.009 C 
ENDBRANCH   7   8
ENDBRANCH   6   7
ENDBRANCH   5   6
ENDBRANCH   3   5
ENDBRANCH   2   3
ENDBRANCH   1   2
BRANCH   1  11
HETATM   11  C9  UNL     1      18.564  39.989  17.634  1.00  0.00     0.070 C 
BRANCH  11  12
HETATM   12  C10 UNL     1      17.725  40.213  18.843  1.00  0.00    -0.059 A 
HETATM   13  C11 UNL     1      17.446  39.419  19.854  1.00  0.00    -0.016 A 
HETATM   14  C12 UNL     1      16.559  40.089  20.831  1.00  0.00     0.054 A 
HETATM   15  C13 UNL     1      16.350  41.428  20.234  1.00  0.00    -0.022 A 
HETATM   16  C14 UNL     1      17.018  41.493  19.100  1.00  0.00     0.003 A 
ENDBRANCH  11  12
ENDBRANCH   1  11
BRANCH   1  17
HETATM   17  C15 UNL     1      20.549  41.477  18.205  1.00  0.00     0.037 C 
BRANCH  17  18
HETATM   18  C16 UNL     1      21.943  41.727  17.810  1.00  0.00    -0.020 C 
HETATM   19  C17 UNL     1      22.297  43.216  17.792  1.00  0.00     0.009 C 
HETATM   20  C18 UNL     1      22.488  41.040  16.611  1.00  0.00     0.009 C 
ENDBRANCH  17  18
ENDBRANCH   1  17
TORSDOF 10
ENDMDL
MODEL 4
REMARK VINA RESULT: -8.490025336      1.652      5.418
REMARK  10 active torsions:
REMARK  status: ('A' for Active; 'I' for Inactive)
REMARK    1  A    between atoms: C2_2  and  C4_4 
REMARK    2  A    between atoms: C4_4  and  C5_5 
REMARK    3  A    between atoms: C5_5  and  C6_6 
REMARK    4  A    between atoms: C6_6  and  C7_7 
REMARK    5  A    between atoms: C7_7  and  O2_9 
REMARK    6  A    between atoms: O2_9  and  C8_10 
REMARK    7  A    between atoms: C8_10  and  C9_11 
REMARK    8  A    between atoms: C8_10  and  C15_17 
REMARK    9  A    between atoms: C9_11  and  C10_12 
REMARK   10  A    between atoms: C15_17  and  C16_18 
ROOT
HETATM    1  C8  UNL     1      20.240  37.155  19.184  1.00  0.00     0.136 C 
ENDROOT
BRANCH   1   2
HETATM    2  O2  UNL     1      20.195  37.557  20.522  1.00  0.00    -0.316 OA
BRANCH   2   3
HETATM    3  C7  UNL     1      19.042  37.693  21.223  1.00  0.00     0.259 C 
HETATM    4  O1  UNL     1      19.031  37.289  22.398  1.00  0.00    -0.265 OA
BRANCH   3   5
HETATM    5  C6  UNL     1      17.790  38.305  20.652  1.00  0.00     0.111 C 
BRANCH   5   6
HETATM    6  C5  UNL     1      17.632  39.716  21.157  1.00  0.00     0.010 C 
BRANCH   6   7
HETATM    7  C4  UNL     1      16.342  40.282  20.643  1.00  0.00     0.004 C 
BRANCH   7   8
HETATM    8  C2  UNL     1      16.535  41.535  19.841  1.00  0.00    -0.023 C 
HETATM    9  C1  UNL     1      17.677  42.377  20.350  1.00  0.00     0.009 C 
HETATM   10  C3  UNL     1      16.919  41.103  18.421  1.00  0.00     0.009 C 
ENDBRANCH   7   8
ENDBRANCH   6   7
ENDBRANCH   5   6
ENDBRANCH   3   5
ENDBRANCH   2   3
ENDBRANCH   1   2
BRANCH   1  11
HETATM   11  C9  UNL     1      21.364  37.655  18.361  1.00  0.00     0.070 C 
BRANCH  11  12
HETATM   12  C10 UNL     1      21.234  39.127  18.187  1.00  0.00    -0.059 A 
HETATM   13  C11 UNL     1      20.247  39.944  18.485  1.00  0.00    -0.016 A 
HETATM   14  C12 UNL     1      20.580  41.340  18.123  1.00  0.00     0.054 A 
HETATM   15  C13 UNL     1      21.942  41.225  17.552  1.00  0.00    -0.022 A 
HETATM   16  C14 UNL     1      22.310  39.959  17.591  1.00  0.00     0.003 A 
ENDBRANCH  11  12
ENDBRANCH   1  11
BRANCH   1  17
HETATM   17  C15 UNL     1      19.851  35.713  19.013  1.00  0.00     0.037 C 
BRANCH  17  18
HETATM   18  C16 UNL     1      18.627  35.413  18.257  1.00  0.00    -0.020 C 
HETATM   19  C17 UNL     1      17.471  34.961  19.153  1.00  0.00     0.009 C 
HETATM   20  C18 UNL     1      18.718  34.563  17.043  1.00  0.00     0.009 C 
ENDBRANCH  17  18
ENDBRANCH   1  17
TORSDOF 10
ENDMDL
MODEL 5
REMARK VINA RESULT: -8.389791544      1.218      2.197
REMARK  10 active torsions:
REMARK  status: ('A' for Active; 'I' for Inactive)
REMARK    1  A    between atoms: C2_2  and  C4_4 
REMARK    2  A    between atoms: C4_4  and  C5_5 
REMARK    3  A    between atoms: C5_5  and  C6_6 
REMARK    4  A    between atoms: C6_6  and  C7_7 
REMARK    5  A    between atoms: C7_7  and  O2_9 
REMARK    6  A    between atoms: O2_9  and  C8_10 
REMARK    7  A    between atoms: C8_10  and  C9_11 
REMARK    8  A    between atoms: C8_10  and  C15_17 
REMARK    9  A    between atoms: C9_11  and  C10_12 
REMARK   10  A    between atoms: C15_17  and  C16_18 
ROOT
HETATM    1  C8  UNL     1      19.289  40.107  17.689  1.00  0.00     0.136 C 
ENDROOT
BRANCH   1   2
HETATM    2  O2  UNL     1      19.163  38.756  18.027  1.00  0.00    -0.316 OA
BRANCH   2   3
HETATM    3  C7  UNL     1      19.926  38.148  18.969  1.00  0.00     0.259 C 
HETATM    4  O1  UNL     1      21.052  37.749  18.628  1.00  0.00    -0.265 OA
BRANCH   3   5
HETATM    5  C6  UNL     1      19.480  37.937  20.391  1.00  0.00     0.111 C 
BRANCH   5   6
HETATM    6  C5  UNL     1      18.165  37.203  20.413  1.00  0.00     0.010 C 
BRANCH   6   7
HETATM    7  C4  UNL     1      18.399  35.760  20.078  1.00  0.00     0.004 C 
BRANCH   7   8
HETATM    8  C2  UNL     1      17.626  35.309  18.874  1.00  0.00    -0.023 C 
HETATM    9  C1  UNL     1      18.521  34.894  17.734  1.00  0.00     0.009 C 
HETATM   10  C3  UNL     1      16.846  34.055  19.287  1.00  0.00     0.009 C 
ENDBRANCH   7   8
ENDBRANCH   6   7
ENDBRANCH   5   6
ENDBRANCH   3   5
ENDBRANCH   2   3
ENDBRANCH   1   2
BRANCH   1  11
HETATM   11  C9  UNL     1      18.046  40.905  17.604  1.00  0.00     0.070 C 
BRANCH  11  12
HETATM   12  C10 UNL     1      17.349  40.878  18.919  1.00  0.00    -0.059 A 
HETATM   13  C11 UNL     1      16.317  40.173  19.330  1.00  0.00    -0.016 A 
HETATM   14  C12 UNL     1      15.977  40.490  20.735  1.00  0.00     0.054 A 
HETATM   15  C13 UNL     1      16.984  41.512  21.103  1.00  0.00    -0.022 A 
HETATM   16  C14 UNL     1      17.765  41.729  20.063  1.00  0.00     0.003 A 
ENDBRANCH  11  12
ENDBRANCH   1  11
BRANCH   1  17
HETATM   17  C15 UNL     1      20.475  40.748  18.354  1.00  0.00     0.037 C 
BRANCH  17  18
HETATM   18  C16 UNL     1      21.500  41.361  17.498  1.00  0.00    -0.020 C 
HETATM   19  C17 UNL     1      22.677  40.423  17.216  1.00  0.00     0.009 C 
HETATM   20  C18 UNL     1      21.979  42.731  17.812  1.00  0.00     0.009 C 
ENDBRANCH  17  18
ENDBRANCH   1  17
TORSDOF 10
ENDMDL
