MODEL 1
REMARK VINA RESULT: -8.513094493      0.000      0.000
REMARK  9 active torsions:
REMARK  status: ('A' for Active; 'I' for Inactive)
REMARK    1  A    between atoms: C2_2  and  O1_3 
REMARK    2  A    between atoms: O1_3  and  C3_4 
REMARK    3  A    between atoms: C3_4  and  C4_5 
REMARK    4  A    between atoms: C4_5  and  C5_6 
REMARK    5  A    between atoms: C5_6  and  C6_7 
REMARK    6  A    between atoms: C6_7  and  C7_8 
REMARK    7  A    between atoms: C7_8  and  C9_10 
REMARK    8  A    between atoms: C9_10  and  O2_11 
REMARK    9  A    between atoms: O2_11  and  C10_12 
ROOT
HETATM    1  C9  UNL     1      18.281  40.877  18.891  1.00  0.00     0.180 C 
ENDROOT
BRANCH   1   2
HETATM    2  C7  UNL     1      17.663  41.253  20.195  1.00  0.00     0.006 C 
HETATM    3  C8  UNL     1      16.427  42.073  19.939  1.00  0.00     0.012 C 
BRANCH   2   4
HETATM    4  C6  UNL     1      17.413  40.045  21.029  1.00  0.00     0.006 C 
BRANCH   4   5
HETATM    5  C5  UNL     1      17.755  38.749  20.386  1.00  0.00     0.002 C 
BRANCH   5   6
HETATM    6  C4  UNL     1      18.468  37.792  21.318  1.00  0.00     0.026 C 
BRANCH   6   7
HETATM    7  C3  UNL     1      18.502  36.394  20.804  1.00  0.00     0.167 C 
BRANCH   7   8
HETATM    8  O1  UNL     1      17.929  36.305  19.549  1.00  0.00    -0.391 OA
BRANCH   8   9
HETATM    9  C2  UNL     1      17.495  35.063  19.176  1.00  0.00     0.163 C 
HETATM   10  C1  UNL     1      18.190  34.751  17.842  1.00  0.00     0.033 C 
ENDBRANCH   8   9
ENDBRANCH   7   8
ENDBRANCH   6   7
ENDBRANCH   5   6
ENDBRANCH   4   5
ENDBRANCH   2   4
ENDBRANCH   1   2
BRANCH   1  11
HETATM   11  O2  UNL     1      19.588  41.353  18.731  1.00  0.00    -0.350 OA
BRANCH  11  12
HETATM   12  C10 UNL     1      20.581  40.479  18.322  1.00  0.00     0.075 A 
HETATM   13  C11 UNL     1      20.390  39.132  18.476  1.00  0.00     0.044 A 
HETATM   14  C12 UNL     1      21.367  38.255  18.074  1.00  0.00    -0.059 A 
HETATM   15  C13 UNL     1      21.188  36.785  18.229  1.00  0.00     0.048 C 
HETATM   16  C14 UNL     1      22.538  38.756  17.514  1.00  0.00     0.014 A 
HETATM   17  C15 UNL     1      22.736  40.115  17.358  1.00  0.00    -0.053 A 
HETATM   18  C16 UNL     1      23.990  40.662  16.759  1.00  0.00     0.049 C 
HETATM   19  C17 UNL     1      21.754  40.964  17.763  1.00  0.00    -0.023 A 
HETATM   20  C18 UNL     1      21.884  42.429  17.631  1.00  0.00     0.052 C 
ENDBRANCH  11  12
ENDBRANCH   1  11
TORSDOF 9
ENDMDL
MODEL 2
REMARK VINA RESULT: -8.436998994      1.770      3.426
REMARK  9 active torsions:
REMARK  status: ('A' for Active; 'I' for Inactive)
REMARK    1  A    between atoms: C2_2  and  O1_3 
REMARK    2  A    between atoms: O1_3  and  C3_4 
REMARK    3  A    between atoms: C3_4  and  C4_5 
REMARK    4  A    between atoms: C4_5  and  C5_6 
REMARK    5  A    between atoms: C5_6  and  C6_7 
REMARK    6  A    between atoms: C6_7  and  C7_8 
REMARK    7  A    between atoms: C7_8  and  C9_10 
REMARK    8  A    between atoms: C9_10  and  O2_11 
REMARK    9  A    between atoms: O2_11  and  C10_12 
ROOT
HETATM    1  C9  UNL     1      20.631  37.704  19.139  1.00  0.00     0.180 C 
ENDROOT
BRANCH   1   2
HETATM    2  C7  UNL     1      19.607  37.385  20.176  1.00  0.00     0.006 C 
HETATM    3  C8  UNL     1      18.428  38.305  20.008  1.00  0.00     0.012 C 
BRANCH   2   4
HETATM    4  C6  UNL     1      19.245  35.941  20.133  1.00  0.00     0.006 C 
BRANCH   4   5
HETATM    5  C5  UNL     1      17.923  35.637  19.526  1.00  0.00     0.002 C 
BRANCH   5   6
HETATM    6  C4  UNL     1      18.028  34.911  18.201  1.00  0.00     0.026 C 
BRANCH   6   7
HETATM    7  C3  UNL     1      17.275  33.625  18.180  1.00  0.00     0.167 C 
BRANCH   7   8
HETATM    8  O1  UNL     1      16.379  33.548  19.229  1.00  0.00    -0.391 OA
BRANCH   8   9
HETATM    9  C2  UNL     1      15.630  32.406  19.295  1.00  0.00     0.163 C 
HETATM   10  C1  UNL     1      14.658  32.601  20.468  1.00  0.00     0.033 C 
ENDBRANCH   8   9
ENDBRANCH   7   8
ENDBRANCH   6   7
ENDBRANCH   5   6
ENDBRANCH   4   5
ENDBRANCH   2   4
ENDBRANCH   1   2
BRANCH   1  11
HETATM   11  O2  UNL     1      20.309  38.821  18.359  1.00  0.00    -0.350 OA
BRANCH  11  12
HETATM   12  C10 UNL     1      21.327  39.630  17.883  1.00  0.00     0.075 A 
HETATM   13  C11 UNL     1      22.399  39.054  17.255  1.00  0.00     0.044 A 
HETATM   14  C12 UNL     1      23.415  39.846  16.779  1.00  0.00    -0.059 A 
HETATM   15  C13 UNL     1      24.593  39.248  16.092  1.00  0.00     0.048 C 
HETATM   16  C14 UNL     1      23.333  41.225  16.943  1.00  0.00     0.014 A 
HETATM   17  C15 UNL     1      22.253  41.810  17.577  1.00  0.00    -0.053 A 
HETATM   18  C16 UNL     1      22.156  43.290  17.759  1.00  0.00     0.049 C 
HETATM   19  C17 UNL     1      21.259  41.006  18.040  1.00  0.00    -0.023 A 
HETATM   20  C18 UNL     1      20.070  41.550  18.728  1.00  0.00     0.052 C 
ENDBRANCH  11  12
ENDBRANCH   1  11
TORSDOF 9
ENDMDL
MODEL 3
REMARK VINA RESULT: -8.417457798      1.492      3.917
REMARK  9 active torsions:
REMARK  status: ('A' for Active; 'I' for Inactive)
REMARK    1  A    between atoms: C2_2  and  O1_3 
REMARK    2  A    between atoms: O1_3  and  C3_4 
REMARK    3  A    between atoms: C3_4  and  C4_5 
REMARK    4  A    between atoms: C4_5  and  C5_6 
REMARK    5  A    between atoms: C5_6  and  C6_7 
REMARK    6  A    between atoms: C6_7  and  C7_8 
REMARK    7  A    between atoms: C7_8  and  C9_10 
REMARK    8  A    between atoms: C9_10  and  O2_11 
REMARK    9  A    between atoms: O2_11  and  C10_12 
ROOT
HETATM    1  C9  UNL     1      20.664  37.621  18.812  1.00  0.00     0.180 C 
ENDROOT
BRANCH   1   2
HETATM    2  C7  UNL     1      19.528  36.681  18.589  1.00  0.00     0.006 C 
HETATM    3  C8  UNL     1      20.000  35.270  18.818  1.00  0.00     0.012 C 
BRANCH   2   4
HETATM    4  C6  UNL     1      18.357  37.060  19.427  1.00  0.00     0.006 C 
BRANCH   4   5
HETATM    5  C5  UNL     1      18.626  37.151  20.886  1.00  0.00     0.002 C 
BRANCH   5   6
HETATM    6  C4  UNL     1      18.236  38.489  21.480  1.00  0.00     0.026 C 
BRANCH   6   7
HETATM    7  C3  UNL     1      17.497  39.359  20.523  1.00  0.00     0.167 C 
BRANCH   7   8
HETATM    8  O1  UNL     1      17.436  40.665  20.973  1.00  0.00    -0.391 OA
BRANCH   8   9
HETATM    9  C2  UNL     1      16.770  41.545  20.166  1.00  0.00     0.163 C 
HETATM   10  C1  UNL     1      16.707  40.889  18.779  1.00  0.00     0.033 C 
ENDBRANCH   8   9
ENDBRANCH   7   8
ENDBRANCH   6   7
ENDBRANCH   5   6
ENDBRANCH   4   5
ENDBRANCH   2   4
ENDBRANCH   1   2
BRANCH   1  11
HETATM   11  O2  UNL     1      20.390  38.936  18.419  1.00  0.00    -0.350 OA
BRANCH  11  12
HETATM   12  C10 UNL     1      21.409  39.712  17.892  1.00  0.00     0.075 A 
HETATM   13  C11 UNL     1      22.450  39.098  17.249  1.00  0.00     0.044 A 
HETATM   14  C12 UNL     1      23.467  39.856  16.722  1.00  0.00    -0.059 A 
HETATM   15  C13 UNL     1      24.613  39.217  16.018  1.00  0.00     0.048 C 
HETATM   16  C14 UNL     1      23.417  41.240  16.852  1.00  0.00     0.014 A 
HETATM   17  C15 UNL     1      22.368  41.864  17.501  1.00  0.00    -0.053 A 
HETATM   18  C16 UNL     1      22.306  43.349  17.646  1.00  0.00     0.049 C 
HETATM   19  C17 UNL     1      21.373  41.093  18.015  1.00  0.00    -0.023 A 
HETATM   20  C18 UNL     1      20.216  41.678  18.722  1.00  0.00     0.052 C 
ENDBRANCH  11  12
ENDBRANCH   1  11
TORSDOF 9
ENDMDL
MODEL 4
REMARK VINA RESULT: -8.377086976      1.119      2.525
REMARK  9 active torsions:
REMARK  status: ('A' for Active; 'I' for Inactive)
REMARK    1  A    between atoms: C2_2  and  O1_3 
REMARK    2  A    between atoms: O1_3  and  C3_4 
REMARK    3  A    between atoms: C3_4  and  C4_5 
REMARK    4  A    between atoms: C4_5  and  C5_6 
REMARK    5  A    between atoms: C5_6  and  C6_7 
REMARK    6  A    between atoms: C6_7  and  C7_8 
REMARK    7  A    between atoms: C7_8  and  C9_10 
REMARK    8  A    between atoms: C9_10  and  O2_11 
REMARK    9  A    between atoms: O2_11  and  C10_12 
ROOT
HETATM    1  C9  UNL     1      18.664  40.584  19.124  1.00  0.00     0.180 C 
ENDROOT
BRANCH   1   2
HETATM    2  C7  UNL     1      17.607  39.981  19.987  1.00  0.00     0.006 C 
HETATM    3  C8  UNL     1      16.258  40.240  19.372  1.00  0.00     0.012 C 
BRANCH   2   4
HETATM    4  C6  UNL     1      17.882  38.537  20.228  1.00  0.00     0.006 C 
BRANCH   4   5
HETATM    5  C5  UNL     1      18.333  38.199  21.603  1.00  0.00     0.002 C 
BRANCH   5   6
HETATM    6  C4  UNL     1      18.609  36.722  21.792  1.00  0.00     0.026 C 
BRANCH   6   7
HETATM    7  C3  UNL     1      18.433  35.930  20.542  1.00  0.00     0.167 C 
BRANCH   7   8
HETATM    8  O1  UNL     1      19.651  35.545  20.014  1.00  0.00    -0.391 OA
BRANCH   8   9
HETATM    9  C2  UNL     1      19.602  34.874  18.824  1.00  0.00     0.163 C 
HETATM   10  C1  UNL     1      18.255  35.242  18.183  1.00  0.00     0.033 C 
ENDBRANCH   8   9
ENDBRANCH   7   8
ENDBRANCH   6   7
ENDBRANCH   5   6
ENDBRANCH   4   5
ENDBRANCH   2   4
ENDBRANCH   1   2
BRANCH   1  11
HETATM   11  O2  UNL     1      19.759  39.739  18.906  1.00  0.00    -0.350 OA
BRANCH  11  12
HETATM   12  C10 UNL     1      20.889  40.243  18.284  1.00  0.00     0.075 A 
HETATM   13  C11 UNL     1      21.068  41.599  18.223  1.00  0.00     0.044 A 
HETATM   14  C12 UNL     1      22.185  42.112  17.609  1.00  0.00    -0.059 A 
HETATM   15  C13 UNL     1      22.407  43.582  17.527  1.00  0.00     0.048 C 
HETATM   16  C14 UNL     1      23.117  41.237  17.059  1.00  0.00     0.014 A 
HETATM   17  C15 UNL     1      22.939  39.867  17.118  1.00  0.00    -0.053 A 
HETATM   18  C16 UNL     1      23.934  38.921  16.530  1.00  0.00     0.049 C 
HETATM   19  C17 UNL     1      21.826  39.384  17.730  1.00  0.00    -0.023 A 
HETATM   20  C18 UNL     1      21.560  37.935  17.838  1.00  0.00     0.052 C 
ENDBRANCH  11  12
ENDBRANCH   1  11
TORSDOF 9
ENDMDL
MODEL 5
REMARK VINA RESULT: -8.336820867      1.995      3.721
REMARK  9 active torsions:
REMARK  status: ('A' for Active; 'I' for Inactive)
REMARK    1  A    between atoms: C2_2  and  O1_3 
REMARK    2  A    between atoms: O1_3  and  C3_4 
REMARK    3  A    between atoms: C3_4  and  C4_5 
REMARK    4  A    between atoms: C4_5  and  C5_6 
REMARK    5  A    between atoms: C5_6  and  C6_7 
REMARK    6  A    between atoms: C6_7  and  C7_8 
REMARK    7  A    between atoms: C7_8  and  C9_10 
REMARK    8  A    between atoms: C9_10  and  O2_11 
REMARK    9  A    between atoms: O2_11  and  C10_12 
ROOT
HETATM    1  C9  UNL     1      20.667  37.697  19.031  1.00  0.00     0.180 C 
ENDROOT
BRANCH   1   2
HETATM    2  C7  UNL     1      19.579  37.188  19.917  1.00  0.00     0.006 C 
HETATM    3  C8  UNL     1      18.344  38.024  19.713  1.00  0.00     0.012 C 
BRANCH   2   4
HETATM    4  C6  UNL     1      19.355  35.733  19.694  1.00  0.00     0.006 C 
BRANCH   4   5
HETATM    5  C5  UNL     1      18.216  35.396  18.802  1.00  0.00     0.002 C 
BRANCH   5   6
HETATM    6  C4  UNL     1      18.649  34.760  17.497  1.00  0.00     0.026 C 
BRANCH   6   7
HETATM    7  C3  UNL     1      20.077  34.336  17.501  1.00  0.00     0.167 C 
BRANCH   7   8
HETATM    8  O1  UNL     1      20.208  33.006  17.150  1.00  0.00    -0.391 OA
BRANCH   8   9
HETATM    9  C2  UNL     1      21.376  32.663  16.528  1.00  0.00     0.163 C 
HETATM   10  C1  UNL     1      22.368  33.797  16.830  1.00  0.00     0.033 C 
ENDBRANCH   8   9
ENDBRANCH   7   8
ENDBRANCH   6   7
ENDBRANCH   5   6
ENDBRANCH   4   5
ENDBRANCH   2   4
ENDBRANCH   1   2
BRANCH   1  11
HETATM   11  O2  UNL     1      20.345  38.893  18.379  1.00  0.00    -0.350 OA
BRANCH  11  12
HETATM   12  C10 UNL     1      21.365  39.690  17.885  1.00  0.00     0.075 A 
HETATM   13  C11 UNL     1      22.423  39.100  17.247  1.00  0.00     0.044 A 
HETATM   14  C12 UNL     1      23.440  39.878  16.752  1.00  0.00    -0.059 A 
HETATM   15  C13 UNL     1      24.604  39.265  16.054  1.00  0.00     0.048 C 
HETATM   16  C14 UNL     1      23.374  41.259  16.909  1.00  0.00     0.014 A 
HETATM   17  C15 UNL     1      22.307  41.859  17.553  1.00  0.00    -0.053 A 
HETATM   18  C16 UNL     1      22.227  43.340  17.726  1.00  0.00     0.049 C 
HETATM   19  C17 UNL     1      21.312  41.067  18.034  1.00  0.00    -0.023 A 
HETATM   20  C18 UNL     1      20.137  41.626  18.733  1.00  0.00     0.052 C 
ENDBRANCH  11  12
ENDBRANCH   1  11
TORSDOF 9
ENDMDL
