MODEL 1
REMARK VINA RESULT: -6.915083454      0.000      0.000
REMARK  3 active torsions:
REMARK  status: ('A' for Active; 'I' for Inactive)
REMARK    1  A    between atoms: C3_5  and  N3_6 
REMARK    2  A    between atoms: N4_8  and  C4_10 
REMARK    3  A    between atoms: C5_13  and  N6_14 
ROOT
HETATM    1  N3  UNL     1       7.378  15.660  38.671  1.00  0.00    -0.291 N 
ATOM      2  H3  UNL     1       7.737  16.164  39.481  1.00  0.00     0.187 HD
HETATM    3  N4  UNL     1       7.190  16.322  37.593  1.00  0.00    -0.280 N 
ATOM      4  H4  UNL     1       6.832  15.870  36.752  1.00  0.00     0.188 HD
ENDROOT
BRANCH   3   5
HETATM    5  C4  UNL     1       7.498  17.711  37.608  1.00  0.00     0.205 A 
HETATM    6  N5  UNL     1       8.441  18.183  36.780  1.00  0.00    -0.169 N 
HETATM    7  C5  UNL     1       8.733  19.496  36.792  1.00  0.00     0.692 A 
ATOM      8  H5  UNL     1       8.931  17.553  36.147  1.00  0.00     0.186 HD
HETATM    9  N7  UNL     1       8.093  20.335  37.624  1.00  0.00    -0.129 N 
HETATM   10  N8  UNL     1       7.161  19.921  38.456  1.00  0.00    -0.249 N 
ATOM     11  H7  UNL     1       8.338  21.325  37.610  1.00  0.00     0.205 HD
HETATM   12  C6  UNL     1       6.870  18.605  38.441  1.00  0.00     0.306 A 
ATOM     13  H8  UNL     1       6.681  20.566  39.083  1.00  0.00     0.191 HD
HETATM   14  O1  UNL     1       5.986  18.147  39.214  1.00  0.00    -0.263 OA
BRANCH   7  15
HETATM   15  N6  UNL     1       9.638  19.937  35.995  1.00  0.00    -0.233 N 
ATOM     16  H62 UNL     1      10.566  19.516  35.985  1.00  0.00     0.174 HD
ATOM     17  H61 UNL     1       9.411  20.713  35.373  1.00  0.00     0.174 HD
ENDBRANCH   7  15
ENDBRANCH   3   5
BRANCH   1  18
HETATM   18  C3  UNL     1       7.123  14.291  38.813  1.00  0.00     0.158 A 
HETATM   19  C2  UNL     1       6.359  13.825  39.866  1.00  0.00     0.156 A 
HETATM   20  N1  UNL     1       6.151  12.497  39.946  1.00  0.00    -0.290 N 
HETATM   21  N2  UNL     1       5.806  14.695  40.832  1.00  0.00    -0.080 NA
HETATM   22  C1  UNL     1       5.347  12.007  41.052  1.00  0.00     0.162 C 
HETATM   23  C8  UNL     1       6.664  11.663  39.045  1.00  0.00     0.330 A 
HETATM   24  N9  UNL     1       7.407  12.096  38.020  1.00  0.00    -0.273 N 
HETATM   25  O3  UNL     1       6.406  10.428  39.215  1.00  0.00    -0.246 OA
HETATM   26  C7  UNL     1       7.635  13.399  37.904  1.00  0.00     0.281 A 
ATOM     27  H9  UNL     1       7.790  11.439  37.341  1.00  0.00     0.173 HD
HETATM   28  O2  UNL     1       8.339  13.853  36.938  1.00  0.00    -0.265 OA
ENDBRANCH   1  18
TORSDOF 3
ENDMDL
MODEL 2
REMARK VINA RESULT: -6.680087719      2.024      6.822
REMARK  3 active torsions:
REMARK  status: ('A' for Active; 'I' for Inactive)
REMARK    1  A    between atoms: C3_5  and  N3_6 
REMARK    2  A    between atoms: N4_8  and  C4_10 
REMARK    3  A    between atoms: C5_13  and  N6_14 
ROOT
HETATM    1  N3  UNL     1       7.361  14.479  38.514  1.00  0.00    -0.291 N 
ATOM      2  H3  UNL     1       7.696  14.398  39.474  1.00  0.00     0.187 HD
HETATM    3  N4  UNL     1       6.899  13.427  37.952  1.00  0.00    -0.280 N 
ATOM      4  H4  UNL     1       6.551  13.451  36.994  1.00  0.00     0.188 HD
ENDROOT
BRANCH   3   5
HETATM    5  C4  UNL     1       6.889  12.224  38.711  1.00  0.00     0.205 A 
HETATM    6  N5  UNL     1       5.718  11.626  38.977  1.00  0.00    -0.169 N 
HETATM    7  C5  UNL     1       5.705  10.487  39.694  1.00  0.00     0.692 A 
ATOM      8  H5  UNL     1       4.846  12.031  38.639  1.00  0.00     0.186 HD
HETATM    9  N7  UNL     1       6.850   9.947  40.145  1.00  0.00    -0.129 N 
HETATM   10  N8  UNL     1       8.024  10.495  39.912  1.00  0.00    -0.249 N 
ATOM     11  H7  UNL     1       6.807   9.084  40.687  1.00  0.00     0.205 HD
HETATM   12  C6  UNL     1       8.033  11.636  39.193  1.00  0.00     0.306 A 
ATOM     13  H8  UNL     1       8.886  10.077  40.259  1.00  0.00     0.191 HD
HETATM   14  O1  UNL     1       9.125  12.209  38.936  1.00  0.00    -0.263 OA
BRANCH   7  15
HETATM   15  N6  UNL     1       4.579   9.925  39.942  1.00  0.00    -0.233 N 
ATOM     16  H62 UNL     1       4.547   9.002  40.375  1.00  0.00     0.174 HD
ATOM     17  H61 UNL     1       3.718  10.417  39.701  1.00  0.00     0.174 HD
ENDBRANCH   7  15
ENDBRANCH   3   5
BRANCH   1  18
HETATM   18  C3  UNL     1       7.438  15.735  37.900  1.00  0.00     0.158 A 
HETATM   19  C2  UNL     1       6.903  16.851  38.516  1.00  0.00     0.156 A 
HETATM   20  N1  UNL     1       7.009  18.030  37.873  1.00  0.00    -0.290 N 
HETATM   21  N2  UNL     1       6.265  16.777  39.774  1.00  0.00    -0.080 NA
HETATM   22  C1  UNL     1       6.447  19.202  38.520  1.00  0.00     0.162 C 
HETATM   23  C8  UNL     1       7.607  18.116  36.687  1.00  0.00     0.330 A 
HETATM   24  N9  UNL     1       8.130  17.047  36.076  1.00  0.00    -0.273 N 
HETATM   25  O3  UNL     1       7.652  19.278  36.168  1.00  0.00    -0.246 OA
HETATM   26  C7  UNL     1       8.047  15.866  36.677  1.00  0.00     0.281 A 
ATOM     27  H9  UNL     1       8.583  17.137  35.167  1.00  0.00     0.173 HD
HETATM   28  O2  UNL     1       8.534  14.820  36.127  1.00  0.00    -0.265 OA
ENDBRANCH   1  18
TORSDOF 3
ENDMDL
MODEL 3
REMARK VINA RESULT: -6.623301222      1.873      2.951
REMARK  3 active torsions:
REMARK  status: ('A' for Active; 'I' for Inactive)
REMARK    1  A    between atoms: C3_5  and  N3_6 
REMARK    2  A    between atoms: N4_8  and  C4_10 
REMARK    3  A    between atoms: C5_13  and  N6_14 
ROOT
HETATM    1  N3  UNL     1       7.046  14.364  39.728  1.00  0.00    -0.291 N 
ATOM      2  H3  UNL     1       8.056  14.440  39.610  1.00  0.00     0.187 HD
HETATM    3  N4  UNL     1       6.305  15.164  39.061  1.00  0.00    -0.280 N 
ATOM      4  H4  UNL     1       5.289  15.133  39.141  1.00  0.00     0.188 HD
ENDROOT
BRANCH   3   5
HETATM    5  C4  UNL     1       6.949  16.101  38.205  1.00  0.00     0.205 A 
HETATM    6  N5  UNL     1       6.876  17.409  38.491  1.00  0.00    -0.169 N 
HETATM    7  C5  UNL     1       7.485  18.297  37.683  1.00  0.00     0.692 A 
ATOM      8  H5  UNL     1       6.365  17.728  39.313  1.00  0.00     0.186 HD
HETATM    9  N7  UNL     1       8.160  17.886  36.597  1.00  0.00    -0.129 N 
HETATM   10  N8  UNL     1       8.260  16.614  36.272  1.00  0.00    -0.249 N 
ATOM     11  H7  UNL     1       8.610  18.583  36.003  1.00  0.00     0.205 HD
HETATM   12  C6  UNL     1       7.650  15.727  37.085  1.00  0.00     0.306 A 
ATOM     13  H8  UNL     1       8.775  16.313  35.445  1.00  0.00     0.191 HD
HETATM   14  O1  UNL     1       7.709  14.495  36.828  1.00  0.00    -0.263 OA
BRANCH   7  15
HETATM   15  N6  UNL     1       7.408  19.546  37.967  1.00  0.00    -0.233 N 
ATOM     16  H62 UNL     1       6.525  20.045  37.866  1.00  0.00     0.174 HD
ATOM     17  H61 UNL     1       8.244  20.029  38.295  1.00  0.00     0.174 HD
ENDBRANCH   7  15
ENDBRANCH   3   5
BRANCH   1  18
HETATM   18  C3  UNL     1       6.564  13.388  40.610  1.00  0.00     0.158 A 
HETATM   19  C2  UNL     1       6.190  13.728  41.896  1.00  0.00     0.156 A 
HETATM   20  N1  UNL     1       5.735  12.744  42.694  1.00  0.00    -0.290 N 
HETATM   21  N2  UNL     1       6.274  15.055  42.373  1.00  0.00    -0.080 NA
HETATM   22  C1  UNL     1       5.341  13.101  44.046  1.00  0.00     0.162 C 
HETATM   23  C8  UNL     1       5.649  11.489  42.260  1.00  0.00     0.330 A 
HETATM   24  N9  UNL     1       6.007  11.141  41.019  1.00  0.00    -0.273 N 
HETATM   25  O3  UNL     1       5.206  10.637  43.097  1.00  0.00    -0.246 OA
HETATM   26  C7  UNL     1       6.461  12.082  40.200  1.00  0.00     0.281 A 
ATOM     27  H9  UNL     1       5.934  10.173  40.709  1.00  0.00     0.173 HD
HETATM   28  O2  UNL     1       6.813  11.792  39.005  1.00  0.00    -0.265 OA
ENDBRANCH   1  18
TORSDOF 3
ENDMDL
MODEL 4
REMARK VINA RESULT: -6.606618955      2.110      3.512
REMARK  3 active torsions:
REMARK  status: ('A' for Active; 'I' for Inactive)
REMARK    1  A    between atoms: C3_5  and  N3_6 
REMARK    2  A    between atoms: N4_8  and  C4_10 
REMARK    3  A    between atoms: C5_13  and  N6_14 
ROOT
HETATM    1  N3  UNL     1       6.817  14.695  40.092  1.00  0.00    -0.291 N 
ATOM      2  H3  UNL     1       7.835  14.726  40.045  1.00  0.00     0.187 HD
HETATM    3  N4  UNL     1       6.159  15.418  39.268  1.00  0.00    -0.280 N 
ATOM      4  H4  UNL     1       5.139  15.426  39.271  1.00  0.00     0.188 HD
ENDROOT
BRANCH   3   5
HETATM    5  C4  UNL     1       6.901  16.210  38.348  1.00  0.00     0.205 A 
HETATM    6  N5  UNL     1       6.984  17.535  38.541  1.00  0.00    -0.169 N 
HETATM    7  C5  UNL     1       7.686  18.286  37.673  1.00  0.00     0.692 A 
ATOM      8  H5  UNL     1       6.521  17.968  39.339  1.00  0.00     0.186 HD
HETATM    9  N7  UNL     1       8.299  17.724  36.618  1.00  0.00    -0.129 N 
HETATM   10  N8  UNL     1       8.247  16.430  36.384  1.00  0.00    -0.249 N 
ATOM     11  H7  UNL     1       8.822  18.320  35.976  1.00  0.00     0.205 HD
HETATM   12  C6  UNL     1       7.544  15.680  37.256  1.00  0.00     0.306 A 
ATOM     13  H8  UNL     1       8.716  16.013  35.580  1.00  0.00     0.191 HD
HETATM   14  O1  UNL     1       7.456  14.434  37.087  1.00  0.00    -0.263 OA
BRANCH   7  15
HETATM   15  N6  UNL     1       7.758  19.552  37.868  1.00  0.00    -0.233 N 
ATOM     16  H62 UNL     1       7.299  20.200  37.228  1.00  0.00     0.174 HD
ATOM     17  H61 UNL     1       8.281  19.898  38.673  1.00  0.00     0.174 HD
ENDBRANCH   7  15
ENDBRANCH   3   5
BRANCH   1  18
HETATM   18  C3  UNL     1       6.233  13.863  41.055  1.00  0.00     0.158 A 
HETATM   19  C2  UNL     1       5.867  12.569  40.737  1.00  0.00     0.156 A 
HETATM   20  N1  UNL     1       5.310  11.820  41.708  1.00  0.00    -0.290 N 
HETATM   21  N2  UNL     1       6.063  12.033  39.444  1.00  0.00    -0.080 NA
HETATM   22  C1  UNL     1       4.925  10.461  41.373  1.00  0.00     0.162 C 
HETATM   23  C8  UNL     1       5.118  12.310  42.930  1.00  0.00     0.330 A 
HETATM   24  N9  UNL     1       5.465  13.560  43.257  1.00  0.00    -0.273 N 
HETATM   25  O3  UNL     1       4.584  11.517  43.772  1.00  0.00    -0.246 OA
HETATM   26  C7  UNL     1       6.018  14.330  42.328  1.00  0.00     0.281 A 
ATOM     27  H9  UNL     1       5.308  13.913  44.200  1.00  0.00     0.173 HD
HETATM   28  O2  UNL     1       6.365  15.531  42.600  1.00  0.00    -0.265 OA
ENDBRANCH   1  18
TORSDOF 3
ENDMDL
MODEL 5
REMARK VINA RESULT: -6.549753045      3.715      5.566
REMARK  3 active torsions:
REMARK  status: ('A' for Active; 'I' for Inactive)
REMARK    1  A    between atoms: C3_5  and  N3_6 
REMARK    2  A    between atoms: N4_8  and  C4_10 
REMARK    3  A    between atoms: C5_13  and  N6_14 
ROOT
HETATM    1  N3  UNL     1       5.173  18.857  38.039  1.00  0.00    -0.291 N 
ATOM      2  H3  UNL     1       5.271  19.271  38.965  1.00  0.00     0.187 HD
HETATM    3  N4  UNL     1       4.124  19.140  37.366  1.00  0.00    -0.280 N 
ATOM      4  H4  UNL     1       3.975  18.754  36.434  1.00  0.00     0.188 HD
ENDROOT
BRANCH   3   5
HETATM    5  C4  UNL     1       3.173  20.014  37.962  1.00  0.00     0.205 A 
HETATM    6  N5  UNL     1       3.085  20.074  39.299  1.00  0.00    -0.169 N 
HETATM    7  C5  UNL     1       2.187  20.900  39.866  1.00  0.00     0.692 A 
ATOM      8  H5  UNL     1       3.693  19.499  39.881  1.00  0.00     0.186 HD
HETATM    9  N7  UNL     1       1.380  21.662  39.107  1.00  0.00    -0.129 N 
HETATM   10  N8  UNL     1       1.427  21.639  37.792  1.00  0.00    -0.249 N 
ATOM     11  H7  UNL     1       0.709  22.277  39.566  1.00  0.00     0.205 HD
HETATM   12  C6  UNL     1       2.328  20.810  37.228  1.00  0.00     0.306 A 
ATOM     13  H8  UNL     1       0.810  22.221  37.226  1.00  0.00     0.191 HD
HETATM   14  O1  UNL     1       2.422  20.743  35.973  1.00  0.00    -0.263 OA
BRANCH   7  15
HETATM   15  N6  UNL     1       2.112  20.949  41.146  1.00  0.00    -0.233 N 
ATOM     16  H62 UNL     1       2.019  20.092  41.690  1.00  0.00     0.174 HD
ATOM     17  H61 UNL     1       2.147  21.858  41.608  1.00  0.00     0.174 HD
ENDBRANCH   7  15
ENDBRANCH   3   5
BRANCH   1  18
HETATM   18  C3  UNL     1       6.198  18.015  37.590  1.00  0.00     0.158 A 
HETATM   19  C2  UNL     1       6.603  16.935  38.351  1.00  0.00     0.156 A 
HETATM   20  N1  UNL     1       7.594  16.164  37.863  1.00  0.00    -0.290 N 
HETATM   21  N2  UNL     1       6.011  16.634  39.598  1.00  0.00    -0.080 NA
HETATM   22  C1  UNL     1       8.020  15.029  38.663  1.00  0.00     0.162 C 
HETATM   23  C8  UNL     1       8.163  16.434  36.691  1.00  0.00     0.330 A 
HETATM   24  N9  UNL     1       7.784  17.475  35.940  1.00  0.00    -0.273 N 
HETATM   25  O3  UNL     1       9.090  15.641  36.324  1.00  0.00    -0.246 OA
HETATM   26  C7  UNL     1       6.810  18.259  36.385  1.00  0.00     0.281 A 
ATOM     27  H9  UNL     1       8.235  17.662  35.045  1.00  0.00     0.173 HD
HETATM   28  O2  UNL     1       6.418  19.264  35.699  1.00  0.00    -0.265 OA
ENDBRANCH   1  18
TORSDOF 3
ENDMDL
