MODEL 1
REMARK VINA RESULT: -5.557653168      0.000      0.000
REMARK  5 active torsions:
REMARK  status: ('A' for Active; 'I' for Inactive)
REMARK    1  A    between atoms: S1_3  and  C2_6 
REMARK    2  A    between atoms: C3_7  and  O3_8 
REMARK    3  A    between atoms: C6_14  and  O4_15 
REMARK    4  A    between atoms: C7_17  and  C8_18 
REMARK    5  A    between atoms: C8_18  and  O5_20 
ROOT
HETATM    1  N1  UNL     1       6.477  17.306  38.800  1.00  0.00    -0.179 NA
HETATM    2  C1  UNL     1       6.816  16.517  39.574  1.00  0.00     0.199 C 
HETATM    3  S1  UNL     1       7.293  15.331  40.729  1.00  0.00     0.273 S 
HETATM    4  O1  UNL     1       7.426  15.906  42.065  1.00  0.00    -0.207 OA
HETATM    5  O2  UNL     1       8.763  14.911  40.366  1.00  0.00    -0.207 OA
ENDROOT
BRANCH   3   6
HETATM    6  C2  UNL     1       6.377  13.863  40.629  1.00  0.00     0.125 A 
HETATM    7  C3  UNL     1       5.438  13.609  41.650  1.00  0.00     0.115 A 
HETATM    8  C4  UNL     1       4.655  12.483  41.666  1.00  0.00     0.108 A 
HETATM    9  N2  UNL     1       3.721  12.258  42.708  1.00  0.00    -0.097 NA
HETATM   10  C5  UNL     1       4.755  11.538  40.672  1.00  0.00     0.107 A 
HETATM   11  N3  UNL     1       3.963  10.370  40.663  1.00  0.00    -0.097 NA
HETATM   12  C6  UNL     1       5.657  11.763  39.676  1.00  0.00     0.107 A 
HETATM   13  C7  UNL     1       6.473  12.914  39.639  1.00  0.00     0.072 A 
BRANCH   7  14
HETATM   14  O3  UNL     1       5.327  14.555  42.662  1.00  0.00    -0.357 OA
ATOM     15  H3  UNL     1       5.026  15.422  42.417  1.00  0.00     0.217 HD
ENDBRANCH   7  14
BRANCH  12  16
HETATM   16  O4  UNL     1       5.758  10.805  38.667  1.00  0.00    -0.358 OA
ATOM     17  H4  UNL     1       6.606  10.687  38.257  1.00  0.00     0.217 HD
ENDBRANCH  12  16
BRANCH  13  18
HETATM   18  C8  UNL     1       7.404  13.005  38.553  1.00  0.00     0.164 C 
HETATM   19  N4  UNL     1       7.400  13.693  37.339  1.00  0.00    -0.074 NA
BRANCH  18  20
HETATM   20  O5  UNL     1       8.501  12.299  38.718  1.00  0.00    -0.348 OA
ATOM     21  H5  UNL     1       9.262  12.646  38.266  1.00  0.00     0.219 HD
ENDBRANCH  18  20
ENDBRANCH  13  18
ENDBRANCH   3   6
TORSDOF 5
ENDMDL
MODEL 2
REMARK VINA RESULT: -5.516237605      1.800      4.373
REMARK  5 active torsions:
REMARK  status: ('A' for Active; 'I' for Inactive)
REMARK    1  A    between atoms: S1_3  and  C2_6 
REMARK    2  A    between atoms: C3_7  and  O3_8 
REMARK    3  A    between atoms: C6_14  and  O4_15 
REMARK    4  A    between atoms: C7_17  and  C8_18 
REMARK    5  A    between atoms: C8_18  and  O5_20 
ROOT
HETATM    1  N1  UNL     1       6.972  11.052  43.868  1.00  0.00    -0.179 NA
HETATM    2  C1  UNL     1       6.448  11.914  43.304  1.00  0.00     0.199 C 
HETATM    3  S1  UNL     1       5.692  13.204  42.447  1.00  0.00     0.273 S 
HETATM    4  O1  UNL     1       5.617  14.416  43.258  1.00  0.00    -0.207 OA
HETATM    5  O2  UNL     1       4.186  12.800  42.256  1.00  0.00    -0.207 OA
ENDROOT
BRANCH   3   6
HETATM    6  C2  UNL     1       6.300  13.412  40.837  1.00  0.00     0.125 A 
HETATM    7  C3  UNL     1       6.863  14.662  40.509  1.00  0.00     0.115 A 
HETATM    8  C4  UNL     1       7.380  14.933  39.267  1.00  0.00     0.108 A 
HETATM    9  N2  UNL     1       7.939  16.202  38.970  1.00  0.00    -0.097 NA
HETATM   10  C5  UNL     1       7.370  13.982  38.274  1.00  0.00     0.107 A 
HETATM   11  N3  UNL     1       7.894  14.234  36.988  1.00  0.00    -0.097 NA
HETATM   12  C6  UNL     1       6.829  12.768  38.570  1.00  0.00     0.107 A 
HETATM   13  C7  UNL     1       6.291  12.466  39.839  1.00  0.00     0.072 A 
BRANCH   7  14
HETATM   14  O3  UNL     1       6.880  15.633  41.503  1.00  0.00    -0.357 OA
ATOM     15  H3  UNL     1       7.329  16.447  41.308  1.00  0.00     0.217 HD
ENDBRANCH   7  14
BRANCH  12  16
HETATM   16  O4  UNL     1       6.819  11.802  37.563  1.00  0.00    -0.358 OA
ATOM     17  H4  UNL     1       6.102  11.824  36.939  1.00  0.00     0.217 HD
ENDBRANCH  12  16
BRANCH  13  18
HETATM   18  C8  UNL     1       5.721  11.161  40.001  1.00  0.00     0.164 C 
HETATM   19  N4  UNL     1       6.241   9.927  40.393  1.00  0.00    -0.074 NA
BRANCH  18  20
HETATM   20  O5  UNL     1       4.436  11.092  39.728  1.00  0.00    -0.348 OA
ATOM     21  H5  UNL     1       4.020  10.282  40.000  1.00  0.00     0.219 HD
ENDBRANCH  18  20
ENDBRANCH  13  18
ENDBRANCH   3   6
TORSDOF 5
ENDMDL
MODEL 3
REMARK VINA RESULT: -5.321916117      1.525      4.231
REMARK  5 active torsions:
REMARK  status: ('A' for Active; 'I' for Inactive)
REMARK    1  A    between atoms: S1_3  and  C2_6 
REMARK    2  A    between atoms: C3_7  and  O3_8 
REMARK    3  A    between atoms: C6_14  and  O4_15 
REMARK    4  A    between atoms: C7_17  and  C8_18 
REMARK    5  A    between atoms: C8_18  and  O5_20 
ROOT
HETATM    1  N1  UNL     1       3.032  12.145  42.455  1.00  0.00    -0.179 NA
HETATM    2  C1  UNL     1       4.116  12.545  42.451  1.00  0.00     0.199 C 
HETATM    3  S1  UNL     1       5.736  13.129  42.418  1.00  0.00     0.273 S 
HETATM    4  O1  UNL     1       6.594  12.384  43.336  1.00  0.00    -0.207 OA
HETATM    5  O2  UNL     1       5.711  14.573  43.035  1.00  0.00    -0.207 OA
ENDROOT
BRANCH   3   6
HETATM    6  C2  UNL     1       6.359  13.345  40.814  1.00  0.00     0.125 A 
HETATM    7  C3  UNL     1       6.868  14.617  40.478  1.00  0.00     0.115 A 
HETATM    8  C4  UNL     1       7.390  14.895  39.240  1.00  0.00     0.108 A 
HETATM    9  N2  UNL     1       7.893  16.185  38.934  1.00  0.00    -0.097 NA
HETATM   10  C5  UNL     1       7.439  13.933  38.260  1.00  0.00     0.107 A 
HETATM   11  N3  UNL     1       7.971  14.192  36.978  1.00  0.00    -0.097 NA
HETATM   12  C6  UNL     1       6.951  12.698  38.564  1.00  0.00     0.107 A 
HETATM   13  C7  UNL     1       6.409  12.388  39.829  1.00  0.00     0.072 A 
BRANCH   7  14
HETATM   14  O3  UNL     1       6.824  15.600  41.458  1.00  0.00    -0.357 OA
ATOM     15  H3  UNL     1       6.642  16.488  41.176  1.00  0.00     0.217 HD
ENDBRANCH   7  14
BRANCH  12  16
HETATM   16  O4  UNL     1       7.001  11.720  37.570  1.00  0.00    -0.358 OA
ATOM     17  H4  UNL     1       7.791  11.197  37.508  1.00  0.00     0.217 HD
ENDBRANCH  12  16
BRANCH  13  18
HETATM   18  C8  UNL     1       5.898  11.059  40.001  1.00  0.00     0.164 C 
HETATM   19  N4  UNL     1       6.367   9.928  40.669  1.00  0.00    -0.074 NA
BRANCH  18  20
HETATM   20  O5  UNL     1       4.743  10.842  39.411  1.00  0.00    -0.348 OA
ATOM     21  H5  UNL     1       3.988  11.138  39.906  1.00  0.00     0.219 HD
ENDBRANCH  18  20
ENDBRANCH  13  18
ENDBRANCH   3   6
TORSDOF 5
ENDMDL
MODEL 4
REMARK VINA RESULT: -5.319009031      2.338      4.385
REMARK  5 active torsions:
REMARK  status: ('A' for Active; 'I' for Inactive)
REMARK    1  A    between atoms: S1_3  and  C2_6 
REMARK    2  A    between atoms: C3_7  and  O3_8 
REMARK    3  A    between atoms: C6_14  and  O4_15 
REMARK    4  A    between atoms: C7_17  and  C8_18 
REMARK    5  A    between atoms: C8_18  and  O5_20 
ROOT
HETATM    1  N1  UNL     1       7.943  11.045  42.728  1.00  0.00    -0.179 NA
HETATM    2  C1  UNL     1       7.117  11.692  42.243  1.00  0.00     0.199 C 
HETATM    3  S1  UNL     1       5.908  12.677  41.510  1.00  0.00     0.273 S 
HETATM    4  O1  UNL     1       5.164  13.442  42.507  1.00  0.00    -0.207 OA
HETATM    5  O2  UNL     1       4.827  11.703  40.918  1.00  0.00    -0.207 OA
ENDROOT
BRANCH   3   6
HETATM    6  C2  UNL     1       6.485  13.578  40.146  1.00  0.00     0.125 A 
HETATM    7  C3  UNL     1       6.379  14.983  40.200  1.00  0.00     0.115 A 
HETATM    8  C4  UNL     1       6.810  15.793  39.180  1.00  0.00     0.108 A 
HETATM    9  N2  UNL     1       6.687  17.202  39.266  1.00  0.00    -0.097 NA
HETATM   10  C5  UNL     1       7.371  15.261  38.043  1.00  0.00     0.107 A 
HETATM   11  N3  UNL     1       7.823  16.070  36.979  1.00  0.00    -0.097 NA
HETATM   12  C6  UNL     1       7.482  13.905  37.971  1.00  0.00     0.107 A 
HETATM   13  C7  UNL     1       7.046  13.052  39.007  1.00  0.00     0.072 A 
BRANCH   7  14
HETATM   14  O3  UNL     1       5.812  15.535  41.343  1.00  0.00    -0.357 OA
ATOM     15  H3  UNL     1       5.180  16.234  41.221  1.00  0.00     0.217 HD
ENDBRANCH   7  14
BRANCH  12  16
HETATM   16  O4  UNL     1       8.053  13.364  36.818  1.00  0.00    -0.358 OA
ATOM     17  H4  UNL     1       8.991  13.216  36.820  1.00  0.00     0.217 HD
ENDBRANCH  12  16
BRANCH  13  18
HETATM   18  C8  UNL     1       7.190  11.643  38.782  1.00  0.00     0.164 C 
HETATM   19  N4  UNL     1       8.230  10.739  38.993  1.00  0.00    -0.074 NA
BRANCH  18  20
HETATM   20  O5  UNL     1       6.125  11.064  38.270  1.00  0.00    -0.348 OA
ATOM     21  H5  UNL     1       5.918  11.337  37.384  1.00  0.00     0.219 HD
ENDBRANCH  18  20
ENDBRANCH  13  18
ENDBRANCH   3   6
TORSDOF 5
ENDMDL
MODEL 5
REMARK VINA RESULT: -5.306835198      1.564      3.346
REMARK  5 active torsions:
REMARK  status: ('A' for Active; 'I' for Inactive)
REMARK    1  A    between atoms: S1_3  and  C2_6 
REMARK    2  A    between atoms: C3_7  and  O3_8 
REMARK    3  A    between atoms: C6_14  and  O4_15 
REMARK    4  A    between atoms: C7_17  and  C8_18 
REMARK    5  A    between atoms: C8_18  and  O5_20 
ROOT
HETATM    1  N1  UNL     1       6.820  15.781  37.098  1.00  0.00    -0.179 NA
HETATM    2  C1  UNL     1       7.205  15.137  37.977  1.00  0.00     0.199 C 
HETATM    3  S1  UNL     1       7.751  14.177  39.299  1.00  0.00     0.273 S 
HETATM    4  O1  UNL     1       8.553  14.960  40.236  1.00  0.00    -0.207 OA
HETATM    5  O2  UNL     1       8.781  13.144  38.715  1.00  0.00    -0.207 OA
ENDROOT
BRANCH   3   6
HETATM    6  C2  UNL     1       6.503  13.204  40.007  1.00  0.00     0.125 A 
HETATM    7  C3  UNL     1       6.182  11.988  39.370  1.00  0.00     0.115 A 
HETATM    8  C4  UNL     1       5.216  11.140  39.848  1.00  0.00     0.108 A 
HETATM    9  N2  UNL     1       4.918   9.924  39.182  1.00  0.00    -0.097 NA
HETATM   10  C5  UNL     1       4.507  11.444  40.986  1.00  0.00     0.107 A 
HETATM   11  N3  UNL     1       3.508  10.590  41.500  1.00  0.00    -0.097 NA
HETATM   12  C6  UNL     1       4.801  12.615  41.617  1.00  0.00     0.107 A 
HETATM   13  C7  UNL     1       5.790  13.504  41.144  1.00  0.00     0.072 A 
BRANCH   7  14
HETATM   14  O3  UNL     1       6.890  11.668  38.217  1.00  0.00    -0.357 OA
ATOM     15  H3  UNL     1       6.724  10.818  37.828  1.00  0.00     0.217 HD
ENDBRANCH   7  14
BRANCH  12  16
HETATM   16  O4  UNL     1       4.083  12.924  42.772  1.00  0.00    -0.358 OA
ATOM     17  H4  UNL     1       3.464  12.278  43.091  1.00  0.00     0.217 HD
ENDBRANCH  12  16
BRANCH  13  18
HETATM   18  C8  UNL     1       5.969  14.718  41.885  1.00  0.00     0.164 C 
HETATM   19  N4  UNL     1       6.069  15.006  43.246  1.00  0.00    -0.074 NA
BRANCH  18  20
HETATM   20  O5  UNL     1       6.062  15.799  41.142  1.00  0.00    -0.348 OA
ATOM     21  H5  UNL     1       6.951  16.037  40.905  1.00  0.00     0.219 HD
ENDBRANCH  18  20
ENDBRANCH  13  18
ENDBRANCH   3   6
TORSDOF 5
ENDMDL
