MODEL 1
REMARK VINA RESULT: -6.481018479      0.000      0.000
REMARK  4 active torsions:
REMARK  status: ('A' for Active; 'I' for Inactive)
REMARK    1  A    between atoms: C2_2  and  C3_3 
REMARK    2  A    between atoms: C3_3  and  C4_4 
REMARK    3  A    between atoms: C4_4  and  C5_5 
REMARK    4  A    between atoms: C4_4  and  N1_11 
ROOT
HETATM    1  C4  UNL     1      37.037  71.993  37.904  1.00  0.00     0.126 C 
ENDROOT
BRANCH   1   2
HETATM    2  C3  UNL     1      37.474  73.245  38.613  1.00  0.00     0.056 C 
BRANCH   2   3
HETATM    3  C2  UNL     1      36.411  74.228  38.806  1.00  0.00    -0.035 C 
HETATM    4  C1  UNL     1      36.082  74.634  40.022  1.00  0.00     0.007 C 
ENDBRANCH   2   3
ENDBRANCH   1   2
BRANCH   1   5
HETATM    5  C5  UNL     1      36.390  72.241  36.616  1.00  0.00    -0.035 A 
HETATM    6  C6  UNL     1      37.026  72.839  35.539  1.00  0.00     0.009 A 
HETATM    7  C7  UNL     1      36.349  73.041  34.350  1.00  0.00     0.001 A 
HETATM    8  C8  UNL     1      35.033  72.659  34.203  1.00  0.00     0.000 A 
HETATM    9  C9  UNL     1      34.394  72.069  35.259  1.00  0.00     0.001 A 
HETATM   10  C10 UNL     1      35.071  71.866  36.447  1.00  0.00     0.009 A 
ENDBRANCH   1   5
BRANCH   1  11
HETATM   11  N1  UNL     1      38.230  71.144  37.760  1.00  0.00    -0.342 N 
HETATM   12  C11 UNL     1      39.472  71.413  38.201  1.00  0.00     0.109 A 
HETATM   13  C12 UNL     1      40.324  70.374  37.877  1.00  0.00     0.106 A 
HETATM   14  N2  UNL     1      39.550  69.483  37.231  1.00  0.00    -0.361 N 
HETATM   15  C13 UNL     1      38.296  69.941  37.161  1.00  0.00     0.183 A 
ATOM     16  H2  UNL     1      39.871  68.592  36.853  1.00  0.00     0.166 HD
ENDBRANCH   1  11
TORSDOF 4
ENDMDL
MODEL 2
REMARK VINA RESULT: -6.465896541      0.128      1.225
REMARK  4 active torsions:
REMARK  status: ('A' for Active; 'I' for Inactive)
REMARK    1  A    between atoms: C2_2  and  C3_3 
REMARK    2  A    between atoms: C3_3  and  C4_4 
REMARK    3  A    between atoms: C4_4  and  C5_5 
REMARK    4  A    between atoms: C4_4  and  N1_11 
ROOT
HETATM    1  C4  UNL     1      36.955  71.952  37.872  1.00  0.00     0.126 C 
ENDROOT
BRANCH   1   2
HETATM    2  C3  UNL     1      37.391  73.200  38.586  1.00  0.00     0.056 C 
BRANCH   2   3
HETATM    3  C2  UNL     1      36.318  74.161  38.827  1.00  0.00    -0.035 C 
HETATM    4  C1  UNL     1      36.005  74.526  40.060  1.00  0.00     0.007 C 
ENDBRANCH   2   3
ENDBRANCH   1   2
BRANCH   1   5
HETATM    5  C5  UNL     1      36.300  72.206  36.588  1.00  0.00    -0.035 A 
HETATM    6  C6  UNL     1      34.996  71.831  36.303  1.00  0.00     0.009 A 
HETATM    7  C7  UNL     1      34.442  72.106  35.065  1.00  0.00     0.001 A 
HETATM    8  C8  UNL     1      35.166  72.753  34.088  1.00  0.00     0.000 A 
HETATM    9  C9  UNL     1      36.454  73.127  34.356  1.00  0.00     0.001 A 
HETATM   10  C10 UNL     1      37.007  72.853  35.593  1.00  0.00     0.009 A 
ENDBRANCH   1   5
BRANCH   1  11
HETATM   11  N1  UNL     1      38.149  71.107  37.717  1.00  0.00    -0.342 N 
HETATM   12  C11 UNL     1      39.397  71.386  38.135  1.00  0.00     0.109 A 
HETATM   13  C12 UNL     1      40.248  70.348  37.806  1.00  0.00     0.106 A 
HETATM   14  N2  UNL     1      39.468  69.447  37.182  1.00  0.00    -0.361 N 
HETATM   15  C13 UNL     1      38.211  69.899  37.128  1.00  0.00     0.183 A 
ATOM     16  H2  UNL     1      39.787  68.554  36.807  1.00  0.00     0.166 HD
ENDBRANCH   1  11
TORSDOF 4
ENDMDL
MODEL 3
REMARK VINA RESULT: -6.453253844      2.382      3.939
REMARK  4 active torsions:
REMARK  status: ('A' for Active; 'I' for Inactive)
REMARK    1  A    between atoms: C2_2  and  C3_3 
REMARK    2  A    between atoms: C3_3  and  C4_4 
REMARK    3  A    between atoms: C4_4  and  C5_5 
REMARK    4  A    between atoms: C4_4  and  N1_11 
ROOT
HETATM    1  C4  UNL     1      37.449  73.606  34.802  1.00  0.00     0.126 C 
ENDROOT
BRANCH   1   2
HETATM    2  C3  UNL     1      36.864  73.943  33.458  1.00  0.00     0.056 C 
BRANCH   2   3
HETATM    3  C2  UNL     1      36.911  75.364  33.122  1.00  0.00    -0.035 C 
HETATM    4  C1  UNL     1      35.992  75.901  32.336  1.00  0.00     0.007 C 
ENDBRANCH   2   3
ENDBRANCH   1   2
BRANCH   1   5
HETATM    5  C5  UNL     1      36.488  73.005  35.728  1.00  0.00    -0.035 A 
HETATM    6  C6  UNL     1      36.720  72.857  37.087  1.00  0.00     0.009 A 
HETATM    7  C7  UNL     1      35.763  72.279  37.902  1.00  0.00     0.001 A 
HETATM    8  C8  UNL     1      34.563  71.836  37.390  1.00  0.00     0.000 A 
HETATM    9  C9  UNL     1      34.323  71.976  36.051  1.00  0.00     0.001 A 
HETATM   10  C10 UNL     1      35.278  72.554  35.236  1.00  0.00     0.009 A 
ENDBRANCH   1   5
BRANCH   1  11
HETATM   11  N1  UNL     1      38.598  72.721  34.559  1.00  0.00    -0.342 N 
HETATM   12  C11 UNL     1      39.882  73.090  34.393  1.00  0.00     0.109 A 
HETATM   13  C12 UNL     1      40.671  71.973  34.187  1.00  0.00     0.106 A 
HETATM   14  N2  UNL     1      39.817  70.935  34.235  1.00  0.00    -0.361 N 
HETATM   15  C13 UNL     1      38.577  71.380  34.458  1.00  0.00     0.183 A 
ATOM     16  H2  UNL     1      40.077  69.956  34.119  1.00  0.00     0.166 HD
ENDBRANCH   1  11
TORSDOF 4
ENDMDL
MODEL 4
REMARK VINA RESULT: -6.444004660      2.387      3.996
REMARK  4 active torsions:
REMARK  status: ('A' for Active; 'I' for Inactive)
REMARK    1  A    between atoms: C2_2  and  C3_3 
REMARK    2  A    between atoms: C3_3  and  C4_4 
REMARK    3  A    between atoms: C4_4  and  C5_5 
REMARK    4  A    between atoms: C4_4  and  N1_11 
ROOT
HETATM    1  C4  UNL     1      37.407  73.579  34.779  1.00  0.00     0.126 C 
ENDROOT
BRANCH   1   2
HETATM    2  C3  UNL     1      36.863  73.942  33.425  1.00  0.00     0.056 C 
BRANCH   2   3
HETATM    3  C2  UNL     1      36.895  75.371  33.128  1.00  0.00    -0.035 C 
HETATM    4  C1  UNL     1      35.993  75.914  32.326  1.00  0.00     0.007 C 
ENDBRANCH   2   3
ENDBRANCH   1   2
BRANCH   1   5
HETATM    5  C5  UNL     1      36.419  72.964  35.665  1.00  0.00    -0.035 A 
HETATM    6  C6  UNL     1      35.181  72.509  35.238  1.00  0.00     0.009 A 
HETATM    7  C7  UNL     1      34.297  71.937  36.136  1.00  0.00     0.001 A 
HETATM    8  C8  UNL     1      34.618  71.805  37.469  1.00  0.00     0.000 A 
HETATM    9  C9  UNL     1      35.836  72.251  37.903  1.00  0.00     0.001 A 
HETATM   10  C10 UNL     1      36.720  72.822  37.007  1.00  0.00     0.009 A 
ENDBRANCH   1   5
BRANCH   1  11
HETATM   11  N1  UNL     1      38.561  72.695  34.553  1.00  0.00    -0.342 N 
HETATM   12  C11 UNL     1      39.848  73.064  34.411  1.00  0.00     0.109 A 
HETATM   13  C12 UNL     1      40.640  71.949  34.215  1.00  0.00     0.106 A 
HETATM   14  N2  UNL     1      39.786  70.910  34.244  1.00  0.00    -0.361 N 
HETATM   15  C13 UNL     1      38.542  71.354  34.447  1.00  0.00     0.183 A 
ATOM     16  H2  UNL     1      40.049  69.932  34.129  1.00  0.00     0.166 HD
ENDBRANCH   1  11
TORSDOF 4
ENDMDL
MODEL 5
REMARK VINA RESULT: -6.363553126      2.240      3.227
REMARK  4 active torsions:
REMARK  status: ('A' for Active; 'I' for Inactive)
REMARK    1  A    between atoms: C2_2  and  C3_3 
REMARK    2  A    between atoms: C3_3  and  C4_4 
REMARK    3  A    between atoms: C4_4  and  C5_5 
REMARK    4  A    between atoms: C4_4  and  N1_11 
ROOT
HETATM    1  C4  UNL     1      38.321  73.110  37.598  1.00  0.00     0.126 C 
ENDROOT
BRANCH   1   2
HETATM    2  C3  UNL     1      37.613  74.358  38.046  1.00  0.00     0.056 C 
BRANCH   2   3
HETATM    3  C2  UNL     1      36.937  74.236  39.335  1.00  0.00    -0.035 C 
HETATM    4  C1  UNL     1      35.670  74.593  39.467  1.00  0.00     0.007 C 
ENDBRANCH   2   3
ENDBRANCH   1   2
BRANCH   1   5
HETATM    5  C5  UNL     1      37.428  71.974  37.373  1.00  0.00    -0.035 A 
HETATM    6  C6  UNL     1      36.350  72.004  36.501  1.00  0.00     0.009 A 
HETATM    7  C7  UNL     1      35.548  70.889  36.340  1.00  0.00     0.001 A 
HETATM    8  C8  UNL     1      35.793  69.726  37.037  1.00  0.00     0.000 A 
HETATM    9  C9  UNL     1      36.852  69.684  37.901  1.00  0.00     0.001 A 
HETATM   10  C10 UNL     1      37.655  70.798  38.062  1.00  0.00     0.009 A 
ENDBRANCH   1   5
BRANCH   1  11
HETATM   11  N1  UNL     1      39.076  73.459  36.384  1.00  0.00    -0.342 N 
HETATM   12  C11 UNL     1      40.092  72.767  35.837  1.00  0.00     0.109 A 
HETATM   13  C12 UNL     1      40.544  73.411  34.700  1.00  0.00     0.106 A 
HETATM   14  N2  UNL     1      39.767  74.504  34.592  1.00  0.00    -0.361 N 
HETATM   15  C13 UNL     1      38.887  74.534  35.598  1.00  0.00     0.183 A 
ATOM     16  H2  UNL     1      39.838  75.204  33.854  1.00  0.00     0.166 HD
ENDBRANCH   1  11
TORSDOF 4
ENDMDL
