MODEL 1
REMARK VINA RESULT: -5.864200156      0.000      0.000
REMARK  4 active torsions:
REMARK  status: ('A' for Active; 'I' for Inactive)
REMARK    1  A    between atoms: C4_4  and  C5_5 
REMARK    2  A    between atoms: C5_5  and  N1_6 
REMARK    3  A    between atoms: N1_6  and  C6_9 
REMARK    4  A    between atoms: C9_12  and  N2_13 
ROOT
HETATM    1  C1  UNL     1     -15.298   8.072  25.686  1.00  0.00     0.017 C 
HETATM    2  C2  UNL     1     -15.167   6.898  25.918  1.00  0.00    -0.090 C 
HETATM    3  C3  UNL     1     -15.002   5.510  26.216  1.00  0.00     0.061 C 
HETATM    4  C4  UNL     1     -14.686   4.653  25.280  1.00  0.00     0.009 C 
ENDROOT
BRANCH   4   5
HETATM    5  C5  UNL     1     -14.498   5.121  23.891  1.00  0.00     0.260 C 
BRANCH   5   6
HETATM    6  N1  UNL     1     -15.677   4.890  23.079  1.00  0.00    -0.066 N 
ATOM      7  H12 UNL     1     -16.507   5.323  23.484  1.00  0.00     0.278 HD
ATOM      8  H11 UNL     1     -15.643   5.414  22.204  1.00  0.00     0.278 HD
BRANCH   6   9
HETATM    9  C6  UNL     1     -15.865   3.489  22.852  1.00  0.00     0.216 A 
HETATM   10  C7  UNL     1     -14.827   2.882  21.962  1.00  0.00     0.037 A 
HETATM   11  C8  UNL     1     -15.856   2.632  20.902  1.00  0.00     0.037 A 
HETATM   12  C9  UNL     1     -16.927   3.131  21.843  1.00  0.00     0.214 A 
BRANCH  12  13
HETATM   13  N2  UNL     1     -17.769   2.067  22.284  1.00  0.00    -0.073 N 
ATOM     14  H23 UNL     1     -17.248   1.193  22.355  1.00  0.00     0.274 HD
ATOM     15  H22 UNL     1     -18.027   2.185  23.263  1.00  0.00     0.274 HD
ATOM     16  H21 UNL     1     -18.597   1.951  21.699  1.00  0.00     0.274 HD
ENDBRANCH  12  13
ENDBRANCH   6   9
ENDBRANCH   5   6
ENDBRANCH   4   5
TORSDOF 4
ENDMDL
MODEL 2
REMARK VINA RESULT: -5.854178485      0.962      2.013
REMARK  4 active torsions:
REMARK  status: ('A' for Active; 'I' for Inactive)
REMARK    1  A    between atoms: C4_4  and  C5_5 
REMARK    2  A    between atoms: C5_5  and  N1_6 
REMARK    3  A    between atoms: N1_6  and  C6_9 
REMARK    4  A    between atoms: C9_12  and  N2_13 
ROOT
HETATM    1  C1  UNL     1     -13.399   2.791  26.390  1.00  0.00     0.017 C 
HETATM    2  C2  UNL     1     -13.938   3.868  26.375  1.00  0.00    -0.090 C 
HETATM    3  C3  UNL     1     -14.592   5.139  26.378  1.00  0.00     0.061 C 
HETATM    4  C4  UNL     1     -14.862   5.761  25.260  1.00  0.00     0.009 C 
ENDROOT
BRANCH   4   5
HETATM    5  C5  UNL     1     -14.485   5.145  23.971  1.00  0.00     0.260 C 
BRANCH   5   6
HETATM    6  N1  UNL     1     -15.639   4.919  23.123  1.00  0.00    -0.066 N 
ATOM      7  H12 UNL     1     -16.474   5.377  23.489  1.00  0.00     0.278 HD
ATOM      8  H11 UNL     1     -15.564   5.423  22.239  1.00  0.00     0.278 HD
BRANCH   6   9
HETATM    9  C6  UNL     1     -15.847   3.517  22.920  1.00  0.00     0.216 A 
HETATM   10  C7  UNL     1     -14.753   2.856  22.143  1.00  0.00     0.037 A 
HETATM   11  C8  UNL     1     -15.691   2.601  21.004  1.00  0.00     0.037 A 
HETATM   12  C9  UNL     1     -16.826   3.157  21.832  1.00  0.00     0.214 A 
BRANCH  12  13
HETATM   13  N2  UNL     1     -17.735   2.129  22.225  1.00  0.00    -0.073 N 
ATOM     14  H23 UNL     1     -17.259   1.410  22.770  1.00  0.00     0.274 HD
ATOM     15  H22 UNL     1     -18.387   2.468  22.932  1.00  0.00     0.274 HD
ATOM     16  H21 UNL     1     -18.233   1.719  21.435  1.00  0.00     0.274 HD
ENDBRANCH  12  13
ENDBRANCH   6   9
ENDBRANCH   5   6
ENDBRANCH   4   5
TORSDOF 4
ENDMDL
MODEL 3
REMARK VINA RESULT: -5.823073588      1.760      5.041
REMARK  4 active torsions:
REMARK  status: ('A' for Active; 'I' for Inactive)
REMARK    1  A    between atoms: C4_4  and  C5_5 
REMARK    2  A    between atoms: C5_5  and  N1_6 
REMARK    3  A    between atoms: N1_6  and  C6_9 
REMARK    4  A    between atoms: C9_12  and  N2_13 
ROOT
HETATM    1  C1  UNL     1     -13.566   2.108  21.183  1.00  0.00     0.017 C 
HETATM    2  C2  UNL     1     -14.757   2.293  21.185  1.00  0.00    -0.090 C 
HETATM    3  C3  UNL     1     -16.170   2.505  21.163  1.00  0.00     0.061 C 
HETATM    4  C4  UNL     1     -16.711   3.503  21.811  1.00  0.00     0.009 C 
ENDROOT
BRANCH   4   5
HETATM    5  C5  UNL     1     -15.854   4.428  22.581  1.00  0.00     0.260 C 
BRANCH   5   6
HETATM    6  N1  UNL     1     -16.025   4.261  24.010  1.00  0.00    -0.066 N 
ATOM      7  H12 UNL     1     -16.918   4.635  24.331  1.00  0.00     0.278 HD
ATOM      8  H11 UNL     1     -16.170   3.283  24.262  1.00  0.00     0.278 HD
BRANCH   6   9
HETATM    9  C6  UNL     1     -14.923   4.836  24.720  1.00  0.00     0.216 A 
HETATM   10  C7  UNL     1     -13.641   4.087  24.541  1.00  0.00     0.037 A 
HETATM   11  C8  UNL     1     -13.650   3.687  25.984  1.00  0.00     0.037 A 
HETATM   12  C9  UNL     1     -14.878   4.541  26.198  1.00  0.00     0.214 A 
BRANCH  12  13
HETATM   13  N2  UNL     1     -14.578   5.696  26.981  1.00  0.00    -0.073 N 
ATOM     14  H23 UNL     1     -14.469   6.520  26.391  1.00  0.00     0.274 HD
ATOM     15  H22 UNL     1     -15.388   5.989  27.526  1.00  0.00     0.274 HD
ATOM     16  H21 UNL     1     -13.762   5.566  27.580  1.00  0.00     0.274 HD
ENDBRANCH  12  13
ENDBRANCH   6   9
ENDBRANCH   5   6
ENDBRANCH   4   5
TORSDOF 4
ENDMDL
MODEL 4
REMARK VINA RESULT: -5.751476696      1.562      2.452
REMARK  4 active torsions:
REMARK  status: ('A' for Active; 'I' for Inactive)
REMARK    1  A    between atoms: C4_4  and  C5_5 
REMARK    2  A    between atoms: C5_5  and  N1_6 
REMARK    3  A    between atoms: N1_6  and  C6_9 
REMARK    4  A    between atoms: C9_12  and  N2_13 
ROOT
HETATM    1  C1  UNL     1     -13.142   2.693  26.400  1.00  0.00     0.017 C 
HETATM    2  C2  UNL     1     -13.928   3.589  26.578  1.00  0.00    -0.090 C 
HETATM    3  C3  UNL     1     -14.873   4.636  26.805  1.00  0.00     0.061 C 
HETATM    4  C4  UNL     1     -15.238   5.436  25.838  1.00  0.00     0.009 C 
ENDROOT
BRANCH   4   5
HETATM    5  C5  UNL     1     -14.666   5.260  24.486  1.00  0.00     0.260 C 
BRANCH   5   6
HETATM    6  N1  UNL     1     -15.500   4.417  23.652  1.00  0.00    -0.066 N 
ATOM      7  H12 UNL     1     -16.240   3.966  24.190  1.00  0.00     0.278 HD
ATOM      8  H11 UNL     1     -16.084   4.968  23.022  1.00  0.00     0.278 HD
BRANCH   6   9
HETATM    9  C6  UNL     1     -14.703   3.464  22.942  1.00  0.00     0.216 A 
HETATM   10  C7  UNL     1     -14.176   3.977  21.640  1.00  0.00     0.037 A 
HETATM   11  C8  UNL     1     -15.028   3.001  20.889  1.00  0.00     0.037 A 
HETATM   12  C9  UNL     1     -15.470   2.399  22.202  1.00  0.00     0.214 A 
BRANCH  12  13
HETATM   13  N2  UNL     1     -14.921   1.094  22.387  1.00  0.00    -0.073 N 
ATOM     14  H23 UNL     1     -15.150   0.486  21.601  1.00  0.00     0.274 HD
ATOM     15  H22 UNL     1     -13.905   1.108  22.294  1.00  0.00     0.274 HD
ATOM     16  H21 UNL     1     -15.201   0.670  23.271  1.00  0.00     0.274 HD
ENDBRANCH  12  13
ENDBRANCH   6   9
ENDBRANCH   5   6
ENDBRANCH   4   5
TORSDOF 4
ENDMDL
MODEL 5
REMARK VINA RESULT: -5.697358666      1.435      2.329
REMARK  4 active torsions:
REMARK  status: ('A' for Active; 'I' for Inactive)
REMARK    1  A    between atoms: C4_4  and  C5_5 
REMARK    2  A    between atoms: C5_5  and  N1_6 
REMARK    3  A    between atoms: N1_6  and  C6_9 
REMARK    4  A    between atoms: C9_12  and  N2_13 
ROOT
HETATM    1  C1  UNL     1     -11.110   4.306  23.862  1.00  0.00     0.017 C 
HETATM    2  C2  UNL     1     -12.102   4.212  24.539  1.00  0.00    -0.090 C 
HETATM    3  C3  UNL     1     -13.270   4.077  25.351  1.00  0.00     0.061 C 
HETATM    4  C4  UNL     1     -14.420   4.561  24.961  1.00  0.00     0.009 C 
ENDROOT
BRANCH   4   5
HETATM    5  C5  UNL     1     -14.519   5.261  23.664  1.00  0.00     0.260 C 
BRANCH   5   6
HETATM    6  N1  UNL     1     -15.757   4.952  22.976  1.00  0.00    -0.066 N 
ATOM      7  H12 UNL     1     -16.566   5.347  23.456  1.00  0.00     0.278 HD
ATOM      8  H11 UNL     1     -15.839   5.462  22.096  1.00  0.00     0.278 HD
BRANCH   6   9
HETATM    9  C6  UNL     1     -15.889   3.539  22.788  1.00  0.00     0.216 A 
HETATM   10  C7  UNL     1     -14.837   2.953  21.901  1.00  0.00     0.037 A 
HETATM   11  C8  UNL     1     -15.865   2.634  20.860  1.00  0.00     0.037 A 
HETATM   12  C9  UNL     1     -16.946   3.112  21.800  1.00  0.00     0.214 A 
BRANCH  12  13
HETATM   13  N2  UNL     1     -17.739   2.025  22.277  1.00  0.00    -0.073 N 
ATOM     14  H23 UNL     1     -18.436   2.348  22.949  1.00  0.00     0.274 HD
ATOM     15  H22 UNL     1     -18.362   1.679  21.548  1.00  0.00     0.274 HD
ATOM     16  H21 UNL     1     -17.177   1.269  22.669  1.00  0.00     0.274 HD
ENDBRANCH  12  13
ENDBRANCH   6   9
ENDBRANCH   5   6
ENDBRANCH   4   5
TORSDOF 4
ENDMDL
