MODEL 1
REMARK VINA RESULT: -5.677509815      0.000      0.000
REMARK  5 active torsions:
REMARK  status: ('A' for Active; 'I' for Inactive)
REMARK    1  A    between atoms: N1_1  and  C1_5 
REMARK    2  A    between atoms: C1_5  and  C2_6 
REMARK    3  A    between atoms: C2_6  and  C3_7 
REMARK    4  A    between atoms: C3_7  and  N2_8 
REMARK    5  A    between atoms: C8_13  and  N3_14 
ROOT
HETATM    1  N2  UNL     1     -14.627   4.157  23.809  1.00  0.00    -0.366 N 
HETATM    2  C4  UNL     1     -13.289   4.241  23.296  1.00  0.00     0.124 C 
HETATM    3  C5  UNL     1     -12.832   5.653  23.084  1.00  0.00     0.020 C 
HETATM    4  C6  UNL     1     -13.250   6.626  24.140  1.00  0.00     0.005 C 
HETATM    5  C7  UNL     1     -14.617   6.395  24.724  1.00  0.00     0.054 C 
HETATM    6  C8  UNL     1     -14.739   4.915  25.025  1.00  0.00     0.283 C 
ENDROOT
BRANCH   1   7
HETATM    7  C3  UNL     1     -15.678   4.253  22.880  1.00  0.00     0.062 C 
BRANCH   7   8
HETATM    8  C2  UNL     1     -15.640   3.039  21.955  1.00  0.00     0.071 C 
BRANCH   8   9
HETATM    9  C1  UNL     1     -17.032   2.796  21.392  1.00  0.00     0.234 C 
BRANCH   9  10
HETATM   10  N1  UNL     1     -17.856   2.078  22.314  1.00  0.00    -0.079 N 
ATOM     11  H13 UNL     1     -17.380   1.932  23.204  1.00  0.00     0.274 HD
ATOM     12  H12 UNL     1     -18.634   2.650  22.642  1.00  0.00     0.274 HD
ATOM     13  H11 UNL     1     -18.183   1.197  21.918  1.00  0.00     0.274 HD
ENDBRANCH   9  10
ENDBRANCH   8   9
ENDBRANCH   7   8
ENDBRANCH   1   7
BRANCH   6  14
HETATM   14  N3  UNL     1     -15.800   4.555  25.893  1.00  0.00    -0.058 N 
ATOM     15  H33 UNL     1     -16.357   5.380  26.116  1.00  0.00     0.276 HD
ATOM     16  H32 UNL     1     -16.488   4.000  25.385  1.00  0.00     0.276 HD
ATOM     17  H31 UNL     1     -15.536   4.074  26.753  1.00  0.00     0.276 HD
ENDBRANCH   6  14
TORSDOF 5
ENDMDL
MODEL 2
REMARK VINA RESULT: -5.478671655      1.615      2.175
REMARK  5 active torsions:
REMARK  status: ('A' for Active; 'I' for Inactive)
REMARK    1  A    between atoms: N1_1  and  C1_5 
REMARK    2  A    between atoms: C1_5  and  C2_6 
REMARK    3  A    between atoms: C2_6  and  C3_7 
REMARK    4  A    between atoms: C3_7  and  N2_8 
REMARK    5  A    between atoms: C8_13  and  N3_14 
ROOT
HETATM    1  N2  UNL     1     -14.033   4.797  24.052  1.00  0.00    -0.366 N 
HETATM    2  C4  UNL     1     -13.835   6.219  24.077  1.00  0.00     0.124 C 
HETATM    3  C5  UNL     1     -14.709   6.913  25.079  1.00  0.00     0.020 C 
HETATM    4  C6  UNL     1     -14.883   6.197  26.380  1.00  0.00     0.005 C 
HETATM    5  C7  UNL     1     -14.952   4.697  26.286  1.00  0.00     0.054 C 
HETATM    6  C8  UNL     1     -13.837   4.247  25.365  1.00  0.00     0.283 C 
ENDROOT
BRANCH   1   7
HETATM    7  C3  UNL     1     -15.116   4.313  23.296  1.00  0.00     0.062 C 
BRANCH   7   8
HETATM    8  C2  UNL     1     -14.585   3.662  22.021  1.00  0.00     0.071 C 
BRANCH   8   9
HETATM    9  C1  UNL     1     -15.359   2.381  21.753  1.00  0.00     0.234 C 
BRANCH   9  10
HETATM   10  N1  UNL     1     -14.932   1.318  22.608  1.00  0.00    -0.079 N 
ATOM     11  H13 UNL     1     -14.005   0.980  22.348  1.00  0.00     0.274 HD
ATOM     12  H12 UNL     1     -14.720   1.656  23.546  1.00  0.00     0.274 HD
ATOM     13  H11 UNL     1     -15.611   0.558  22.631  1.00  0.00     0.274 HD
ENDBRANCH   9  10
ENDBRANCH   8   9
ENDBRANCH   7   8
ENDBRANCH   1   7
BRANCH   6  14
HETATM   14  N3  UNL     1     -13.515   2.868  25.425  1.00  0.00    -0.058 N 
ATOM     15  H33 UNL     1     -14.182   2.334  24.867  1.00  0.00     0.276 HD
ATOM     16  H32 UNL     1     -12.656   2.692  24.906  1.00  0.00     0.276 HD
ATOM     17  H31 UNL     1     -13.443   2.462  26.359  1.00  0.00     0.276 HD
ENDBRANCH   6  14
TORSDOF 5
ENDMDL
MODEL 3
REMARK VINA RESULT: -5.475753516      1.429      3.884
REMARK  5 active torsions:
REMARK  status: ('A' for Active; 'I' for Inactive)
REMARK    1  A    between atoms: N1_1  and  C1_5 
REMARK    2  A    between atoms: C1_5  and  C2_6 
REMARK    3  A    between atoms: C2_6  and  C3_7 
REMARK    4  A    between atoms: C3_7  and  N2_8 
REMARK    5  A    between atoms: C8_13  and  N3_14 
ROOT
HETATM    1  N2  UNL     1     -14.294   4.340  23.103  1.00  0.00    -0.366 N 
HETATM    2  C4  UNL     1     -13.214   4.521  22.174  1.00  0.00     0.124 C 
HETATM    3  C5  UNL     1     -12.730   3.231  21.582  1.00  0.00     0.020 C 
HETATM    4  C6  UNL     1     -13.800   2.241  21.243  1.00  0.00     0.005 C 
HETATM    5  C7  UNL     1     -14.965   2.202  22.194  1.00  0.00     0.054 C 
HETATM    6  C8  UNL     1     -15.375   3.633  22.472  1.00  0.00     0.283 C 
ENDROOT
BRANCH   1   7
HETATM    7  C3  UNL     1     -13.956   3.977  24.418  1.00  0.00     0.062 C 
BRANCH   7   8
HETATM    8  C2  UNL     1     -13.675   5.240  25.229  1.00  0.00     0.071 C 
BRANCH   8   9
HETATM    9  C1  UNL     1     -14.898   5.578  26.068  1.00  0.00     0.234 C 
BRANCH   9  10
HETATM   10  N1  UNL     1     -15.657   4.410  26.389  1.00  0.00    -0.079 N 
ATOM     11  H13 UNL     1     -15.762   3.799  25.579  1.00  0.00     0.274 HD
ATOM     12  H12 UNL     1     -15.132   3.780  26.996  1.00  0.00     0.274 HD
ATOM     13  H11 UNL     1     -16.561   4.649  26.795  1.00  0.00     0.274 HD
ENDBRANCH   9  10
ENDBRANCH   8   9
ENDBRANCH   7   8
ENDBRANCH   1   7
BRANCH   6  14
HETATM   14  N3  UNL     1     -16.656   3.798  23.055  1.00  0.00    -0.058 N 
ATOM     15  H33 UNL     1     -16.816   3.067  23.749  1.00  0.00     0.276 HD
ATOM     16  H32 UNL     1     -16.659   4.623  23.653  1.00  0.00     0.276 HD
ATOM     17  H31 UNL     1     -17.444   3.838  22.408  1.00  0.00     0.276 HD
ENDBRANCH   6  14
TORSDOF 5
ENDMDL
MODEL 4
REMARK VINA RESULT: -5.379627019      1.403      2.576
REMARK  5 active torsions:
REMARK  status: ('A' for Active; 'I' for Inactive)
REMARK    1  A    between atoms: N1_1  and  C1_5 
REMARK    2  A    between atoms: C1_5  and  C2_6 
REMARK    3  A    between atoms: C2_6  and  C3_7 
REMARK    4  A    between atoms: C3_7  and  N2_8 
REMARK    5  A    between atoms: C8_13  and  N3_14 
ROOT
HETATM    1  N2  UNL     1     -14.089   4.490  23.639  1.00  0.00    -0.366 N 
HETATM    2  C4  UNL     1     -14.887   5.402  24.409  1.00  0.00     0.124 C 
HETATM    3  C5  UNL     1     -15.220   4.880  25.774  1.00  0.00     0.020 C 
HETATM    4  C6  UNL     1     -14.114   4.147  26.465  1.00  0.00     0.005 C 
HETATM    5  C7  UNL     1     -13.237   3.313  25.572  1.00  0.00     0.054 C 
HETATM    6  C8  UNL     1     -12.892   4.152  24.359  1.00  0.00     0.283 C 
ENDROOT
BRANCH   1   7
HETATM    7  C3  UNL     1     -14.763   3.454  22.971  1.00  0.00     0.062 C 
BRANCH   7   8
HETATM    8  C2  UNL     1     -16.094   3.983  22.440  1.00  0.00     0.071 C 
BRANCH   8   9
HETATM    9  C1  UNL     1     -16.741   2.920  21.565  1.00  0.00     0.234 C 
BRANCH   9  10
HETATM   10  N1  UNL     1     -17.731   2.178  22.281  1.00  0.00    -0.079 N 
ATOM     11  H13 UNL     1     -17.310   1.434  22.837  1.00  0.00     0.274 HD
ATOM     12  H12 UNL     1     -18.136   2.731  23.037  1.00  0.00     0.274 HD
ATOM     13  H11 UNL     1     -18.452   1.815  21.659  1.00  0.00     0.274 HD
ENDBRANCH   9  10
ENDBRANCH   8   9
ENDBRANCH   7   8
ENDBRANCH   1   7
BRANCH   6  14
HETATM   14  N3  UNL     1     -11.804   3.682  23.582  1.00  0.00    -0.058 N 
ATOM     15  H33 UNL     1     -12.112   2.909  22.991  1.00  0.00     0.276 HD
ATOM     16  H32 UNL     1     -11.565   4.373  22.871  1.00  0.00     0.276 HD
ATOM     17  H31 UNL     1     -10.966   3.412  24.096  1.00  0.00     0.276 HD
ENDBRANCH   6  14
TORSDOF 5
ENDMDL
MODEL 5
REMARK VINA RESULT: -5.288576188      1.148      1.155
REMARK  5 active torsions:
REMARK  status: ('A' for Active; 'I' for Inactive)
REMARK    1  A    between atoms: N1_1  and  C1_5 
REMARK    2  A    between atoms: C1_5  and  C2_6 
REMARK    3  A    between atoms: C2_6  and  C3_7 
REMARK    4  A    between atoms: C3_7  and  N2_8 
REMARK    5  A    between atoms: C8_13  and  N3_14 
ROOT
HETATM    1  N2  UNL     1     -14.500   4.394  24.059  1.00  0.00    -0.366 N 
HETATM    2  C4  UNL     1     -13.198   4.792  23.603  1.00  0.00     0.124 C 
HETATM    3  C5  UNL     1     -13.052   6.278  23.474  1.00  0.00     0.020 C 
HETATM    4  C6  UNL     1     -13.702   7.081  24.556  1.00  0.00     0.005 C 
HETATM    5  C7  UNL     1     -15.002   6.530  25.075  1.00  0.00     0.054 C 
HETATM    6  C8  UNL     1     -14.809   5.045  25.302  1.00  0.00     0.283 C 
ENDROOT
BRANCH   1   7
HETATM    7  C3  UNL     1     -15.519   4.311  23.094  1.00  0.00     0.062 C 
BRANCH   7   8
HETATM    8  C2  UNL     1     -14.964   3.652  21.834  1.00  0.00     0.071 C 
BRANCH   8   9
HETATM    9  C1  UNL     1     -15.573   2.267  21.684  1.00  0.00     0.234 C 
BRANCH   9  10
HETATM   10  N1  UNL     1     -14.951   1.319  22.555  1.00  0.00    -0.079 N 
ATOM     11  H13 UNL     1     -15.632   0.875  23.170  1.00  0.00     0.274 HD
ATOM     12  H12 UNL     1     -14.636   0.494  22.045  1.00  0.00     0.274 HD
ATOM     13  H11 UNL     1     -14.190   1.741  23.087  1.00  0.00     0.274 HD
ENDBRANCH   9  10
ENDBRANCH   8   9
ENDBRANCH   7   8
ENDBRANCH   1   7
BRANCH   6  14
HETATM   14  N3  UNL     1     -15.790   4.419  26.110  1.00  0.00    -0.058 N 
ATOM     15  H33 UNL     1     -16.147   5.085  26.796  1.00  0.00     0.276 HD
ATOM     16  H32 UNL     1     -16.633   4.251  25.561  1.00  0.00     0.276 HD
ATOM     17  H31 UNL     1     -15.507   3.558  26.579  1.00  0.00     0.276 HD
ENDBRANCH   6  14
TORSDOF 5
ENDMDL
