MODEL 1
REMARK VINA RESULT: -6.469641494      0.000      0.000
REMARK  5 active torsions:
REMARK  status: ('A' for Active; 'I' for Inactive)
REMARK    1  A    between atoms: N1_2  and  C2_3 
REMARK    2  A    between atoms: N1_2  and  C7_8 
REMARK    3  A    between atoms: C7_8  and  N2_9 
REMARK    4  A    between atoms: C7_8  and  C8_13 
REMARK    5  A    between atoms: C8_13  and  O1_17 
ROOT
HETATM    1  C7  UNL     1     -15.345   2.515  21.802  1.00  0.00     0.354 C 
ENDROOT
BRANCH   1   2
HETATM    2  N1  UNL     1     -14.546   3.519  22.349  1.00  0.00    -0.380 N 
HETATM    3  C1  UNL     1     -13.547   4.140  21.593  1.00  0.00     0.146 C 
BRANCH   2   4
HETATM    4  C2  UNL     1     -14.700   3.981  23.651  1.00  0.00     0.081 C 
HETATM    5  C3  UNL     1     -14.895   5.454  23.857  1.00  0.00     0.025 C 
HETATM    6  C4  UNL     1     -14.777   5.588  25.364  1.00  0.00     0.002 C 
HETATM    7  C5  UNL     1     -14.024   4.372  25.845  1.00  0.00     0.002 C 
HETATM    8  C6  UNL     1     -13.548   3.678  24.586  1.00  0.00     0.025 C 
ENDBRANCH   2   4
ENDBRANCH   1   2
BRANCH   1   9
HETATM    9  N2  UNL     1     -15.367   1.291  22.618  1.00  0.00    -0.051 N 
ATOM     10  H23 UNL     1     -14.990   1.467  23.549  1.00  0.00     0.277 HD
ATOM     11  H22 UNL     1     -16.322   1.038  22.870  1.00  0.00     0.277 HD
ATOM     12  H21 UNL     1     -14.887   0.508  22.172  1.00  0.00     0.277 HD
ENDBRANCH   1   9
BRANCH   1  13
HETATM   13  C8  UNL     1     -16.759   2.989  21.748  1.00  0.00     0.160 C 
HETATM   14  N3  UNL     1     -17.651   2.207  22.243  1.00  0.00    -0.380 N 
ATOM     15  H32 UNL     1     -17.358   1.316  22.644  1.00  0.00     0.158 HD
ATOM     16  H31 UNL     1     -18.617   2.532  22.206  1.00  0.00     0.158 HD
BRANCH  13  17
HETATM   17  O1  UNL     1     -17.155   4.196  21.206  1.00  0.00    -0.347 OA
ATOM     18  H1  UNL     1     -17.858   4.294  20.574  1.00  0.00     0.219 HD
ENDBRANCH  13  17
ENDBRANCH   1  13
TORSDOF 5
ENDMDL
MODEL 2
REMARK VINA RESULT: -6.299802958      1.204      2.662
REMARK  5 active torsions:
REMARK  status: ('A' for Active; 'I' for Inactive)
REMARK    1  A    between atoms: N1_2  and  C2_3 
REMARK    2  A    between atoms: N1_2  and  C7_8 
REMARK    3  A    between atoms: C7_8  and  N2_9 
REMARK    4  A    between atoms: C7_8  and  C8_13 
REMARK    5  A    between atoms: C8_13  and  O1_17 
ROOT
HETATM    1  C7  UNL     1     -15.368   2.640  21.834  1.00  0.00     0.354 C 
ENDROOT
BRANCH   1   2
HETATM    2  N1  UNL     1     -14.690   3.688  22.458  1.00  0.00    -0.380 N 
HETATM    3  C1  UNL     1     -15.154   4.235  23.659  1.00  0.00     0.146 C 
BRANCH   2   4
HETATM    4  C2  UNL     1     -13.517   4.234  21.954  1.00  0.00     0.081 C 
HETATM    5  C3  UNL     1     -12.339   3.324  21.769  1.00  0.00     0.025 C 
HETATM    6  C4  UNL     1     -11.222   4.301  21.451  1.00  0.00     0.002 C 
HETATM    7  C5  UNL     1     -11.662   5.643  21.981  1.00  0.00     0.002 C 
HETATM    8  C6  UNL     1     -12.923   5.361  22.772  1.00  0.00     0.025 C 
ENDBRANCH   2   4
ENDBRANCH   1   2
BRANCH   1   9
HETATM    9  N2  UNL     1     -15.342   1.394  22.616  1.00  0.00    -0.051 N 
ATOM     10  H23 UNL     1     -15.137   0.593  22.018  1.00  0.00     0.277 HD
ATOM     11  H22 UNL     1     -14.522   1.362  23.222  1.00  0.00     0.277 HD
ATOM     12  H21 UNL     1     -16.197   1.241  23.149  1.00  0.00     0.277 HD
ENDBRANCH   1   9
BRANCH   1  13
HETATM   13  C8  UNL     1     -16.810   3.002  21.700  1.00  0.00     0.160 C 
HETATM   14  N3  UNL     1     -17.662   2.182  22.205  1.00  0.00    -0.380 N 
ATOM     15  H32 UNL     1     -17.321   1.338  22.667  1.00  0.00     0.158 HD
ATOM     16  H31 UNL     1     -18.647   2.429  22.113  1.00  0.00     0.158 HD
BRANCH  13  17
HETATM   17  O1  UNL     1     -17.271   4.143  21.075  1.00  0.00    -0.347 OA
ATOM     18  H1  UNL     1     -17.504   4.945  21.528  1.00  0.00     0.219 HD
ENDBRANCH  13  17
ENDBRANCH   1  13
TORSDOF 5
ENDMDL
MODEL 3
REMARK VINA RESULT: -6.205553923      1.194      2.125
REMARK  5 active torsions:
REMARK  status: ('A' for Active; 'I' for Inactive)
REMARK    1  A    between atoms: N1_2  and  C2_3 
REMARK    2  A    between atoms: N1_2  and  C7_8 
REMARK    3  A    between atoms: C7_8  and  N2_9 
REMARK    4  A    between atoms: C7_8  and  C8_13 
REMARK    5  A    between atoms: C8_13  and  O1_17 
ROOT
HETATM    1  C7  UNL     1     -15.430   2.657  21.891  1.00  0.00     0.354 C 
ENDROOT
BRANCH   1   2
HETATM    2  N1  UNL     1     -14.853   3.594  22.749  1.00  0.00    -0.380 N 
HETATM    3  C1  UNL     1     -15.626   4.586  23.361  1.00  0.00     0.146 C 
BRANCH   2   4
HETATM    4  C2  UNL     1     -13.501   3.592  23.069  1.00  0.00     0.081 C 
HETATM    5  C3  UNL     1     -13.045   4.459  24.206  1.00  0.00     0.025 C 
HETATM    6  C4  UNL     1     -11.534   4.380  24.087  1.00  0.00     0.002 C 
HETATM    7  C5  UNL     1     -11.237   3.963  22.668  1.00  0.00     0.002 C 
HETATM    8  C6  UNL     1     -12.571   4.017  21.953  1.00  0.00     0.025 C 
ENDBRANCH   2   4
ENDBRANCH   1   2
BRANCH   1   9
HETATM    9  N2  UNL     1     -15.374   1.285  22.420  1.00  0.00    -0.051 N 
ATOM     10  H23 UNL     1     -15.154   0.619  21.680  1.00  0.00     0.277 HD
ATOM     11  H22 UNL     1     -14.553   1.156  23.011  1.00  0.00     0.277 HD
ATOM     12  H21 UNL     1     -16.226   1.014  22.912  1.00  0.00     0.277 HD
ENDBRANCH   1   9
BRANCH   1  13
HETATM   13  C8  UNL     1     -16.881   2.970  21.730  1.00  0.00     0.160 C 
HETATM   14  N3  UNL     1     -17.712   2.163  22.289  1.00  0.00    -0.380 N 
ATOM     15  H32 UNL     1     -17.349   1.362  22.808  1.00  0.00     0.158 HD
ATOM     16  H31 UNL     1     -18.703   2.377  22.178  1.00  0.00     0.158 HD
BRANCH  13  17
HETATM   17  O1  UNL     1     -17.370   4.053  21.028  1.00  0.00    -0.347 OA
ATOM     18  H1  UNL     1     -18.273   4.145  20.746  1.00  0.00     0.219 HD
ENDBRANCH  13  17
ENDBRANCH   1  13
TORSDOF 5
ENDMDL
MODEL 4
REMARK VINA RESULT: -5.790519355      1.230      1.580
REMARK  5 active torsions:
REMARK  status: ('A' for Active; 'I' for Inactive)
REMARK    1  A    between atoms: N1_2  and  C2_3 
REMARK    2  A    between atoms: N1_2  and  C7_8 
REMARK    3  A    between atoms: C7_8  and  N2_9 
REMARK    4  A    between atoms: C7_8  and  C8_13 
REMARK    5  A    between atoms: C8_13  and  O1_17 
ROOT
HETATM    1  C7  UNL     1     -15.281   4.123  22.115  1.00  0.00     0.354 C 
ENDROOT
BRANCH   1   2
HETATM    2  N1  UNL     1     -14.428   4.257  23.211  1.00  0.00    -0.380 N 
HETATM    3  C1  UNL     1     -13.079   3.899  23.123  1.00  0.00     0.146 C 
BRANCH   2   4
HETATM    4  C2  UNL     1     -14.844   4.766  24.434  1.00  0.00     0.081 C 
HETATM    5  C3  UNL     1     -14.736   6.246  24.654  1.00  0.00     0.025 C 
HETATM    6  C4  UNL     1     -15.040   6.376  26.136  1.00  0.00     0.002 C 
HETATM    7  C5  UNL     1     -14.774   5.023  26.748  1.00  0.00     0.002 C 
HETATM    8  C6  UNL     1     -14.126   4.211  25.646  1.00  0.00     0.025 C 
ENDBRANCH   2   4
ENDBRANCH   1   2
BRANCH   1   9
HETATM    9  N2  UNL     1     -14.594   3.634  20.910  1.00  0.00    -0.051 N 
ATOM     10  H23 UNL     1     -13.617   3.419  21.109  1.00  0.00     0.277 HD
ATOM     11  H22 UNL     1     -14.922   2.702  20.657  1.00  0.00     0.277 HD
ATOM     12  H21 UNL     1     -14.672   4.275  20.120  1.00  0.00     0.277 HD
ENDBRANCH   1   9
BRANCH   1  13
HETATM   13  C8  UNL     1     -16.324   3.102  22.428  1.00  0.00     0.160 C 
HETATM   14  N3  UNL     1     -15.966   1.869  22.355  1.00  0.00    -0.380 N 
ATOM     15  H32 UNL     1     -15.005   1.649  22.093  1.00  0.00     0.158 HD
ATOM     16  H31 UNL     1     -16.679   1.172  22.569  1.00  0.00     0.158 HD
BRANCH  13  17
HETATM   17  O1  UNL     1     -17.624   3.401  22.783  1.00  0.00    -0.347 OA
ATOM     18  H1  UNL     1     -18.214   3.929  22.260  1.00  0.00     0.219 HD
ENDBRANCH  13  17
ENDBRANCH   1  13
TORSDOF 5
ENDMDL
MODEL 5
REMARK VINA RESULT: -5.756729913      1.477      2.350
REMARK  5 active torsions:
REMARK  status: ('A' for Active; 'I' for Inactive)
REMARK    1  A    between atoms: N1_2  and  C2_3 
REMARK    2  A    between atoms: N1_2  and  C7_8 
REMARK    3  A    between atoms: C7_8  and  N2_9 
REMARK    4  A    between atoms: C7_8  and  C8_13 
REMARK    5  A    between atoms: C8_13  and  O1_17 
ROOT
HETATM    1  C7  UNL     1     -14.537   4.026  22.626  1.00  0.00     0.354 C 
ENDROOT
BRANCH   1   2
HETATM    2  N1  UNL     1     -14.288   4.512  23.909  1.00  0.00    -0.380 N 
HETATM    3  C1  UNL     1     -13.596   3.744  24.851  1.00  0.00     0.146 C 
BRANCH   2   4
HETATM    4  C2  UNL     1     -14.680   5.778  24.327  1.00  0.00     0.081 C 
HETATM    5  C3  UNL     1     -13.789   6.937  23.992  1.00  0.00     0.025 C 
HETATM    6  C4  UNL     1     -14.406   8.063  24.802  1.00  0.00     0.002 C 
HETATM    7  C5  UNL     1     -15.209   7.412  25.900  1.00  0.00     0.002 C 
HETATM    8  C6  UNL     1     -14.865   5.939  25.821  1.00  0.00     0.025 C 
ENDBRANCH   2   4
ENDBRANCH   1   2
BRANCH   1   9
HETATM    9  N2  UNL     1     -13.509   3.083  22.160  1.00  0.00    -0.051 N 
ATOM     10  H23 UNL     1     -12.757   2.996  22.844  1.00  0.00     0.277 HD
ATOM     11  H22 UNL     1     -13.859   2.125  22.176  1.00  0.00     0.277 HD
ATOM     12  H21 UNL     1     -13.138   3.321  21.240  1.00  0.00     0.277 HD
ENDBRANCH   1   9
BRANCH   1  13
HETATM   13  C8  UNL     1     -15.817   3.258  22.633  1.00  0.00     0.160 C 
HETATM   14  N3  UNL     1     -15.754   2.026  22.269  1.00  0.00    -0.380 N 
ATOM     15  H32 UNL     1     -14.850   1.637  21.998  1.00  0.00     0.158 HD
ATOM     16  H31 UNL     1     -16.629   1.502  22.275  1.00  0.00     0.158 HD
BRANCH  13  17
HETATM   17  O1  UNL     1     -17.039   3.785  23.001  1.00  0.00    -0.347 OA
ATOM     18  H1  UNL     1     -17.729   4.013  22.389  1.00  0.00     0.219 HD
ENDBRANCH  13  17
ENDBRANCH   1  13
TORSDOF 5
ENDMDL
