MODEL 1
REMARK VINA RESULT: -5.240896347      0.000      0.000
REMARK  2 active torsions:
REMARK  status: ('A' for Active; 'I' for Inactive)
REMARK    1  A    between atoms: C2_2  and  C3_4 
REMARK    2  A    between atoms: C3_4  and  C4_5 
ROOT
HETATM    1  C3  UNL     1     -14.549   4.542  23.887  1.00  0.00     0.124 C 
HETATM    2  C7  UNL     1     -14.270   6.031  23.770  1.00  0.00     0.049 C 
HETATM    3  C8  UNL     1     -12.754   6.065  23.808  1.00  0.00     0.030 C 
HETATM    4  C9  UNL     1     -12.463   4.688  23.196  1.00  0.00     0.169 C 
HETATM    5  O2  UNL     1     -13.317   3.908  23.976  1.00  0.00    -0.372 OA
ENDROOT
BRANCH   1   6
HETATM    6  C2  UNL     1     -15.242   4.077  22.667  1.00  0.00     0.157 C 
HETATM    7  C1  UNL     1     -14.877   2.789  22.058  1.00  0.00     0.094 C 
HETATM    8  O1  UNL     1     -16.112   4.760  22.171  1.00  0.00    -0.295 OA
ENDBRANCH   1   6
BRANCH   1   9
HETATM    9  C4  UNL     1     -15.390   4.234  25.104  1.00  0.00     0.028 A 
HETATM   10  C5  UNL     1     -15.167   4.930  26.390  1.00  0.00     0.008 A 
HETATM   11  C6  UNL     1     -14.630   3.569  26.248  1.00  0.00     0.008 A 
ENDBRANCH   1   9
TORSDOF 2
ENDMDL
MODEL 2
REMARK VINA RESULT: -5.201316585      1.623      3.376
REMARK  2 active torsions:
REMARK  status: ('A' for Active; 'I' for Inactive)
REMARK    1  A    between atoms: C2_2  and  C3_4 
REMARK    2  A    between atoms: C3_4  and  C4_5 
ROOT
HETATM    1  C3  UNL     1     -14.065   4.004  22.535  1.00  0.00     0.124 C 
HETATM    2  C7  UNL     1     -14.843   5.104  23.237  1.00  0.00     0.049 C 
HETATM    3  C8  UNL     1     -15.110   4.477  24.592  1.00  0.00     0.030 C 
HETATM    4  C9  UNL     1     -13.880   3.561  24.684  1.00  0.00     0.169 C 
HETATM    5  O2  UNL     1     -13.958   2.951  23.433  1.00  0.00    -0.372 OA
ENDROOT
BRANCH   1   6
HETATM    6  C2  UNL     1     -12.710   4.496  22.208  1.00  0.00     0.157 C 
HETATM    7  C1  UNL     1     -11.699   3.571  21.671  1.00  0.00     0.094 C 
HETATM    8  O1  UNL     1     -12.434   5.663  22.383  1.00  0.00    -0.295 OA
ENDBRANCH   1   6
BRANCH   1   9
HETATM    9  C4  UNL     1     -14.765   3.555  21.274  1.00  0.00     0.028 A 
HETATM   10  C5  UNL     1     -16.154   3.046  21.305  1.00  0.00     0.008 A 
HETATM   11  C6  UNL     1     -15.067   2.060  21.215  1.00  0.00     0.008 A 
ENDBRANCH   1   9
TORSDOF 2
ENDMDL
MODEL 3
REMARK VINA RESULT: -5.198420494      1.462      3.169
REMARK  2 active torsions:
REMARK  status: ('A' for Active; 'I' for Inactive)
REMARK    1  A    between atoms: C2_2  and  C3_4 
REMARK    2  A    between atoms: C3_4  and  C4_5 
ROOT
HETATM    1  C3  UNL     1     -14.326   4.198  22.587  1.00  0.00     0.124 C 
HETATM    2  C7  UNL     1     -13.957   3.183  23.656  1.00  0.00     0.049 C 
HETATM    3  C8  UNL     1     -13.967   4.036  24.910  1.00  0.00     0.030 C 
HETATM    4  C9  UNL     1     -15.009   5.081  24.486  1.00  0.00     0.169 C 
HETATM    5  O2  UNL     1     -14.497   5.415  23.233  1.00  0.00    -0.372 OA
ENDROOT
BRANCH   1   6
HETATM    6  C2  UNL     1     -15.604   3.804  21.958  1.00  0.00     0.157 C 
HETATM    7  C1  UNL     1     -15.780   2.438  21.441  1.00  0.00     0.094 C 
HETATM    8  O1  UNL     1     -16.506   4.608  21.869  1.00  0.00    -0.295 OA
ENDBRANCH   1   6
BRANCH   1   9
HETATM    9  C4  UNL     1     -13.247   4.305  21.535  1.00  0.00     0.028 A 
HETATM   10  C5  UNL     1     -11.895   3.747  21.759  1.00  0.00     0.008 A 
HETATM   11  C6  UNL     1     -12.071   5.197  21.922  1.00  0.00     0.008 A 
ENDBRANCH   1   9
TORSDOF 2
ENDMDL
MODEL 4
REMARK VINA RESULT: -5.134896762      1.372      3.102
REMARK  2 active torsions:
REMARK  status: ('A' for Active; 'I' for Inactive)
REMARK    1  A    between atoms: C2_2  and  C3_4 
REMARK    2  A    between atoms: C3_4  and  C4_5 
ROOT
HETATM    1  C3  UNL     1     -14.130   4.347  23.958  1.00  0.00     0.124 C 
HETATM    2  C7  UNL     1     -12.633   4.606  23.953  1.00  0.00     0.049 C 
HETATM    3  C8  UNL     1     -12.579   6.107  23.746  1.00  0.00     0.030 C 
HETATM    4  C9  UNL     1     -13.911   6.492  24.405  1.00  0.00     0.169 C 
HETATM    5  O2  UNL     1     -14.750   5.575  23.773  1.00  0.00    -0.372 OA
ENDROOT
BRANCH   1   6
HETATM    6  C2  UNL     1     -14.527   3.801  25.273  1.00  0.00     0.157 C 
HETATM    7  C1  UNL     1     -13.751   2.710  25.883  1.00  0.00     0.094 C 
HETATM    8  O1  UNL     1     -15.494   4.254  25.846  1.00  0.00    -0.295 OA
ENDBRANCH   1   6
BRANCH   1   9
HETATM    9  C4  UNL     1     -14.526   3.385  22.862  1.00  0.00     0.028 A 
HETATM   10  C5  UNL     1     -14.434   3.765  21.435  1.00  0.00     0.008 A 
HETATM   11  C6  UNL     1     -15.760   3.802  22.068  1.00  0.00     0.008 A 
ENDBRANCH   1   9
TORSDOF 2
ENDMDL
MODEL 5
REMARK VINA RESULT: -5.133969632      1.554      3.461
REMARK  2 active torsions:
REMARK  status: ('A' for Active; 'I' for Inactive)
REMARK    1  A    between atoms: C2_2  and  C3_4 
REMARK    2  A    between atoms: C3_4  and  C4_5 
ROOT
HETATM    1  C3  UNL     1     -14.138   3.975  22.522  1.00  0.00     0.124 C 
HETATM    2  C7  UNL     1     -14.665   5.199  23.252  1.00  0.00     0.049 C 
HETATM    3  C8  UNL     1     -14.962   4.634  24.628  1.00  0.00     0.030 C 
HETATM    4  C9  UNL     1     -13.914   3.513  24.663  1.00  0.00     0.169 C 
HETATM    5  O2  UNL     1     -14.172   2.923  23.426  1.00  0.00    -0.372 OA
ENDROOT
BRANCH   1   6
HETATM    6  C2  UNL     1     -12.738   4.214  22.114  1.00  0.00     0.157 C 
HETATM    7  C1  UNL     1     -12.157   5.561  22.228  1.00  0.00     0.094 C 
HETATM    8  O1  UNL     1     -12.070   3.298  21.685  1.00  0.00    -0.295 OA
ENDBRANCH   1   6
BRANCH   1   9
HETATM    9  C4  UNL     1     -14.979   3.655  21.308  1.00  0.00     0.028 A 
HETATM   10  C5  UNL     1     -16.359   3.138  21.442  1.00  0.00     0.008 A 
HETATM   11  C6  UNL     1     -15.295   2.173  21.129  1.00  0.00     0.008 A 
ENDBRANCH   1   9
TORSDOF 2
ENDMDL
