MODEL 1
REMARK VINA RESULT: -5.798759979      0.000      0.000
REMARK  2 active torsions:
REMARK  status: ('A' for Active; 'I' for Inactive)
REMARK    1  A    between atoms: O1_2  and  C2_3 
REMARK    2  A    between atoms: C7_8  and  C8_9 
ROOT
HETATM    1  C2  UNL     1     -14.353   4.485  23.836  1.00  0.00     0.132 C 
HETATM    2  C3  UNL     1     -13.095   4.000  24.581  1.00  0.00     0.033 C 
HETATM    3  C4  UNL     1     -11.856   4.254  23.774  1.00  0.00     0.002 C 
HETATM    4  C5  UNL     1     -11.947   3.854  22.345  1.00  0.00     0.001 C 
HETATM    5  C6  UNL     1     -13.217   4.379  21.710  1.00  0.00     0.015 C 
HETATM    6  C7  UNL     1     -14.350   3.764  22.545  1.00  0.00     0.084 C 
ENDROOT
BRANCH   6   7
HETATM    7  C8  UNL     1     -15.598   3.671  21.806  1.00  0.00     0.129 C 
HETATM    8  C9  UNL     1     -15.800   2.452  20.948  1.00  0.00     0.091 C 
HETATM    9  O2  UNL     1     -16.490   4.468  21.807  1.00  0.00    -0.298 OA
ENDBRANCH   6   7
BRANCH   1  10
HETATM   10  O1  UNL     1     -15.411   4.271  24.674  1.00  0.00    -0.390 OA
HETATM   11  C1  UNL     1     -15.049   4.079  25.983  1.00  0.00     0.202 C 
ENDBRANCH   1  10
TORSDOF 2
ENDMDL
MODEL 2
REMARK VINA RESULT: -5.447162887      1.525      3.346
REMARK  2 active torsions:
REMARK  status: ('A' for Active; 'I' for Inactive)
REMARK    1  A    between atoms: O1_2  and  C2_3 
REMARK    2  A    between atoms: C7_8  and  C8_9 
ROOT
HETATM    1  C2  UNL     1     -14.873   3.868  23.216  1.00  0.00     0.132 C 
HETATM    2  C3  UNL     1     -16.230   3.943  22.494  1.00  0.00     0.033 C 
HETATM    3  C4  UNL     1     -16.353   2.865  21.457  1.00  0.00     0.002 C 
HETATM    4  C5  UNL     1     -15.167   2.708  20.575  1.00  0.00     0.001 C 
HETATM    5  C6  UNL     1     -13.888   2.647  21.383  1.00  0.00     0.015 C 
HETATM    6  C7  UNL     1     -13.852   3.977  22.151  1.00  0.00     0.084 C 
ENDROOT
BRANCH   6   7
HETATM    7  C8  UNL     1     -12.503   4.365  22.528  1.00  0.00     0.129 C 
HETATM    8  C9  UNL     1     -11.861   5.474  21.739  1.00  0.00     0.091 C 
HETATM    9  O2  UNL     1     -11.842   3.894  23.406  1.00  0.00    -0.298 OA
ENDBRANCH   6   7
BRANCH   1  10
HETATM   10  O1  UNL     1     -14.886   4.842  24.175  1.00  0.00    -0.390 OA
HETATM   11  C1  UNL     1     -14.986   4.356  25.455  1.00  0.00     0.202 C 
ENDBRANCH   1  10
TORSDOF 2
ENDMDL
MODEL 3
REMARK VINA RESULT: -5.434338792      1.572      3.804
REMARK  2 active torsions:
REMARK  status: ('A' for Active; 'I' for Inactive)
REMARK    1  A    between atoms: O1_2  and  C2_3 
REMARK    2  A    between atoms: C7_8  and  C8_9 
ROOT
HETATM    1  C2  UNL     1     -13.744   3.934  22.197  1.00  0.00     0.132 C 
HETATM    2  C3  UNL     1     -13.854   2.629  21.388  1.00  0.00     0.033 C 
HETATM    3  C4  UNL     1     -15.193   2.515  20.721  1.00  0.00     0.002 C 
HETATM    4  C5  UNL     1     -16.355   2.826  21.594  1.00  0.00     0.001 C 
HETATM    5  C6  UNL     1     -16.145   4.125  22.343  1.00  0.00     0.015 C 
HETATM    6  C7  UNL     1     -14.865   3.898  23.161  1.00  0.00     0.084 C 
ENDROOT
BRANCH   6   7
HETATM    7  C8  UNL     1     -14.793   4.755  24.332  1.00  0.00     0.129 C 
HETATM    8  C9  UNL     1     -14.971   4.101  25.676  1.00  0.00     0.091 C 
HETATM    9  O2  UNL     1     -14.606   5.936  24.343  1.00  0.00    -0.298 OA
ENDBRANCH   6   7
BRANCH   1  10
HETATM   10  O1  UNL     1     -12.477   3.973  22.707  1.00  0.00    -0.390 OA
HETATM   11  C1  UNL     1     -11.503   3.655  21.794  1.00  0.00     0.202 C 
ENDBRANCH   1  10
TORSDOF 2
ENDMDL
MODEL 4
REMARK VINA RESULT: -5.404500844      1.174      3.344
REMARK  2 active torsions:
REMARK  status: ('A' for Active; 'I' for Inactive)
REMARK    1  A    between atoms: O1_2  and  C2_3 
REMARK    2  A    between atoms: C7_8  and  C8_9 
ROOT
HETATM    1  C2  UNL     1     -14.974   3.803  23.038  1.00  0.00     0.132 C 
HETATM    2  C3  UNL     1     -14.288   4.044  21.681  1.00  0.00     0.033 C 
HETATM    3  C4  UNL     1     -12.816   3.764  21.760  1.00  0.00     0.002 C 
HETATM    4  C5  UNL     1     -12.129   4.355  22.938  1.00  0.00     0.001 C 
HETATM    5  C6  UNL     1     -12.885   4.061  24.217  1.00  0.00     0.015 C 
HETATM    6  C7  UNL     1     -14.272   4.683  23.998  1.00  0.00     0.084 C 
ENDROOT
BRANCH   6   7
HETATM    7  C8  UNL     1     -14.939   5.009  25.247  1.00  0.00     0.129 C 
HETATM    8  C9  UNL     1     -15.051   6.465  25.607  1.00  0.00     0.091 C 
HETATM    9  O2  UNL     1     -15.414   4.236  26.026  1.00  0.00    -0.298 OA
ENDBRANCH   6   7
BRANCH   1  10
HETATM   10  O1  UNL     1     -16.309   4.022  22.845  1.00  0.00    -0.390 OA
HETATM   11  C1  UNL     1     -16.875   3.196  21.906  1.00  0.00     0.202 C 
ENDBRANCH   1  10
TORSDOF 2
ENDMDL
MODEL 5
REMARK VINA RESULT: -5.370089018      1.097      3.189
REMARK  2 active torsions:
REMARK  status: ('A' for Active; 'I' for Inactive)
REMARK    1  A    between atoms: O1_2  and  C2_3 
REMARK    2  A    between atoms: C7_8  and  C8_9 
ROOT
HETATM    1  C2  UNL     1     -14.942   3.815  22.883  1.00  0.00     0.132 C 
HETATM    2  C3  UNL     1     -14.263   3.862  21.502  1.00  0.00     0.033 C 
HETATM    3  C4  UNL     1     -12.804   3.529  21.603  1.00  0.00     0.002 C 
HETATM    4  C5  UNL     1     -12.078   4.224  22.697  1.00  0.00     0.001 C 
HETATM    5  C6  UNL     1     -12.829   4.118  24.007  1.00  0.00     0.015 C 
HETATM    6  C7  UNL     1     -14.191   4.770  23.726  1.00  0.00     0.084 C 
ENDROOT
BRANCH   6   7
HETATM    7  C8  UNL     1     -14.827   5.271  24.932  1.00  0.00     0.129 C 
HETATM    8  C9  UNL     1     -15.194   4.263  25.987  1.00  0.00     0.091 C 
HETATM    9  O2  UNL     1     -15.093   6.411  25.179  1.00  0.00    -0.298 OA
ENDBRANCH   6   7
BRANCH   1  10
HETATM   10  O1  UNL     1     -16.269   4.067  22.676  1.00  0.00    -0.390 OA
HETATM   11  C1  UNL     1     -16.890   3.141  21.876  1.00  0.00     0.202 C 
ENDBRANCH   1  10
TORSDOF 2
ENDMDL
