MODEL 1
REMARK VINA RESULT: -5.008835342      0.000      0.000
REMARK  2 active torsions:
REMARK  status: ('A' for Active; 'I' for Inactive)
REMARK    1  A    between atoms: C7_7  and  O1_8 
REMARK    2  A    between atoms: C7_7  and  O2_10 
ROOT
HETATM    1  C1  UNL     1     -13.473   7.757  23.957  1.00  0.00     0.098 C 
HETATM    2  C2  UNL     1     -13.138   6.619  23.663  1.00  0.00    -0.172 C 
HETATM    3  C3  UNL     1     -12.721   5.300  23.349  1.00  0.00     0.064 C 
HETATM    4  C4  UNL     1     -11.491   4.804  24.120  1.00  0.00     0.034 C 
HETATM    5  C5  UNL     1     -12.526   4.999  21.900  1.00  0.00     0.032 C 
HETATM    6  C6  UNL     1     -13.206   3.641  22.224  1.00  0.00     0.072 C 
HETATM    7  C7  UNL     1     -13.878   4.286  23.406  1.00  0.00     0.180 C 
ENDROOT
BRANCH   7   8
HETATM    8  O1  UNL     1     -15.135   4.744  23.241  1.00  0.00    -0.358 OA
HETATM    9  C8  UNL     1     -16.059   4.059  22.555  1.00  0.00     0.205 C 
ENDBRANCH   7   8
BRANCH   7  10
HETATM   10  O2  UNL     1     -13.746   3.661  24.644  1.00  0.00    -0.358 OA
HETATM   11  C9  UNL     1     -14.761   3.982  25.528  1.00  0.00     0.205 C 
ENDBRANCH   7  10
TORSDOF 2
ENDMDL
MODEL 2
REMARK VINA RESULT: -4.641271562      1.142      2.449
REMARK  2 active torsions:
REMARK  status: ('A' for Active; 'I' for Inactive)
REMARK    1  A    between atoms: C7_7  and  O1_8 
REMARK    2  A    between atoms: C7_7  and  O2_10 
ROOT
HETATM    1  C1  UNL     1     -15.359   4.589  26.323  1.00  0.00     0.098 C 
HETATM    2  C2  UNL     1     -14.532   4.636  25.424  1.00  0.00    -0.172 C 
HETATM    3  C3  UNL     1     -13.551   4.662  24.399  1.00  0.00     0.064 C 
HETATM    4  C4  UNL     1     -12.333   3.763  24.640  1.00  0.00     0.034 C 
HETATM    5  C5  UNL     1     -13.071   6.012  23.984  1.00  0.00     0.032 C 
HETATM    6  C6  UNL     1     -13.132   5.446  22.539  1.00  0.00     0.072 C 
HETATM    7  C7  UNL     1     -14.155   4.443  23.000  1.00  0.00     0.180 C 
ENDROOT
BRANCH   7   8
HETATM    8  O1  UNL     1     -15.455   4.743  22.813  1.00  0.00    -0.358 OA
HETATM    9  C8  UNL     1     -16.370   3.806  22.529  1.00  0.00     0.205 C 
ENDBRANCH   7   8
BRANCH   7  10
HETATM   10  O2  UNL     1     -13.918   3.101  22.713  1.00  0.00    -0.358 OA
HETATM   11  C9  UNL     1     -13.640   2.870  21.378  1.00  0.00     0.205 C 
ENDBRANCH   7  10
TORSDOF 2
ENDMDL
MODEL 3
REMARK VINA RESULT: -4.637801695      1.528      2.836
REMARK  2 active torsions:
REMARK  status: ('A' for Active; 'I' for Inactive)
REMARK    1  A    between atoms: C7_7  and  O1_8 
REMARK    2  A    between atoms: C7_7  and  O2_10 
ROOT
HETATM    1  C1  UNL     1     -14.556   3.519  21.058  1.00  0.00     0.098 C 
HETATM    2  C2  UNL     1     -13.647   3.957  21.747  1.00  0.00    -0.172 C 
HETATM    3  C3  UNL     1     -12.591   4.499  22.523  1.00  0.00     0.064 C 
HETATM    4  C4  UNL     1     -12.069   5.862  22.053  1.00  0.00     0.034 C 
HETATM    5  C5  UNL     1     -11.424   3.601  22.765  1.00  0.00     0.032 C 
HETATM    6  C6  UNL     1     -11.449   4.172  24.209  1.00  0.00     0.072 C 
HETATM    7  C7  UNL     1     -12.907   4.498  24.030  1.00  0.00     0.180 C 
ENDROOT
BRANCH   7   8
HETATM    8  O1  UNL     1     -13.809   3.609  24.491  1.00  0.00    -0.358 OA
HETATM    9  C8  UNL     1     -13.607   2.901  25.610  1.00  0.00     0.205 C 
ENDBRANCH   7   8
BRANCH   7  10
HETATM   10  O2  UNL     1     -13.317   5.798  24.312  1.00  0.00    -0.358 OA
HETATM   11  C9  UNL     1     -14.601   5.867  24.822  1.00  0.00     0.205 C 
ENDBRANCH   7  10
TORSDOF 2
ENDMDL
MODEL 4
REMARK VINA RESULT: -4.536857541      1.590      2.133
REMARK  2 active torsions:
REMARK  status: ('A' for Active; 'I' for Inactive)
REMARK    1  A    between atoms: C7_7  and  O1_8 
REMARK    2  A    between atoms: C7_7  and  O2_10 
ROOT
HETATM    1  C1  UNL     1     -11.888   7.518  23.508  1.00  0.00     0.098 C 
HETATM    2  C2  UNL     1     -12.547   6.495  23.616  1.00  0.00    -0.172 C 
HETATM    3  C3  UNL     1     -13.280   5.288  23.754  1.00  0.00     0.064 C 
HETATM    4  C4  UNL     1     -12.473   4.091  24.270  1.00  0.00     0.034 C 
HETATM    5  C5  UNL     1     -14.064   4.854  22.561  1.00  0.00     0.032 C 
HETATM    6  C6  UNL     1     -15.169   4.478  23.586  1.00  0.00     0.072 C 
HETATM    7  C7  UNL     1     -14.586   5.481  24.546  1.00  0.00     0.180 C 
ENDROOT
BRANCH   7   8
HETATM    8  O1  UNL     1     -15.136   6.710  24.579  1.00  0.00    -0.358 OA
HETATM    9  C8  UNL     1     -15.257   7.408  25.716  1.00  0.00     0.205 C 
ENDBRANCH   7   8
BRANCH   7  10
HETATM   10  O2  UNL     1     -14.293   5.043  25.835  1.00  0.00    -0.358 OA
HETATM   11  C9  UNL     1     -15.347   4.384  26.440  1.00  0.00     0.205 C 
ENDBRANCH   7  10
TORSDOF 2
ENDMDL
MODEL 5
REMARK VINA RESULT: -4.514526505      1.667      3.433
REMARK  2 active torsions:
REMARK  status: ('A' for Active; 'I' for Inactive)
REMARK    1  A    between atoms: C7_7  and  O1_8 
REMARK    2  A    between atoms: C7_7  and  O2_10 
ROOT
HETATM    1  C1  UNL     1     -13.623   2.322  26.090  1.00  0.00     0.098 C 
HETATM    2  C2  UNL     1     -13.975   3.280  25.417  1.00  0.00    -0.172 C 
HETATM    3  C3  UNL     1     -14.387   4.414  24.671  1.00  0.00     0.064 C 
HETATM    4  C4  UNL     1     -14.768   5.642  25.506  1.00  0.00     0.034 C 
HETATM    5  C5  UNL     1     -15.457   4.179  23.657  1.00  0.00     0.032 C 
HETATM    6  C6  UNL     1     -14.623   5.125  22.749  1.00  0.00     0.072 C 
HETATM    7  C7  UNL     1     -13.397   4.771  23.547  1.00  0.00     0.180 C 
ENDROOT
BRANCH   7   8
HETATM    8  O1  UNL     1     -12.597   3.797  23.069  1.00  0.00    -0.358 OA
HETATM    9  C8  UNL     1     -12.397   3.617  21.756  1.00  0.00     0.205 C 
ENDBRANCH   7   8
BRANCH   7  10
HETATM   10  O2  UNL     1     -12.636   5.819  24.059  1.00  0.00    -0.358 OA
HETATM   11  C9  UNL     1     -11.278   5.559  24.054  1.00  0.00     0.205 C 
ENDBRANCH   7  10
TORSDOF 2
ENDMDL
