MODEL 1
REMARK VINA RESULT: -4.988651725      0.000      0.000
REMARK  2 active torsions:
REMARK  status: ('A' for Active; 'I' for Inactive)
REMARK    1  A    between atoms: O1_2  and  C2_3 
REMARK    2  A    between atoms: C7_8  and  O2_9 
ROOT
HETATM    1  C2  UNL     1     -13.995   3.802  23.121  1.00  0.00     0.159 C 
HETATM    2  C3  UNL     1     -12.513   4.119  22.865  1.00  0.00     0.020 C 
HETATM    3  C4  UNL     1     -12.471   5.552  22.430  1.00  0.00     0.007 C 
HETATM    4  C5  UNL     1     -12.721   6.453  23.601  1.00  0.00     0.004 C 
HETATM    5  C6  UNL     1     -13.826   5.893  24.477  1.00  0.00     0.041 C 
HETATM    6  C7  UNL     1     -13.792   4.405  24.483  1.00  0.00     0.087 C 
HETATM    7  C9  UNL     1     -12.324   3.976  24.376  1.00  0.00     0.048 C 
ENDROOT
BRANCH   1   8
HETATM    8  O1  UNL     1     -14.874   4.439  22.282  1.00  0.00    -0.387 OA
HETATM    9  C1  UNL     1     -16.134   3.816  22.372  1.00  0.00     0.202 C 
ENDBRANCH   1   8
BRANCH   6  10
HETATM   10  O2  UNL     1     -14.439   3.722  25.449  1.00  0.00    -0.382 OA
HETATM   11  C8  UNL     1     -15.279   4.445  26.256  1.00  0.00     0.202 C 
ENDBRANCH   6  10
TORSDOF 2
ENDMDL
MODEL 2
REMARK VINA RESULT: -4.739685523      1.114      3.018
REMARK  2 active torsions:
REMARK  status: ('A' for Active; 'I' for Inactive)
REMARK    1  A    between atoms: O1_2  and  C2_3 
REMARK    2  A    between atoms: C7_8  and  O2_9 
ROOT
HETATM    1  C2  UNL     1     -14.409   4.139  24.760  1.00  0.00     0.159 C 
HETATM    2  C3  UNL     1     -13.426   5.296  24.523  1.00  0.00     0.020 C 
HETATM    3  C4  UNL     1     -12.178   4.668  23.982  1.00  0.00     0.007 C 
HETATM    4  C5  UNL     1     -12.395   4.228  22.566  1.00  0.00     0.004 C 
HETATM    5  C6  UNL     1     -13.767   3.599  22.408  1.00  0.00     0.041 C 
HETATM    6  C7  UNL     1     -14.756   4.258  23.303  1.00  0.00     0.087 C 
HETATM    7  C9  UNL     1     -14.371   5.738  23.405  1.00  0.00     0.048 C 
ENDROOT
BRANCH   1   8
HETATM    8  O1  UNL     1     -13.829   2.965  25.169  1.00  0.00    -0.387 OA
HETATM    9  C1  UNL     1     -14.198   2.706  26.504  1.00  0.00     0.202 C 
ENDBRANCH   1   8
BRANCH   6  10
HETATM   10  O2  UNL     1     -16.076   4.103  23.075  1.00  0.00    -0.382 OA
HETATM   11  C8  UNL     1     -16.427   3.314  22.010  1.00  0.00     0.202 C 
ENDBRANCH   6  10
TORSDOF 2
ENDMDL
MODEL 3
REMARK VINA RESULT: -4.657494171      1.058      1.156
REMARK  2 active torsions:
REMARK  status: ('A' for Active; 'I' for Inactive)
REMARK    1  A    between atoms: O1_2  and  C2_3 
REMARK    2  A    between atoms: C7_8  and  O2_9 
ROOT
HETATM    1  C2  UNL     1     -14.972   4.109  23.637  1.00  0.00     0.159 C 
HETATM    2  C3  UNL     1     -13.559   3.624  23.273  1.00  0.00     0.020 C 
HETATM    3  C4  UNL     1     -13.053   4.579  22.237  1.00  0.00     0.007 C 
HETATM    4  C5  UNL     1     -12.713   5.894  22.869  1.00  0.00     0.004 C 
HETATM    5  C6  UNL     1     -13.760   6.278  23.898  1.00  0.00     0.041 C 
HETATM    6  C7  UNL     1     -14.299   5.069  24.578  1.00  0.00     0.087 C 
HETATM    7  C9  UNL     1     -13.157   4.051  24.686  1.00  0.00     0.048 C 
ENDROOT
BRANCH   1   8
HETATM    8  O1  UNL     1     -15.681   4.650  22.595  1.00  0.00    -0.387 OA
HETATM    9  C1  UNL     1     -16.540   3.671  22.060  1.00  0.00     0.202 C 
ENDBRANCH   1   8
BRANCH   6  10
HETATM   10  O2  UNL     1     -14.964   5.194  25.745  1.00  0.00    -0.382 OA
HETATM   11  C8  UNL     1     -15.195   6.472  26.185  1.00  0.00     0.202 C 
ENDBRANCH   6  10
TORSDOF 2
ENDMDL
MODEL 4
REMARK VINA RESULT: -4.521523987      1.235      2.897
REMARK  2 active torsions:
REMARK  status: ('A' for Active; 'I' for Inactive)
REMARK    1  A    between atoms: O1_2  and  C2_3 
REMARK    2  A    between atoms: C7_8  and  O2_9 
ROOT
HETATM    1  C2  UNL     1     -13.138   4.587  24.490  1.00  0.00     0.159 C 
HETATM    2  C3  UNL     1     -11.825   5.232  24.019  1.00  0.00     0.020 C 
HETATM    3  C4  UNL     1     -11.030   4.128  23.392  1.00  0.00     0.007 C 
HETATM    4  C5  UNL     1     -11.619   3.758  22.064  1.00  0.00     0.004 C 
HETATM    5  C6  UNL     1     -13.134   3.737  22.141  1.00  0.00     0.041 C 
HETATM    6  C7  UNL     1     -13.629   4.778  23.082  1.00  0.00     0.087 C 
HETATM    7  C9  UNL     1     -12.677   5.976  22.989  1.00  0.00     0.048 C 
ENDROOT
BRANCH   1   8
HETATM    8  O1  UNL     1     -13.018   3.296  24.938  1.00  0.00    -0.387 OA
HETATM    9  C1  UNL     1     -14.100   2.998  25.788  1.00  0.00     0.202 C 
ENDBRANCH   1   8
BRANCH   6  10
HETATM   10  O2  UNL     1     -14.920   5.166  23.037  1.00  0.00    -0.382 OA
HETATM   11  C8  UNL     1     -15.797   4.311  22.420  1.00  0.00     0.202 C 
ENDBRANCH   6  10
TORSDOF 2
ENDMDL
MODEL 5
REMARK VINA RESULT: -4.496587418      1.667      3.293
REMARK  2 active torsions:
REMARK  status: ('A' for Active; 'I' for Inactive)
REMARK    1  A    between atoms: O1_2  and  C2_3 
REMARK    2  A    between atoms: C7_8  and  O2_9 
ROOT
HETATM    1  C2  UNL     1     -13.638   5.553  24.354  1.00  0.00     0.159 C 
HETATM    2  C3  UNL     1     -14.847   4.610  24.455  1.00  0.00     0.020 C 
HETATM    3  C4  UNL     1     -15.451   4.570  23.085  1.00  0.00     0.007 C 
HETATM    4  C5  UNL     1     -14.584   3.768  22.163  1.00  0.00     0.004 C 
HETATM    5  C6  UNL     1     -13.119   4.078  22.406  1.00  0.00     0.041 C 
HETATM    6  C7  UNL     1     -12.871   4.364  23.845  1.00  0.00     0.087 C 
HETATM    7  C9  UNL     1     -13.829   3.488  24.662  1.00  0.00     0.048 C 
ENDROOT
BRANCH   1   8
HETATM    8  O1  UNL     1     -13.800   6.606  23.490  1.00  0.00    -0.387 OA
HETATM    9  C1  UNL     1     -13.853   7.805  24.227  1.00  0.00     0.202 C 
ENDBRANCH   1   8
BRANCH   6  10
HETATM   10  O2  UNL     1     -11.616   4.315  24.334  1.00  0.00    -0.382 OA
HETATM   11  C8  UNL     1     -10.609   4.129  23.423  1.00  0.00     0.202 C 
ENDBRANCH   6  10
TORSDOF 2
ENDMDL
