MODEL 1
REMARK VINA RESULT: -8.021092684      0.000      0.000
REMARK  4 active torsions:
REMARK  status: ('A' for Active; 'I' for Inactive)
REMARK    1  A    between atoms: C2_2  and  O2_4 
REMARK    2  A    between atoms: O2_4  and  C3_5 
REMARK    3  A    between atoms: C3_5  and  C5_7 
REMARK       I    between atoms: C5_7  and  N1_9 
REMARK    4  A    between atoms: N1_9  and  C6_11 
ROOT
HETATM    1  C6  UNL     1      -6.335  21.869   4.251  1.00  0.00     0.098 C 
HETATM    2  C7  UNL     1      -6.339  22.021   5.745  1.00  0.00     0.033 C 
HETATM    3  C8  UNL     1      -6.110  23.446   6.199  1.00  0.00     0.021 C 
HETATM    4  C9  UNL     1      -6.067  23.401   7.697  1.00  0.00     0.146 C 
HETATM    5  S1  UNL     1      -4.911  24.674   8.133  1.00  0.00     0.146 S 
HETATM    6  O4  UNL     1      -4.052  24.275   9.304  1.00  0.00    -0.228 OA
HETATM    7  O5  UNL     1      -5.541  26.002   8.301  1.00  0.00    -0.228 OA
HETATM    8  C10 UNL     1      -3.959  24.569   6.612  1.00  0.00     0.160 C 
HETATM    9  C11 UNL     1      -4.995  24.144   5.605  1.00  0.00     0.127 C 
HETATM   10  S2  UNL     1      -4.129  23.297   4.315  1.00  0.00     0.151 S 
HETATM   11  O6  UNL     1      -2.683  23.013   4.698  1.00  0.00    -0.227 OA
HETATM   12  O7  UNL     1      -4.030  24.137   3.048  1.00  0.00    -0.227 OA
HETATM   13  C12 UNL     1      -4.862  21.767   3.853  1.00  0.00     0.166 C 
ENDROOT
BRANCH   1  14
HETATM   14  N1  UNL     1      -6.947  20.602   3.928  1.00  0.00    -0.353 N 
HETATM   15  C5  UNL     1      -8.212  20.473   3.322  1.00  0.00     0.247 C 
HETATM   16  O3  UNL     1      -8.867  21.496   3.037  1.00  0.00    -0.271 OA
ATOM     17  H1  UNL     1      -6.433  19.750   4.151  1.00  0.00     0.163 HD
BRANCH  15  18
HETATM   18  C3  UNL     1      -8.781  19.151   3.018  1.00  0.00     0.219 C 
HETATM   19  C4  UNL     1      -8.853  18.255   4.233  1.00  0.00     0.050 C 
BRANCH  18  20
HETATM   20  O2  UNL     1      -8.058  18.466   2.028  1.00  0.00    -0.307 OA
BRANCH  20  21
HETATM   21  C2  UNL     1      -7.409  17.273   2.338  1.00  0.00     0.255 C 
HETATM   22  C1  UNL     1      -6.064  17.258   2.975  1.00  0.00     0.126 C 
HETATM   23  O1  UNL     1      -8.014  16.203   2.053  1.00  0.00    -0.266 OA
ENDBRANCH  20  21
ENDBRANCH  18  20
ENDBRANCH  15  18
ENDBRANCH   1  14
TORSDOF 4
ENDMDL
MODEL 2
REMARK VINA RESULT: -7.958030940      1.783      2.197
REMARK  4 active torsions:
REMARK  status: ('A' for Active; 'I' for Inactive)
REMARK    1  A    between atoms: C2_2  and  O2_4 
REMARK    2  A    between atoms: O2_4  and  C3_5 
REMARK    3  A    between atoms: C3_5  and  C5_7 
REMARK       I    between atoms: C5_7  and  N1_9 
REMARK    4  A    between atoms: N1_9  and  C6_11 
ROOT
HETATM    1  C6  UNL     1      -6.314  22.989   4.513  1.00  0.00     0.098 C 
HETATM    2  C7  UNL     1      -5.450  23.331   5.694  1.00  0.00     0.033 C 
HETATM    3  C8  UNL     1      -5.657  24.745   6.192  1.00  0.00     0.021 C 
HETATM    4  C9  UNL     1      -4.674  24.939   7.306  1.00  0.00     0.146 C 
HETATM    5  S1  UNL     1      -4.231  26.653   7.197  1.00  0.00     0.146 S 
HETATM    6  O4  UNL     1      -2.771  26.876   7.492  1.00  0.00    -0.228 OA
HETATM    7  O5  UNL     1      -5.124  27.538   7.978  1.00  0.00    -0.228 OA
HETATM    8  C10 UNL     1      -4.526  26.793   5.429  1.00  0.00     0.160 C 
HETATM    9  C11 UNL     1      -5.627  25.792   5.200  1.00  0.00     0.127 C 
HETATM   10  S2  UNL     1      -5.502  25.279   3.511  1.00  0.00     0.151 S 
HETATM   11  O6  UNL     1      -4.210  25.766   2.869  1.00  0.00    -0.227 OA
HETATM   12  O7  UNL     1      -6.606  25.877   2.649  1.00  0.00    -0.227 OA
HETATM   13  C12 UNL     1      -5.574  23.536   3.292  1.00  0.00     0.166 C 
ENDROOT
BRANCH   1  14
HETATM   14  N1  UNL     1      -6.340  21.551   4.380  1.00  0.00    -0.353 N 
HETATM   15  C5  UNL     1      -7.416  20.834   3.821  1.00  0.00     0.247 C 
HETATM   16  O3  UNL     1      -8.420  21.449   3.409  1.00  0.00    -0.271 OA
ATOM     17  H1  UNL     1      -5.532  21.024   4.710  1.00  0.00     0.163 HD
BRANCH  15  18
HETATM   18  C3  UNL     1      -7.381  19.368   3.714  1.00  0.00     0.219 C 
HETATM   19  C4  UNL     1      -5.986  18.834   3.485  1.00  0.00     0.050 C 
BRANCH  18  20
HETATM   20  O2  UNL     1      -8.197  18.882   2.680  1.00  0.00    -0.307 OA
BRANCH  20  21
HETATM   21  C2  UNL     1      -8.796  17.629   2.794  1.00  0.00     0.255 C 
HETATM   22  C1  UNL     1      -9.897  17.374   3.764  1.00  0.00     0.126 C 
HETATM   23  O1  UNL     1      -8.363  16.717   2.036  1.00  0.00    -0.266 OA
ENDBRANCH  20  21
ENDBRANCH  18  20
ENDBRANCH  15  18
ENDBRANCH   1  14
TORSDOF 4
ENDMDL
MODEL 3
REMARK VINA RESULT: -7.948078057      2.062      2.319
REMARK  4 active torsions:
REMARK  status: ('A' for Active; 'I' for Inactive)
REMARK    1  A    between atoms: C2_2  and  O2_4 
REMARK    2  A    between atoms: O2_4  and  C3_5 
REMARK    3  A    between atoms: C3_5  and  C5_7 
REMARK       I    between atoms: C5_7  and  N1_9 
REMARK    4  A    between atoms: N1_9  and  C6_11 
ROOT
HETATM    1  C6  UNL     1      -6.276  23.058   4.418  1.00  0.00     0.098 C 
HETATM    2  C7  UNL     1      -5.406  23.365   5.604  1.00  0.00     0.033 C 
HETATM    3  C8  UNL     1      -5.638  24.749   6.169  1.00  0.00     0.021 C 
HETATM    4  C9  UNL     1      -4.645  24.915   7.280  1.00  0.00     0.146 C 
HETATM    5  S1  UNL     1      -4.241  26.642   7.244  1.00  0.00     0.146 S 
HETATM    6  O4  UNL     1      -2.783  26.884   7.533  1.00  0.00    -0.228 OA
HETATM    7  O5  UNL     1      -5.144  27.469   8.076  1.00  0.00    -0.228 OA
HETATM    8  C10 UNL     1      -4.562  26.856   5.488  1.00  0.00     0.160 C 
HETATM    9  C11 UNL     1      -5.644  25.842   5.226  1.00  0.00     0.127 C 
HETATM   10  S2  UNL     1      -5.528  25.409   3.514  1.00  0.00     0.151 S 
HETATM   11  O6  UNL     1      -4.255  25.955   2.880  1.00  0.00    -0.227 OA
HETATM   12  O7  UNL     1      -6.655  26.021   2.693  1.00  0.00    -0.227 OA
HETATM   13  C12 UNL     1      -5.564  23.677   3.216  1.00  0.00     0.166 C 
ENDROOT
BRANCH   1  14
HETATM   14  N1  UNL     1      -6.272  21.627   4.220  1.00  0.00    -0.353 N 
HETATM   15  C5  UNL     1      -7.366  20.903   3.707  1.00  0.00     0.247 C 
HETATM   16  O3  UNL     1      -8.414  21.505   3.398  1.00  0.00    -0.271 OA
ATOM     17  H1  UNL     1      -5.427  21.111   4.465  1.00  0.00     0.163 HD
BRANCH  15  18
HETATM   18  C3  UNL     1      -7.298  19.445   3.528  1.00  0.00     0.219 C 
HETATM   19  C4  UNL     1      -8.509  18.733   4.088  1.00  0.00     0.050 C 
BRANCH  18  20
HETATM   20  O2  UNL     1      -6.160  18.879   4.124  1.00  0.00    -0.307 OA
BRANCH  20  21
HETATM   21  C2  UNL     1      -5.123  18.396   3.329  1.00  0.00     0.255 C 
HETATM   22  C1  UNL     1      -4.407  19.272   2.361  1.00  0.00     0.126 C 
HETATM   23  O1  UNL     1      -4.818  17.179   3.464  1.00  0.00    -0.266 OA
ENDBRANCH  20  21
ENDBRANCH  18  20
ENDBRANCH  15  18
ENDBRANCH   1  14
TORSDOF 4
ENDMDL
MODEL 4
REMARK VINA RESULT: -7.779089651      4.677      6.971
REMARK  4 active torsions:
REMARK  status: ('A' for Active; 'I' for Inactive)
REMARK    1  A    between atoms: C2_2  and  O2_4 
REMARK    2  A    between atoms: O2_4  and  C3_5 
REMARK    3  A    between atoms: C3_5  and  C5_7 
REMARK       I    between atoms: C5_7  and  N1_9 
REMARK    4  A    between atoms: N1_9  and  C6_11 
ROOT
HETATM    1  C6  UNL     1      -5.728  21.297   0.707  1.00  0.00     0.098 C 
HETATM    2  C7  UNL     1      -6.469  21.374  -0.597  1.00  0.00     0.033 C 
HETATM    3  C8  UNL     1      -5.554  21.474  -1.797  1.00  0.00     0.021 C 
HETATM    4  C9  UNL     1      -6.449  21.620  -2.990  1.00  0.00     0.146 C 
HETATM    5  S1  UNL     1      -5.528  22.655  -4.098  1.00  0.00     0.146 S 
HETATM    6  O4  UNL     1      -6.416  23.627  -4.827  1.00  0.00    -0.228 OA
HETATM    7  O5  UNL     1      -4.634  21.895  -4.999  1.00  0.00    -0.228 OA
HETATM    8  C10 UNL     1      -4.612  23.511  -2.809  1.00  0.00     0.160 C 
HETATM    9  C11 UNL     1      -4.506  22.464  -1.732  1.00  0.00     0.127 C 
HETATM   10  S2  UNL     1      -4.332  23.331  -0.198  1.00  0.00     0.151 S 
HETATM   11  O6  UNL     1      -4.598  24.822  -0.361  1.00  0.00    -0.227 OA
HETATM   12  O7  UNL     1      -2.911  23.254   0.343  1.00  0.00    -0.227 OA
HETATM   13  C12 UNL     1      -5.393  22.742   1.074  1.00  0.00     0.166 C 
ENDROOT
BRANCH   1  14
HETATM   14  N1  UNL     1      -6.641  20.808   1.713  1.00  0.00    -0.353 N 
HETATM   15  C5  UNL     1      -6.343  19.753   2.598  1.00  0.00     0.247 C 
HETATM   16  O3  UNL     1      -5.233  19.187   2.532  1.00  0.00    -0.271 OA
ATOM     17  H1  UNL     1      -7.556  21.253   1.787  1.00  0.00     0.163 HD
BRANCH  15  18
HETATM   18  C3  UNL     1      -7.319  19.302   3.602  1.00  0.00     0.219 C 
HETATM   19  C4  UNL     1      -7.031  19.850   4.981  1.00  0.00     0.050 C 
BRANCH  18  20
HETATM   20  O2  UNL     1      -7.380  17.903   3.706  1.00  0.00    -0.307 OA
BRANCH  20  21
HETATM   21  C2  UNL     1      -8.394  17.199   3.061  1.00  0.00     0.255 C 
HETATM   22  C1  UNL     1      -9.805  17.253   3.533  1.00  0.00     0.126 C 
HETATM   23  O1  UNL     1      -8.064  16.510   2.057  1.00  0.00    -0.266 OA
ENDBRANCH  20  21
ENDBRANCH  18  20
ENDBRANCH  15  18
ENDBRANCH   1  14
TORSDOF 4
ENDMDL
MODEL 5
REMARK VINA RESULT: -7.683094873      2.084      3.530
REMARK  4 active torsions:
REMARK  status: ('A' for Active; 'I' for Inactive)
REMARK    1  A    between atoms: C2_2  and  O2_4 
REMARK    2  A    between atoms: O2_4  and  C3_5 
REMARK    3  A    between atoms: C3_5  and  C5_7 
REMARK       I    between atoms: C5_7  and  N1_9 
REMARK    4  A    between atoms: N1_9  and  C6_11 
ROOT
HETATM    1  C6  UNL     1      -5.399  22.209   5.840  1.00  0.00     0.098 C 
HETATM    2  C7  UNL     1      -4.315  22.866   5.032  1.00  0.00     0.033 C 
HETATM    3  C8  UNL     1      -3.106  23.248   5.858  1.00  0.00     0.021 C 
HETATM    4  C9  UNL     1      -2.172  23.953   4.921  1.00  0.00     0.146 C 
HETATM    5  S1  UNL     1      -1.368  25.160   5.942  1.00  0.00     0.146 S 
HETATM    6  O4  UNL     1      -1.145  26.456   5.208  1.00  0.00    -0.228 OA
HETATM    7  O5  UNL     1      -0.146  24.647   6.600  1.00  0.00    -0.228 OA
HETATM    8  C10 UNL     1      -2.730  25.339   7.101  1.00  0.00     0.160 C 
HETATM    9  C11 UNL     1      -3.360  23.971   7.081  1.00  0.00     0.127 C 
HETATM   10  S2  UNL     1      -5.057  24.188   7.534  1.00  0.00     0.151 S 
HETATM   11  O6  UNL     1      -5.451  25.659   7.553  1.00  0.00    -0.227 OA
HETATM   12  O7  UNL     1      -5.336  23.700   8.950  1.00  0.00    -0.227 OA
HETATM   13  C12 UNL     1      -6.186  23.354   6.477  1.00  0.00     0.166 C 
ENDROOT
BRANCH   1  14
HETATM   14  N1  UNL     1      -6.294  21.539   4.926  1.00  0.00    -0.353 N 
HETATM   15  C5  UNL     1      -6.171  20.185   4.558  1.00  0.00     0.247 C 
HETATM   16  O3  UNL     1      -5.243  19.498   5.031  1.00  0.00    -0.271 OA
ATOM     17  H1  UNL     1      -7.061  22.078   4.525  1.00  0.00     0.163 HD
BRANCH  15  18
HETATM   18  C3  UNL     1      -7.118  19.561   3.621  1.00  0.00     0.219 C 
HETATM   19  C4  UNL     1      -8.227  20.499   3.202  1.00  0.00     0.050 C 
BRANCH  18  20
HETATM   20  O2  UNL     1      -7.716  18.405   4.147  1.00  0.00    -0.307 OA
BRANCH  20  21
HETATM   21  C2  UNL     1      -8.459  17.565   3.320  1.00  0.00     0.255 C 
HETATM   22  C1  UNL     1      -9.851  17.163   3.663  1.00  0.00     0.126 C 
HETATM   23  O1  UNL     1      -7.899  17.159   2.266  1.00  0.00    -0.266 OA
ENDBRANCH  20  21
ENDBRANCH  18  20
ENDBRANCH  15  18
ENDBRANCH   1  14
TORSDOF 4
ENDMDL
