MODEL 1
REMARK VINA RESULT: -7.243775637      0.000      0.000
REMARK  5 active torsions:
REMARK  status: ('A' for Active; 'I' for Inactive)
REMARK    1  A    between atoms: C2_2  and  N1_3 
REMARK    2  A    between atoms: N1_3  and  C3_4 
REMARK    3  A    between atoms: C15_21  and  O5_22 
REMARK    4  A    between atoms: O5_22  and  C16_23 
REMARK    5  A    between atoms: C16_23  and  O6_25 
ROOT
HETATM    1  N1  UNL     1      -6.588  19.161   2.874  1.00  0.00    -0.034 N 
HETATM    2  C5  UNL     1      -6.752  19.821   4.178  1.00  0.00     0.275 C 
HETATM    3  C6  UNL     1      -5.379  20.311   4.452  1.00  0.00     0.185 C 
HETATM    4  O1  UNL     1      -4.563  19.803   3.482  1.00  0.00    -0.345 OA
HETATM    5  C7  UNL     1      -5.370  19.673   2.336  1.00  0.00     0.382 C 
HETATM    6  C8  UNL     1      -5.475  21.076   1.770  1.00  0.00     0.320 C 
HETATM    7  O2  UNL     1      -4.226  21.474   1.412  1.00  0.00    -0.354 OA
HETATM    8  C9  UNL     1      -3.524  22.284   2.252  1.00  0.00     0.220 C 
HETATM    9  C10 UNL     1      -4.467  23.302   2.823  1.00  0.00     0.265 A 
HETATM   10  C11 UNL     1      -4.908  24.335   1.776  1.00  0.00     0.324 A 
HETATM   11  N2  UNL     1      -4.182  24.642   3.021  1.00  0.00     0.112 N 
HETATM   12  C12 UNL     1      -4.940  25.391   3.940  1.00  0.00     0.300 C 
HETATM   13  C13 UNL     1      -6.142  24.700   4.500  1.00  0.00     0.202 C 
HETATM   14  O3  UNL     1      -6.561  23.606   3.826  1.00  0.00    -0.349 OA
HETATM   15  C14 UNL     1      -5.603  22.646   3.508  1.00  0.00     0.236 C 
HETATM   16  O4  UNL     1      -6.244  21.883   2.524  1.00  0.00    -0.315 OA
HETATM   17  C15 UNL     1      -5.254  21.796   4.685  1.00  0.00     0.220 C 
ENDROOT
BRANCH  17  18
HETATM   18  O5  UNL     1      -3.989  22.006   5.187  1.00  0.00    -0.348 OA
BRANCH  18  19
HETATM   19  C16 UNL     1      -3.892  22.687   6.359  1.00  0.00     0.253 C 
HETATM   20  C17 UNL     1      -2.563  23.224   6.740  1.00  0.00     0.070 C 
BRANCH  19  21
HETATM   21  O6  UNL     1      -4.250  21.757   7.371  1.00  0.00    -0.372 OA
ATOM     22  H6  UNL     1      -3.448  21.297   7.589  1.00  0.00     0.212 HD
ENDBRANCH  19  21
ENDBRANCH  18  19
ENDBRANCH  17  18
BRANCH   1  23
HETATM   23  C2  UNL     1      -6.379  17.756   3.157  1.00  0.00     0.236 C 
HETATM   24  C1  UNL     1      -7.476  16.872   2.673  1.00  0.00     0.035 C 
ENDBRANCH   1  23
BRANCH   1  25
HETATM   25  C3  UNL     1      -7.761  19.342   2.101  1.00  0.00     0.236 C 
HETATM   26  C4  UNL     1      -8.824  19.956   3.023  1.00  0.00     0.035 C 
ENDBRANCH   1  25
TORSDOF 5
ENDMDL
MODEL 2
REMARK VINA RESULT: -7.111704797      1.782      3.830
REMARK  5 active torsions:
REMARK  status: ('A' for Active; 'I' for Inactive)
REMARK    1  A    between atoms: C2_2  and  N1_3 
REMARK    2  A    between atoms: N1_3  and  C3_4 
REMARK    3  A    between atoms: C15_21  and  O5_22 
REMARK    4  A    between atoms: O5_22  and  C16_23 
REMARK    5  A    between atoms: C16_23  and  O6_25 
ROOT
HETATM    1  N1  UNL     1      -6.395  20.299   3.856  1.00  0.00    -0.034 N 
HETATM    2  C5  UNL     1      -5.983  21.330   2.892  1.00  0.00     0.275 C 
HETATM    3  C6  UNL     1      -6.321  22.581   3.614  1.00  0.00     0.185 C 
HETATM    4  O1  UNL     1      -6.996  22.229   4.748  1.00  0.00    -0.345 OA
HETATM    5  C7  UNL     1      -6.494  20.966   5.113  1.00  0.00     0.382 C 
HETATM    6  C8  UNL     1      -5.160  21.253   5.777  1.00  0.00     0.320 C 
HETATM    7  O2  UNL     1      -5.403  21.993   6.891  1.00  0.00    -0.354 OA
HETATM    8  C9  UNL     1      -5.226  23.342   6.839  1.00  0.00     0.220 C 
HETATM    9  C10 UNL     1      -3.987  23.626   6.042  1.00  0.00     0.265 A 
HETATM   10  C11 UNL     1      -2.710  23.227   6.796  1.00  0.00     0.324 A 
HETATM   11  N2  UNL     1      -3.040  24.590   6.342  1.00  0.00     0.112 N 
HETATM   12  C12 UNL     1      -2.182  25.066   5.333  1.00  0.00     0.300 C 
HETATM   13  C13 UNL     1      -2.246  24.332   4.032  1.00  0.00     0.202 C 
HETATM   14  O3  UNL     1      -2.835  23.116   4.068  1.00  0.00    -0.349 OA
HETATM   15  C14 UNL     1      -4.077  23.027   4.692  1.00  0.00     0.236 C 
HETATM   16  O4  UNL     1      -4.220  21.649   4.901  1.00  0.00    -0.315 OA
HETATM   17  C15 UNL     1      -5.176  23.540   3.821  1.00  0.00     0.220 C 
ENDROOT
BRANCH  17  18
HETATM   18  O5  UNL     1      -5.734  24.727   4.244  1.00  0.00    -0.348 OA
BRANCH  18  19
HETATM   19  C16 UNL     1      -5.507  25.827   3.478  1.00  0.00     0.253 C 
HETATM   20  C17 UNL     1      -5.347  27.130   4.169  1.00  0.00     0.070 C 
BRANCH  19  21
HETATM   21  O6  UNL     1      -6.651  25.955   2.647  1.00  0.00    -0.372 OA
ATOM     22  H6  UNL     1      -6.391  26.536   1.942  1.00  0.00     0.212 HD
ENDBRANCH  19  21
ENDBRANCH  18  19
ENDBRANCH  17  18
BRANCH   1  23
HETATM   23  C2  UNL     1      -7.734  19.900   3.472  1.00  0.00     0.236 C 
HETATM   24  C1  UNL     1      -8.228  18.684   4.178  1.00  0.00     0.035 C 
ENDBRANCH   1  23
BRANCH   1  25
HETATM   25  C3  UNL     1      -5.508  19.197   3.778  1.00  0.00     0.236 C 
HETATM   26  C4  UNL     1      -4.784  19.289   2.427  1.00  0.00     0.035 C 
ENDBRANCH   1  25
TORSDOF 5
ENDMDL
MODEL 3
REMARK VINA RESULT: -7.097739147      1.576      5.529
REMARK  5 active torsions:
REMARK  status: ('A' for Active; 'I' for Inactive)
REMARK    1  A    between atoms: C2_2  and  N1_3 
REMARK    2  A    between atoms: N1_3  and  C3_4 
REMARK    3  A    between atoms: C15_21  and  O5_22 
REMARK    4  A    between atoms: O5_22  and  C16_23 
REMARK    5  A    between atoms: C16_23  and  O6_25 
ROOT
HETATM    1  N1  UNL     1      -4.470  23.853   4.898  1.00  0.00    -0.034 N 
HETATM    2  C5  UNL     1      -5.224  24.002   3.645  1.00  0.00     0.275 C 
HETATM    3  C6  UNL     1      -4.834  22.779   2.902  1.00  0.00     0.185 C 
HETATM    4  O1  UNL     1      -3.851  22.161   3.620  1.00  0.00    -0.345 OA
HETATM    5  C7  UNL     1      -4.109  22.474   4.967  1.00  0.00     0.382 C 
HETATM    6  C8  UNL     1      -5.240  21.549   5.374  1.00  0.00     0.320 C 
HETATM    7  O2  UNL     1      -4.786  20.272   5.276  1.00  0.00    -0.354 OA
HETATM    8  C9  UNL     1      -5.106  19.540   4.172  1.00  0.00     0.220 C 
HETATM    9  C10 UNL     1      -6.533  19.826   3.813  1.00  0.00     0.265 A 
HETATM   10  C11 UNL     1      -7.518  19.217   4.821  1.00  0.00     0.324 A 
HETATM   11  N2  UNL     1      -7.460  18.890   3.384  1.00  0.00     0.112 N 
HETATM   12  C12 UNL     1      -8.597  19.308   2.669  1.00  0.00     0.300 C 
HETATM   13  C13 UNL     1      -8.807  20.787   2.596  1.00  0.00     0.202 C 
HETATM   14  O3  UNL     1      -8.111  21.527   3.487  1.00  0.00    -0.349 OA
HETATM   15  C14 UNL     1      -6.745  21.275   3.596  1.00  0.00     0.236 C 
HETATM   16  O4  UNL     1      -6.415  21.888   4.812  1.00  0.00    -0.315 OA
HETATM   17  C15 UNL     1      -5.974  21.888   2.474  1.00  0.00     0.220 C 
ENDROOT
BRANCH  17  18
HETATM   18  O5  UNL     1      -5.446  20.982   1.581  1.00  0.00    -0.348 OA
BRANCH  18  19
HETATM   19  C16 UNL     1      -5.213  21.422   0.317  1.00  0.00     0.253 C 
HETATM   20  C17 UNL     1      -6.355  21.440  -0.631  1.00  0.00     0.070 C 
BRANCH  19  21
HETATM   21  O6  UNL     1      -4.258  20.524  -0.230  1.00  0.00    -0.372 OA
ATOM     22  H6  UNL     1      -3.410  20.917  -0.058  1.00  0.00     0.212 HD
ENDBRANCH  19  21
ENDBRANCH  18  19
ENDBRANCH  17  18
BRANCH   1  23
HETATM   23  C2  UNL     1      -3.248  24.612   4.727  1.00  0.00     0.236 C 
HETATM   24  C1  UNL     1      -2.151  24.209   5.651  1.00  0.00     0.035 C 
ENDBRANCH   1  23
BRANCH   1  25
HETATM   25  C3  UNL     1      -5.231  24.374   5.973  1.00  0.00     0.236 C 
HETATM   26  C4  UNL     1      -5.562  25.834   5.631  1.00  0.00     0.035 C 
ENDBRANCH   1  25
TORSDOF 5
ENDMDL
MODEL 4
REMARK VINA RESULT: -6.917781103      2.374      4.894
REMARK  5 active torsions:
REMARK  status: ('A' for Active; 'I' for Inactive)
REMARK    1  A    between atoms: C2_2  and  N1_3 
REMARK    2  A    between atoms: N1_3  and  C3_4 
REMARK    3  A    between atoms: C15_21  and  O5_22 
REMARK    4  A    between atoms: O5_22  and  C16_23 
REMARK    5  A    between atoms: C16_23  and  O6_25 
ROOT
HETATM    1  N1  UNL     1      -6.320  20.306   3.785  1.00  0.00    -0.034 N 
HETATM    2  C5  UNL     1      -6.278  19.584   2.505  1.00  0.00     0.275 C 
HETATM    3  C6  UNL     1      -6.648  20.646   1.538  1.00  0.00     0.185 C 
HETATM    4  O1  UNL     1      -7.014  21.746   2.260  1.00  0.00    -0.345 OA
HETATM    5  C7  UNL     1      -6.259  21.691   3.446  1.00  0.00     0.382 C 
HETATM    6  C8  UNL     1      -4.878  22.181   3.055  1.00  0.00     0.320 C 
HETATM    7  O2  UNL     1      -4.998  23.471   2.643  1.00  0.00    -0.354 OA
HETATM    8  C9  UNL     1      -5.045  23.736   1.308  1.00  0.00     0.220 C 
HETATM    9  C10 UNL     1      -4.054  22.849   0.615  1.00  0.00     0.265 A 
HETATM   10  C11 UNL     1      -2.604  23.258   0.909  1.00  0.00     0.324 A 
HETATM   11  N2  UNL     1      -3.225  23.227  -0.427  1.00  0.00     0.112 N 
HETATM   12  C12 UNL     1      -2.676  22.247  -1.276  1.00  0.00     0.300 C 
HETATM   13  C13 UNL     1      -2.892  20.830  -0.851  1.00  0.00     0.202 C 
HETATM   14  O3  UNL     1      -3.267  20.650   0.435  1.00  0.00    -0.349 OA
HETATM   15  C14 UNL     1      -4.327  21.423   0.905  1.00  0.00     0.236 C 
HETATM   16  O4  UNL     1      -4.210  21.295   2.295  1.00  0.00    -0.315 OA
HETATM   17  C15 UNL     1      -5.646  20.902   0.440  1.00  0.00     0.220 C 
ENDROOT
BRANCH  17  18
HETATM   18  O5  UNL     1      -6.281  21.698  -0.488  1.00  0.00    -0.348 OA
BRANCH  18  19
HETATM   19  C16 UNL     1      -6.362  21.224  -1.759  1.00  0.00     0.253 C 
HETATM   20  C17 UNL     1      -6.262  22.202  -2.870  1.00  0.00     0.070 C 
BRANCH  19  21
HETATM   21  O6  UNL     1      -7.649  20.633  -1.864  1.00  0.00    -0.372 OA
ATOM     22  H6  UNL     1      -7.644  20.155  -2.685  1.00  0.00     0.212 HD
ENDBRANCH  19  21
ENDBRANCH  18  19
ENDBRANCH  17  18
BRANCH   1  23
HETATM   23  C2  UNL     1      -7.631  20.056   4.347  1.00  0.00     0.236 C 
HETATM   24  C1  UNL     1      -8.137  18.674   4.110  1.00  0.00     0.035 C 
ENDBRANCH   1  23
BRANCH   1  25
HETATM   25  C3  UNL     1      -5.309  19.808   4.644  1.00  0.00     0.236 C 
HETATM   26  C4  UNL     1      -5.631  20.303   6.061  1.00  0.00     0.035 C 
ENDBRANCH   1  25
TORSDOF 5
ENDMDL
MODEL 5
REMARK VINA RESULT: -6.802197248      2.382      4.419
REMARK  5 active torsions:
REMARK  status: ('A' for Active; 'I' for Inactive)
REMARK    1  A    between atoms: C2_2  and  N1_3 
REMARK    2  A    between atoms: N1_3  and  C3_4 
REMARK    3  A    between atoms: C15_21  and  O5_22 
REMARK    4  A    between atoms: O5_22  and  C16_23 
REMARK    5  A    between atoms: C16_23  and  O6_25 
ROOT
HETATM    1  N1  UNL     1      -4.283  22.235  -0.877  1.00  0.00    -0.034 N 
HETATM    2  C5  UNL     1      -4.967  21.029  -0.386  1.00  0.00     0.275 C 
HETATM    3  C6  UNL     1      -4.230  20.745   0.869  1.00  0.00     0.185 C 
HETATM    4  O1  UNL     1      -3.170  21.604   0.925  1.00  0.00    -0.345 OA
HETATM    5  C7  UNL     1      -3.588  22.767   0.250  1.00  0.00     0.382 C 
HETATM    6  C8  UNL     1      -4.470  23.500   1.243  1.00  0.00     0.320 C 
HETATM    7  O2  UNL     1      -3.699  23.838   2.310  1.00  0.00    -0.354 OA
HETATM    8  C9  UNL     1      -3.748  23.064   3.431  1.00  0.00     0.220 C 
HETATM    9  C10 UNL     1      -5.175  22.668   3.669  1.00  0.00     0.265 A 
HETATM   10  C11 UNL     1      -6.036  23.852   4.134  1.00  0.00     0.324 A 
HETATM   11  N2  UNL     1      -5.802  22.616   4.903  1.00  0.00     0.112 N 
HETATM   12  C12 UNL     1      -6.959  21.833   5.068  1.00  0.00     0.300 C 
HETATM   13  C13 UNL     1      -7.534  21.258   3.813  1.00  0.00     0.202 C 
HETATM   14  O3  UNL     1      -7.109  21.818   2.659  1.00  0.00    -0.349 OA
HETATM   15  C14 UNL     1      -5.735  21.970   2.490  1.00  0.00     0.236 C 
HETATM   16  O4  UNL     1      -5.652  22.888   1.436  1.00  0.00    -0.315 OA
HETATM   17  C15 UNL     1      -5.074  20.684   2.118  1.00  0.00     0.220 C 
ENDROOT
BRANCH  17  18
HETATM   18  O5  UNL     1      -4.275  20.145   3.102  1.00  0.00    -0.348 OA
BRANCH  18  19
HETATM   19  C16 UNL     1      -4.479  18.840   3.421  1.00  0.00     0.253 C 
HETATM   20  C17 UNL     1      -5.775  18.229   3.034  1.00  0.00     0.070 C 
BRANCH  19  21
HETATM   21  O6  UNL     1      -4.420  18.780   4.839  1.00  0.00    -0.372 OA
ATOM     22  H6  UNL     1      -4.374  19.683   5.131  1.00  0.00     0.212 HD
ENDBRANCH  19  21
ENDBRANCH  18  19
ENDBRANCH  17  18
BRANCH   1  23
HETATM   23  C2  UNL     1      -3.287  21.777  -1.823  1.00  0.00     0.236 C 
HETATM   24  C1  UNL     1      -2.381  22.853  -2.315  1.00  0.00     0.035 C 
ENDBRANCH   1  23
BRANCH   1  25
HETATM   25  C3  UNL     1      -5.221  23.084  -1.515  1.00  0.00     0.236 C 
HETATM   26  C4  UNL     1      -6.192  22.186  -2.294  1.00  0.00     0.035 C 
ENDBRANCH   1  25
TORSDOF 5
ENDMDL
