MODEL 1
REMARK VINA RESULT: -8.250707593      0.000      0.000
REMARK  3 active torsions:
REMARK  status: ('A' for Active; 'I' for Inactive)
REMARK       I    between atoms: C1_2  and  N1_3 
REMARK    1  A    between atoms: C1_2  and  C6_14 
REMARK    2  A    between atoms: C4_9  and  C5_10 
REMARK    3  A    between atoms: C5_10  and  S3_11 
ROOT
HETATM    1  O1  UNL     1      -7.621  21.643   2.613  1.00  0.00    -0.271 OA
HETATM    2  C1  UNL     1      -7.485  21.263   3.825  1.00  0.00     0.245 C 
HETATM    3  N1  UNL     1      -7.302  22.275   4.783  1.00  0.00    -0.331 N 
ATOM      4  H1  UNL     1      -8.116  22.800   5.103  1.00  0.00     0.168 HD
HETATM    5  C2  UNL     1      -6.134  22.570   5.278  1.00  0.00     0.015 C 
HETATM    6  C3  UNL     1      -4.870  21.889   4.903  1.00  0.00     0.140 C 
HETATM    7  S1  UNL     1      -3.749  23.233   4.322  1.00  0.00    -0.091 SA
HETATM    8  S2  UNL     1      -4.833  24.807   5.343  1.00  0.00    -0.086 SA
HETATM    9  C4  UNL     1      -5.887  23.626   6.289  1.00  0.00     0.119 C 
ENDROOT
BRANCH   2  10
HETATM   10  C6  UNL     1      -7.524  19.812   4.169  1.00  0.00     0.185 C 
HETATM   11  C7  UNL     1      -8.449  19.144   3.195  1.00  0.00     0.036 C 
HETATM   12  C8  UNL     1      -8.530  17.670   3.558  1.00  0.00     0.019 C 
HETATM   13  C9  UNL     1      -7.354  17.005   2.839  1.00  0.00     0.163 C 
HETATM   14  S4  UNL     1      -5.922  17.998   3.115  1.00  0.00     0.227 S 
HETATM   15  O4  UNL     1      -5.412  18.540   1.797  1.00  0.00    -0.206 OA
HETATM   16  O5  UNL     1      -4.838  17.119   3.673  1.00  0.00    -0.206 OA
HETATM   17  N2  UNL     1      -6.200  19.301   4.184  1.00  0.00    -0.306 N 
ATOM     18  H2  UNL     1      -5.471  19.683   4.786  1.00  0.00     0.173 HD
ENDBRANCH   2  10
BRANCH   9  19
HETATM   19  C5  UNL     1      -5.013  23.068   7.370  1.00  0.00     0.178 C 
BRANCH  19  20
HETATM   20  S3  UNL     1      -5.214  24.006   8.883  1.00  0.00     0.252 S 
HETATM   21  O2  UNL     1      -6.812  23.900   9.389  1.00  0.00    -0.212 OA
HETATM   22  O3  UNL     1      -4.717  25.586   8.677  1.00  0.00    -0.212 OA
ENDBRANCH  19  20
ENDBRANCH   9  19
TORSDOF 3
ENDMDL
MODEL 2
REMARK VINA RESULT: -7.756620254      0.935      1.247
REMARK  3 active torsions:
REMARK  status: ('A' for Active; 'I' for Inactive)
REMARK       I    between atoms: C1_2  and  N1_3 
REMARK    1  A    between atoms: C1_2  and  C6_14 
REMARK    2  A    between atoms: C4_9  and  C5_10 
REMARK    3  A    between atoms: C5_10  and  S3_11 
ROOT
HETATM    1  O1  UNL     1      -8.087  21.409   2.576  1.00  0.00    -0.271 OA
HETATM    2  C1  UNL     1      -7.765  21.038   3.755  1.00  0.00     0.245 C 
HETATM    3  N1  UNL     1      -7.490  22.060   4.680  1.00  0.00    -0.331 N 
ATOM      4  H1  UNL     1      -8.271  22.552   5.114  1.00  0.00     0.168 HD
HETATM    5  C2  UNL     1      -6.276  22.404   5.005  1.00  0.00     0.015 C 
HETATM    6  C3  UNL     1      -5.051  21.774   4.452  1.00  0.00     0.140 C 
HETATM    7  S1  UNL     1      -4.080  23.161   3.721  1.00  0.00    -0.091 SA
HETATM    8  S2  UNL     1      -5.072  24.692   4.891  1.00  0.00    -0.086 SA
HETATM    9  C4  UNL     1      -5.931  23.472   5.974  1.00  0.00     0.119 C 
ENDROOT
BRANCH   2  10
HETATM   10  C6  UNL     1      -7.695  19.588   4.097  1.00  0.00     0.185 C 
HETATM   11  C7  UNL     1      -8.527  18.848   3.091  1.00  0.00     0.036 C 
HETATM   12  C8  UNL     1      -8.497  17.372   3.452  1.00  0.00     0.019 C 
HETATM   13  C9  UNL     1      -7.247  16.808   2.773  1.00  0.00     0.163 C 
HETATM   14  S4  UNL     1      -5.912  17.916   3.099  1.00  0.00     0.227 S 
HETATM   15  O4  UNL     1      -5.404  18.503   1.800  1.00  0.00    -0.206 OA
HETATM   16  O5  UNL     1      -4.779  17.129   3.694  1.00  0.00    -0.206 OA
HETATM   17  N2  UNL     1      -6.335  19.189   4.158  1.00  0.00    -0.306 N 
ATOM     18  H2  UNL     1      -5.661  19.628   4.785  1.00  0.00     0.173 HD
ENDBRANCH   2  10
BRANCH   9  19
HETATM   19  C5  UNL     1      -4.890  22.954   6.918  1.00  0.00     0.178 C 
BRANCH  19  20
HETATM   20  S3  UNL     1      -3.863  24.296   7.513  1.00  0.00     0.252 S 
HETATM   21  O2  UNL     1      -2.260  23.793   7.536  1.00  0.00    -0.212 OA
HETATM   22  O3  UNL     1      -4.382  24.829   9.007  1.00  0.00    -0.212 OA
ENDBRANCH  19  20
ENDBRANCH   9  19
TORSDOF 3
ENDMDL
MODEL 3
REMARK VINA RESULT: -7.654161302      0.784      1.166
REMARK  3 active torsions:
REMARK  status: ('A' for Active; 'I' for Inactive)
REMARK       I    between atoms: C1_2  and  N1_3 
REMARK    1  A    between atoms: C1_2  and  C6_14 
REMARK    2  A    between atoms: C4_9  and  C5_10 
REMARK    3  A    between atoms: C5_10  and  S3_11 
ROOT
HETATM    1  O1  UNL     1      -7.017  21.858   2.094  1.00  0.00    -0.271 OA
HETATM    2  C1  UNL     1      -7.016  21.685   3.360  1.00  0.00     0.245 C 
HETATM    3  N1  UNL     1      -6.874  22.839   4.150  1.00  0.00    -0.331 N 
ATOM      4  H1  UNL     1      -7.688  23.438   4.294  1.00  0.00     0.168 HD
HETATM    5  C2  UNL     1      -5.745  23.174   4.706  1.00  0.00     0.015 C 
HETATM    6  C3  UNL     1      -4.487  22.397   4.580  1.00  0.00     0.140 C 
HETATM    7  S1  UNL     1      -3.250  23.585   3.901  1.00  0.00    -0.091 SA
HETATM    8  S2  UNL     1      -4.346  25.345   4.532  1.00  0.00    -0.086 SA
HETATM    9  C4  UNL     1      -5.542  24.378   5.548  1.00  0.00     0.119 C 
ENDROOT
BRANCH   2  10
HETATM   10  C6  UNL     1      -7.160  20.316   3.933  1.00  0.00     0.185 C 
HETATM   11  C7  UNL     1      -8.170  19.583   3.100  1.00  0.00     0.036 C 
HETATM   12  C8  UNL     1      -8.357  18.198   3.698  1.00  0.00     0.019 C 
HETATM   13  C9  UNL     1      -7.266  17.329   3.069  1.00  0.00     0.163 C 
HETATM   14  S4  UNL     1      -5.749  18.227   3.150  1.00  0.00     0.227 S 
HETATM   15  O4  UNL     1      -5.243  18.508   1.751  1.00  0.00    -0.206 OA
HETATM   16  O5  UNL     1      -4.721  17.358   3.818  1.00  0.00    -0.206 OA
HETATM   17  N2  UNL     1      -5.882  19.703   4.001  1.00  0.00    -0.306 N 
ATOM     18  H2  UNL     1      -5.103  20.111   4.518  1.00  0.00     0.173 HD
ENDBRANCH   2  10
BRANCH   9  19
HETATM   19  C5  UNL     1      -4.804  23.982   6.790  1.00  0.00     0.178 C 
BRANCH  19  20
HETATM   20  S3  UNL     1      -5.406  24.913   8.198  1.00  0.00     0.252 S 
HETATM   21  O2  UNL     1      -4.262  26.067   8.624  1.00  0.00    -0.212 OA
HETATM   22  O3  UNL     1      -5.788  23.899   9.467  1.00  0.00    -0.212 OA
ENDBRANCH  19  20
ENDBRANCH   9  19
TORSDOF 3
ENDMDL
MODEL 4
REMARK VINA RESULT: -7.326283009      2.446      3.464
REMARK  3 active torsions:
REMARK  status: ('A' for Active; 'I' for Inactive)
REMARK       I    between atoms: C1_2  and  N1_3 
REMARK    1  A    between atoms: C1_2  and  C6_14 
REMARK    2  A    between atoms: C4_9  and  C5_10 
REMARK    3  A    between atoms: C5_10  and  S3_11 
ROOT
HETATM    1  O1  UNL     1      -5.450  19.759   6.387  1.00  0.00    -0.271 OA
HETATM    2  C1  UNL     1      -5.815  20.661   5.560  1.00  0.00     0.245 C 
HETATM    3  N1  UNL     1      -5.003  21.806   5.481  1.00  0.00    -0.331 N 
ATOM      4  H1  UNL     1      -4.135  21.755   4.948  1.00  0.00     0.168 HD
HETATM    5  C2  UNL     1      -5.315  22.929   6.062  1.00  0.00     0.015 C 
HETATM    6  C3  UNL     1      -6.544  23.142   6.867  1.00  0.00     0.140 C 
HETATM    7  S1  UNL     1      -5.951  23.715   8.516  1.00  0.00    -0.091 SA
HETATM    8  S2  UNL     1      -4.020  24.368   7.780  1.00  0.00    -0.086 SA
HETATM    9  C4  UNL     1      -4.496  24.164   6.010  1.00  0.00     0.119 C 
ENDROOT
BRANCH   2  10
HETATM   10  C6  UNL     1      -7.045  20.476   4.736  1.00  0.00     0.185 C 
HETATM   11  C7  UNL     1      -6.698  20.835   3.321  1.00  0.00     0.036 C 
HETATM   12  C8  UNL     1      -7.954  20.689   2.478  1.00  0.00     0.019 C 
HETATM   13  C9  UNL     1      -7.994  19.219   2.052  1.00  0.00     0.163 C 
HETATM   14  S4  UNL     1      -7.661  18.237   3.480  1.00  0.00     0.227 S 
HETATM   15  O4  UNL     1      -6.382  17.453   3.277  1.00  0.00    -0.206 OA
HETATM   16  O5  UNL     1      -8.768  17.232   3.631  1.00  0.00    -0.206 OA
HETATM   17  N2  UNL     1      -7.530  19.154   4.916  1.00  0.00    -0.306 N 
ATOM     18  H2  UNL     1      -7.782  18.781   5.831  1.00  0.00     0.173 HD
ENDBRANCH   2  10
BRANCH   9  19
HETATM   19  C5  UNL     1      -5.386  25.323   5.685  1.00  0.00     0.178 C 
BRANCH  19  20
HETATM   20  S3  UNL     1      -5.382  25.639   3.921  1.00  0.00     0.252 S 
HETATM   21  O2  UNL     1      -5.845  27.230   3.646  1.00  0.00    -0.212 OA
HETATM   22  O3  UNL     1      -6.354  24.547   3.116  1.00  0.00    -0.212 OA
ENDBRANCH  19  20
ENDBRANCH   9  19
TORSDOF 3
ENDMDL
MODEL 5
REMARK VINA RESULT: -7.319728032      1.287      1.444
REMARK  3 active torsions:
REMARK  status: ('A' for Active; 'I' for Inactive)
REMARK       I    between atoms: C1_2  and  N1_3 
REMARK    1  A    between atoms: C1_2  and  C6_14 
REMARK    2  A    between atoms: C4_9  and  C5_10 
REMARK    3  A    between atoms: C5_10  and  S3_11 
ROOT
HETATM    1  O1  UNL     1      -6.180  22.521   2.597  1.00  0.00    -0.271 OA
HETATM    2  C1  UNL     1      -6.397  22.263   3.829  1.00  0.00     0.245 C 
HETATM    3  N1  UNL     1      -6.409  23.361   4.707  1.00  0.00    -0.331 N 
ATOM      4  H1  UNL     1      -7.242  23.948   4.747  1.00  0.00     0.168 HD
HETATM    5  C2  UNL     1      -5.397  23.659   5.472  1.00  0.00     0.015 C 
HETATM    6  C3  UNL     1      -4.126  22.893   5.515  1.00  0.00     0.140 C 
HETATM    7  S1  UNL     1      -2.805  24.124   5.141  1.00  0.00    -0.091 SA
HETATM    8  S2  UNL     1      -4.016  25.837   5.687  1.00  0.00    -0.086 SA
HETATM    9  C4  UNL     1      -5.358  24.803   6.414  1.00  0.00     0.119 C 
ENDROOT
BRANCH   2  10
HETATM   10  C6  UNL     1      -6.621  20.858   4.277  1.00  0.00     0.185 C 
HETATM   11  C7  UNL     1      -7.733  20.292   3.444  1.00  0.00     0.036 C 
HETATM   12  C8  UNL     1      -7.999  18.872   3.917  1.00  0.00     0.019 C 
HETATM   13  C9  UNL     1      -7.021  17.990   3.139  1.00  0.00     0.163 C 
HETATM   14  S4  UNL     1      -5.433  18.757   3.209  1.00  0.00     0.227 S 
HETATM   15  O4  UNL     1      -4.984  19.137   1.814  1.00  0.00    -0.206 OA
HETATM   16  O5  UNL     1      -4.444  17.749   3.725  1.00  0.00    -0.206 OA
HETATM   17  N2  UNL     1      -5.396  20.145   4.205  1.00  0.00    -0.306 N 
ATOM     18  H2  UNL     1      -4.559  20.439   4.708  1.00  0.00     0.173 HD
ENDBRANCH   2  10
BRANCH   9  19
HETATM   19  C5  UNL     1      -4.841  24.325   7.736  1.00  0.00     0.178 C 
BRANCH  19  20
HETATM   20  S3  UNL     1      -6.118  23.431   8.620  1.00  0.00     0.252 S 
HETATM   21  O2  UNL     1      -7.214  22.800   7.514  1.00  0.00    -0.212 OA
HETATM   22  O3  UNL     1      -6.854  24.406   9.757  1.00  0.00    -0.212 OA
ENDBRANCH  19  20
ENDBRANCH   9  19
TORSDOF 3
ENDMDL
