MODEL 1
REMARK VINA RESULT: -5.239116865      0.000      0.000
REMARK  6 active torsions:
REMARK  status: ('A' for Active; 'I' for Inactive)
REMARK    1  A    between atoms: N1_1  and  C1_5 
REMARK    2  A    between atoms: C3_7  and  N2_8 
REMARK    3  A    between atoms: N2_8  and  C4_9 
REMARK    4  A    between atoms: N2_8  and  S1_11 
REMARK    5  A    between atoms: S1_11  and  N3_12 
REMARK    6  A    between atoms: C5_17  and  N4_18 
ROOT
HETATM    1  C1  UNL     1      19.466  61.981  28.152  1.00  0.00     0.217 C 
HETATM    2  C2  UNL     1      20.702  61.765  27.312  1.00  0.00     0.063 C 
HETATM    3  C3  UNL     1      21.336  61.064  28.520  1.00  0.00     0.138 C 
HETATM    4  C5  UNL     1      20.320  61.682  29.382  1.00  0.00     0.237 C 
ENDROOT
BRANCH   3   5
HETATM    5  N2  UNL     1      22.679  61.251  28.574  1.00  0.00    -0.253 N 
BRANCH   5   6
HETATM    6  C4  UNL     1      23.552  61.662  27.602  1.00  0.00     0.189 C 
HETATM    7 CL1  UNL     1      24.513  60.340  26.841  1.00  0.00    -0.077 Cl
ENDBRANCH   5   6
BRANCH   5   8
HETATM    8  S1  UNL     1      23.443  60.892  30.070  1.00  0.00     0.319 S 
HETATM    9  O1  UNL     1      22.447  60.911  31.192  1.00  0.00    -0.182 OA
HETATM   10  O2  UNL     1      24.074  59.519  29.921  1.00  0.00    -0.182 OA
BRANCH   8  11
HETATM   11  N3  UNL     1      24.726  62.007  30.307  1.00  0.00    -0.311 N 
ATOM     12  H32 UNL     1      25.634  61.961  29.845  1.00  0.00     0.170 HD
ATOM     13  H31 UNL     1      24.423  62.712  30.980  1.00  0.00     0.170 HD
ENDBRANCH   8  11
ENDBRANCH   5   8
ENDBRANCH   3   5
BRANCH   4  14
HETATM   14  N4  UNL     1      20.590  62.853  30.122  1.00  0.00    -0.071 N 
ATOM     15  H43 UNL     1      21.269  63.447  29.645  1.00  0.00     0.274 HD
ATOM     16  H42 UNL     1      19.792  63.489  30.118  1.00  0.00     0.274 HD
ATOM     17  H41 UNL     1      20.888  62.635  31.072  1.00  0.00     0.274 HD
ENDBRANCH   4  14
BRANCH   1  18
HETATM   18  N1  UNL     1      18.987  63.323  28.049  1.00  0.00    -0.073 N 
ATOM     19  H13 UNL     1      18.010  63.392  28.334  1.00  0.00     0.274 HD
ATOM     20  H12 UNL     1      19.403  63.922  28.763  1.00  0.00     0.274 HD
ATOM     21  H11 UNL     1      19.130  63.702  27.114  1.00  0.00     0.274 HD
ENDBRANCH   1  18
TORSDOF 6
ENDMDL
MODEL 2
REMARK VINA RESULT: -5.142153476      0.995      1.191
REMARK  6 active torsions:
REMARK  status: ('A' for Active; 'I' for Inactive)
REMARK    1  A    between atoms: N1_1  and  C1_5 
REMARK    2  A    between atoms: C3_7  and  N2_8 
REMARK    3  A    between atoms: N2_8  and  C4_9 
REMARK    4  A    between atoms: N2_8  and  S1_11 
REMARK    5  A    between atoms: S1_11  and  N3_12 
REMARK    6  A    between atoms: C5_17  and  N4_18 
ROOT
HETATM    1  C1  UNL     1      19.502  62.069  28.253  1.00  0.00     0.217 C 
HETATM    2  C2  UNL     1      20.706  61.853  27.368  1.00  0.00     0.063 C 
HETATM    3  C3  UNL     1      21.370  61.120  28.541  1.00  0.00     0.138 C 
HETATM    4  C5  UNL     1      20.392  61.736  29.448  1.00  0.00     0.237 C 
ENDROOT
BRANCH   3   5
HETATM    5  N2  UNL     1      22.716  61.288  28.553  1.00  0.00    -0.253 N 
BRANCH   5   6
HETATM    6  C4  UNL     1      23.569  61.655  27.545  1.00  0.00     0.189 C 
HETATM    7 CL1  UNL     1      24.495  60.295  26.806  1.00  0.00    -0.077 Cl
ENDBRANCH   5   6
BRANCH   5   8
HETATM    8  S1  UNL     1      23.516  60.964  30.039  1.00  0.00     0.319 S 
HETATM    9  O1  UNL     1      24.428  62.097  30.407  1.00  0.00    -0.182 OA
HETATM   10  O2  UNL     1      22.434  60.770  31.085  1.00  0.00    -0.182 OA
BRANCH   8  11
HETATM   11  N3  UNL     1      24.345  59.468  29.895  1.00  0.00    -0.311 N 
ATOM     12  H32 UNL     1      23.927  58.597  29.570  1.00  0.00     0.170 HD
ATOM     13  H31 UNL     1      25.313  59.605  30.188  1.00  0.00     0.170 HD
ENDBRANCH   8  11
ENDBRANCH   5   8
ENDBRANCH   3   5
BRANCH   4  14
HETATM   14  N4  UNL     1      20.703  62.889  30.200  1.00  0.00    -0.071 N 
ATOM     15  H43 UNL     1      21.656  63.206  30.019  1.00  0.00     0.274 HD
ATOM     16  H42 UNL     1      20.196  63.705  29.858  1.00  0.00     0.274 HD
ATOM     17  H41 UNL     1      20.543  62.740  31.196  1.00  0.00     0.274 HD
ENDBRANCH   4  14
BRANCH   1  18
HETATM   18  N1  UNL     1      19.039  63.420  28.192  1.00  0.00    -0.073 N 
ATOM     19  H13 UNL     1      19.335  63.952  29.010  1.00  0.00     0.274 HD
ATOM     20  H12 UNL     1      19.530  63.949  27.471  1.00  0.00     0.274 HD
ATOM     21  H11 UNL     1      18.028  63.465  28.064  1.00  0.00     0.274 HD
ENDBRANCH   1  18
TORSDOF 6
ENDMDL
MODEL 3
REMARK VINA RESULT: -5.076347005      2.981      4.519
REMARK  6 active torsions:
REMARK  status: ('A' for Active; 'I' for Inactive)
REMARK    1  A    between atoms: N1_1  and  C1_5 
REMARK    2  A    between atoms: C3_7  and  N2_8 
REMARK    3  A    between atoms: N2_8  and  C4_9 
REMARK    4  A    between atoms: N2_8  and  S1_11 
REMARK    5  A    between atoms: S1_11  and  N3_12 
REMARK    6  A    between atoms: C5_17  and  N4_18 
ROOT
HETATM    1  C1  UNL     1      24.276  60.734  27.820  1.00  0.00     0.217 C 
HETATM    2  C2  UNL     1      22.811  60.384  27.719  1.00  0.00     0.063 C 
HETATM    3  C3  UNL     1      22.492  61.840  28.081  1.00  0.00     0.138 C 
HETATM    4  C5  UNL     1      23.864  61.989  28.584  1.00  0.00     0.237 C 
ENDROOT
BRANCH   3   5
HETATM    5  N2  UNL     1      21.343  61.951  28.793  1.00  0.00    -0.253 N 
BRANCH   5   6
HETATM    6  C4  UNL     1      21.141  61.945  30.148  1.00  0.00     0.189 C 
HETATM    7 CL1  UNL     1      21.753  60.476  30.997  1.00  0.00    -0.077 Cl
ENDBRANCH   5   6
BRANCH   5   8
HETATM    8  S1  UNL     1      19.890  62.088  27.887  1.00  0.00     0.319 S 
HETATM    9  O1  UNL     1      20.182  62.093  26.415  1.00  0.00    -0.182 OA
HETATM   10  O2  UNL     1      19.021  60.903  28.270  1.00  0.00    -0.182 OA
BRANCH   8  11
HETATM   11  N3  UNL     1      19.060  63.500  28.400  1.00  0.00    -0.311 N 
ATOM     12  H32 UNL     1      19.230  64.440  28.043  1.00  0.00     0.170 HD
ATOM     13  H31 UNL     1      18.379  63.235  29.112  1.00  0.00     0.170 HD
ENDBRANCH   8  11
ENDBRANCH   5   8
ENDBRANCH   3   5
BRANCH   4  14
HETATM   14  N4  UNL     1      24.164  61.881  29.959  1.00  0.00    -0.071 N 
ATOM     15  H43 UNL     1      24.137  60.910  30.272  1.00  0.00     0.274 HD
ATOM     16  H42 UNL     1      25.148  62.079  30.143  1.00  0.00     0.274 HD
ATOM     17  H41 UNL     1      23.553  62.471  30.523  1.00  0.00     0.274 HD
ENDBRANCH   4  14
BRANCH   1  18
HETATM   18  N1  UNL     1      24.998  59.763  28.580  1.00  0.00    -0.073 N 
ATOM     19  H13 UNL     1      24.631  58.823  28.428  1.00  0.00     0.274 HD
ATOM     20  H12 UNL     1      25.940  59.628  28.211  1.00  0.00     0.274 HD
ATOM     21  H11 UNL     1      25.017  59.999  29.572  1.00  0.00     0.274 HD
ENDBRANCH   1  18
TORSDOF 6
ENDMDL
MODEL 4
REMARK VINA RESULT: -5.035961298      3.404      4.657
REMARK  6 active torsions:
REMARK  status: ('A' for Active; 'I' for Inactive)
REMARK    1  A    between atoms: N1_1  and  C1_5 
REMARK    2  A    between atoms: C3_7  and  N2_8 
REMARK    3  A    between atoms: N2_8  and  C4_9 
REMARK    4  A    between atoms: N2_8  and  S1_11 
REMARK    5  A    between atoms: S1_11  and  N3_12 
REMARK    6  A    between atoms: C5_17  and  N4_18 
ROOT
HETATM    1  C1  UNL     1      24.497  60.781  28.769  1.00  0.00     0.217 C 
HETATM    2  C2  UNL     1      23.229  60.407  28.039  1.00  0.00     0.063 C 
HETATM    3  C3  UNL     1      22.653  61.768  28.450  1.00  0.00     0.138 C 
HETATM    4  C5  UNL     1      23.698  61.873  29.477  1.00  0.00     0.237 C 
ENDROOT
BRANCH   3   5
HETATM    5  N2  UNL     1      21.312  61.718  28.649  1.00  0.00    -0.253 N 
BRANCH   5   6
HETATM    6  C4  UNL     1      20.592  61.755  29.814  1.00  0.00     0.189 C 
HETATM    7 CL1  UNL     1      19.725  63.307  30.117  1.00  0.00    -0.077 Cl
ENDBRANCH   5   6
BRANCH   5   8
HETATM    8  S1  UNL     1      20.335  61.545  27.247  1.00  0.00     0.319 S 
HETATM    9  O1  UNL     1      18.880  61.625  27.603  1.00  0.00    -0.182 OA
HETATM   10  O2  UNL     1      20.730  62.662  26.297  1.00  0.00    -0.182 OA
BRANCH   8  11
HETATM   11  N3  UNL     1      20.746  60.068  26.476  1.00  0.00    -0.311 N 
ATOM     12  H32 UNL     1      21.382  59.367  26.855  1.00  0.00     0.170 HD
ATOM     13  H31 UNL     1      20.248  60.017  25.587  1.00  0.00     0.170 HD
ENDBRANCH   8  11
ENDBRANCH   5   8
ENDBRANCH   3   5
BRANCH   4  14
HETATM   14  N4  UNL     1      23.447  61.539  30.825  1.00  0.00    -0.071 N 
ATOM     15  H43 UNL     1      24.027  60.756  31.130  1.00  0.00     0.274 HD
ATOM     16  H42 UNL     1      23.802  62.255  31.459  1.00  0.00     0.274 HD
ATOM     17  H41 UNL     1      22.457  61.354  30.987  1.00  0.00     0.274 HD
ENDBRANCH   4  14
BRANCH   1  18
HETATM   18  N1  UNL     1      24.957  59.718  29.605  1.00  0.00    -0.073 N 
ATOM     19  H13 UNL     1      24.972  59.996  30.586  1.00  0.00     0.274 HD
ATOM     20  H12 UNL     1      24.270  58.966  29.662  1.00  0.00     0.274 HD
ATOM     21  H11 UNL     1      25.867  59.369  29.303  1.00  0.00     0.274 HD
ENDBRANCH   1  18
TORSDOF 6
ENDMDL
MODEL 5
REMARK VINA RESULT: -5.027263216      1.014      1.311
REMARK  6 active torsions:
REMARK  status: ('A' for Active; 'I' for Inactive)
REMARK    1  A    between atoms: N1_1  and  C1_5 
REMARK    2  A    between atoms: C3_7  and  N2_8 
REMARK    3  A    between atoms: N2_8  and  C4_9 
REMARK    4  A    between atoms: N2_8  and  S1_11 
REMARK    5  A    between atoms: S1_11  and  N3_12 
REMARK    6  A    between atoms: C5_17  and  N4_18 
ROOT
HETATM    1  C1  UNL     1      19.417  61.993  28.088  1.00  0.00     0.217 C 
HETATM    2  C2  UNL     1      20.687  61.709  27.322  1.00  0.00     0.063 C 
HETATM    3  C3  UNL     1      21.253  61.074  28.599  1.00  0.00     0.138 C 
HETATM    4  C5  UNL     1      20.207  61.758  29.372  1.00  0.00     0.237 C 
ENDROOT
BRANCH   3   5
HETATM    5  N2  UNL     1      22.594  61.246  28.706  1.00  0.00    -0.253 N 
BRANCH   5   6
HETATM    6  C4  UNL     1      23.494  61.748  27.802  1.00  0.00     0.189 C 
HETATM    7 CL1  UNL     1      24.488  60.505  26.955  1.00  0.00    -0.077 Cl
ENDBRANCH   5   6
BRANCH   5   8
HETATM    8  S1  UNL     1      23.318  60.733  30.176  1.00  0.00     0.319 S 
HETATM    9  O1  UNL     1      24.051  59.438  29.982  1.00  0.00    -0.182 OA
HETATM   10  O2  UNL     1      24.264  61.839  30.608  1.00  0.00    -0.182 OA
BRANCH   8  11
HETATM   11  N3  UNL     1      22.096  60.626  31.376  1.00  0.00    -0.311 N 
ATOM     12  H32 UNL     1      21.194  61.100  31.336  1.00  0.00     0.170 HD
ATOM     13  H31 UNL     1      22.428  60.016  32.123  1.00  0.00     0.170 HD
ENDBRANCH   8  11
ENDBRANCH   5   8
ENDBRANCH   3   5
BRANCH   4  14
HETATM   14  N4  UNL     1      20.462  62.968  30.053  1.00  0.00    -0.071 N 
ATOM     15  H43 UNL     1      21.463  63.147  30.134  1.00  0.00     0.274 HD
ATOM     16  H42 UNL     1      20.202  63.776  29.486  1.00  0.00     0.274 HD
ATOM     17  H41 UNL     1      20.004  62.989  30.963  1.00  0.00     0.274 HD
ENDBRANCH   4  14
BRANCH   1  18
HETATM   18  N1  UNL     1      18.965  63.332  27.882  1.00  0.00    -0.073 N 
ATOM     19  H13 UNL     1      19.711  63.924  27.515  1.00  0.00     0.274 HD
ATOM     20  H12 UNL     1      18.316  63.389  27.097  1.00  0.00     0.274 HD
ATOM     21  H11 UNL     1      18.559  63.727  28.730  1.00  0.00     0.274 HD
ENDBRANCH   1  18
TORSDOF 6
ENDMDL
