MODEL 1
REMARK VINA RESULT: -5.342556242      0.000      0.000
REMARK  5 active torsions:
REMARK  status: ('A' for Active; 'I' for Inactive)
REMARK    1  A    between atoms: N1_2  and  C3_4 
REMARK    2  A    between atoms: N1_2  and  C4_6 
REMARK    3  A    between atoms: C4_6  and  C5_7 
REMARK    4  A    between atoms: C6_9  and  O2_10 
REMARK    5  A    between atoms: C7_15  and  O3_16 
ROOT
HETATM    1  C5  UNL     1      22.424  61.606  28.938  1.00  0.00     0.209 C 
HETATM    2  O1  UNL     1      22.684  61.079  27.706  1.00  0.00    -0.328 OA
HETATM    3  C6  UNL     1      24.069  61.031  27.645  1.00  0.00     0.470 C 
HETATM    4  N2  UNL     1      24.584  60.958  28.970  1.00  0.00     0.004 N 
ATOM      5  H21 UNL     1      25.214  61.721  29.218  1.00  0.00     0.286 HD
ATOM      6  H22 UNL     1      25.259  60.208  29.118  1.00  0.00     0.286 HD
HETATM    7  C7  UNL     1      23.377  60.866  29.812  1.00  0.00     0.355 C 
ENDROOT
BRANCH   1   8
HETATM    8  C4  UNL     1      21.021  61.636  29.371  1.00  0.00     0.274 C 
BRANCH   8   9
HETATM    9  N1  UNL     1      20.008  61.804  28.414  1.00  0.00    -0.060 N 
HETATM   10  C1  UNL     1      20.438  62.234  27.109  1.00  0.00     0.273 C 
HETATM   11  C2  UNL     1      19.115  60.674  28.259  1.00  0.00     0.273 C 
BRANCH   9  12
HETATM   12  C3  UNL     1      19.151  62.899  28.917  1.00  0.00     0.350 C 
HETATM   13 CL1  UNL     1      17.586  62.906  28.111  1.00  0.00    -0.101 Cl
ENDBRANCH   9  12
ENDBRANCH   8   9
ENDBRANCH   1   8
BRANCH   7  14
HETATM   14  O3  UNL     1      23.580  61.505  31.031  1.00  0.00    -0.368 OA
ATOM     15  H3  UNL     1      23.796  60.895  31.726  1.00  0.00     0.212 HD
ENDBRANCH   7  14
BRANCH   3  16
HETATM   16  O2  UNL     1      24.521  59.969  26.861  1.00  0.00    -0.349 OA
ATOM     17  H2  UNL     1      25.102  60.261  26.168  1.00  0.00     0.214 HD
ENDBRANCH   3  16
TORSDOF 5
ENDMDL
MODEL 2
REMARK VINA RESULT: -5.275509038      2.969      4.980
REMARK  5 active torsions:
REMARK  status: ('A' for Active; 'I' for Inactive)
REMARK    1  A    between atoms: N1_2  and  C3_4 
REMARK    2  A    between atoms: N1_2  and  C4_6 
REMARK    3  A    between atoms: C4_6  and  C5_7 
REMARK    4  A    between atoms: C6_9  and  O2_10 
REMARK    5  A    between atoms: C7_15  and  O3_16 
ROOT
HETATM    1  C5  UNL     1      20.949  61.911  28.689  1.00  0.00     0.209 C 
HETATM    2  O1  UNL     1      20.107  62.514  29.577  1.00  0.00    -0.328 OA
HETATM    3  C6  UNL     1      19.260  63.270  28.779  1.00  0.00     0.470 C 
HETATM    4  N2  UNL     1      19.208  62.685  27.483  1.00  0.00     0.004 N 
ATOM      5  H21 UNL     1      19.504  63.305  26.729  1.00  0.00     0.286 HD
ATOM      6  H22 UNL     1      18.263  62.529  27.131  1.00  0.00     0.286 HD
HETATM    7  C7  UNL     1      20.018  61.460  27.617  1.00  0.00     0.355 C 
ENDROOT
BRANCH   1   8
HETATM    8  C4  UNL     1      21.875  60.904  29.223  1.00  0.00     0.274 C 
BRANCH   8   9
HETATM    9  N1  UNL     1      23.253  61.174  29.238  1.00  0.00    -0.060 N 
HETATM   10  C1  UNL     1      23.667  62.295  30.040  1.00  0.00     0.273 C 
HETATM   11  C2  UNL     1      24.098  60.040  29.554  1.00  0.00     0.273 C 
BRANCH   9  12
HETATM   12  C3  UNL     1      23.611  61.539  27.850  1.00  0.00     0.350 C 
HETATM   13 CL1  UNL     1      24.488  60.237  27.054  1.00  0.00    -0.101 Cl
ENDBRANCH   9  12
ENDBRANCH   8   9
ENDBRANCH   1   8
BRANCH   7  14
HETATM   14  O3  UNL     1      20.681  61.178  26.426  1.00  0.00    -0.368 OA
ATOM     15  H3  UNL     1      20.103  61.221  25.674  1.00  0.00     0.212 HD
ENDBRANCH   7  14
BRANCH   3  16
HETATM   16  O2  UNL     1      17.988  63.395  29.338  1.00  0.00    -0.349 OA
ATOM     17  H2  UNL     1      17.329  63.591  28.682  1.00  0.00     0.214 HD
ENDBRANCH   3  16
TORSDOF 5
ENDMDL
MODEL 3
REMARK VINA RESULT: -5.159205333      3.334      5.206
REMARK  5 active torsions:
REMARK  status: ('A' for Active; 'I' for Inactive)
REMARK    1  A    between atoms: N1_2  and  C3_4 
REMARK    2  A    between atoms: N1_2  and  C4_6 
REMARK    3  A    between atoms: C4_6  and  C5_7 
REMARK    4  A    between atoms: C6_9  and  O2_10 
REMARK    5  A    between atoms: C7_15  and  O3_16 
ROOT
HETATM    1  C5  UNL     1      20.203  62.302  29.044  1.00  0.00     0.209 C 
HETATM    2  O1  UNL     1      19.462  63.281  29.641  1.00  0.00    -0.328 OA
HETATM    3  C6  UNL     1      18.540  63.645  28.670  1.00  0.00     0.470 C 
HETATM    4  N2  UNL     1      18.348  62.547  27.785  1.00  0.00     0.004 N 
ATOM      5  H21 UNL     1      18.566  62.750  26.810  1.00  0.00     0.286 HD
ATOM      6  H22 UNL     1      17.371  62.300  27.629  1.00  0.00     0.286 HD
HETATM    7  C7  UNL     1      19.161  61.470  28.379  1.00  0.00     0.355 C 
ENDROOT
BRANCH   1   8
HETATM    8  C4  UNL     1      21.175  61.591  29.885  1.00  0.00     0.274 C 
BRANCH   8   9
HETATM    9  N1  UNL     1      22.517  61.525  29.481  1.00  0.00    -0.060 N 
HETATM   10  C1  UNL     1      22.751  61.571  28.061  1.00  0.00     0.273 C 
HETATM   11  C2  UNL     1      23.402  62.473  30.128  1.00  0.00     0.273 C 
BRANCH   9  12
HETATM   12  C3  UNL     1      23.006  60.196  29.909  1.00  0.00     0.350 C 
HETATM   13 CL1  UNL     1      24.661  59.924  29.377  1.00  0.00    -0.101 Cl
ENDBRANCH   9  12
ENDBRANCH   8   9
ENDBRANCH   1   8
BRANCH   7  14
HETATM   14  O3  UNL     1      19.692  60.653  27.386  1.00  0.00    -0.368 OA
ATOM     15  H3  UNL     1      19.206  60.712  26.572  1.00  0.00     0.212 HD
ENDBRANCH   7  14
BRANCH   3  16
HETATM   16  O2  UNL     1      17.335  64.071  29.228  1.00  0.00    -0.349 OA
ATOM     17  H2  UNL     1      17.374  64.979  29.508  1.00  0.00     0.214 HD
ENDBRANCH   3  16
TORSDOF 5
ENDMDL
MODEL 4
REMARK VINA RESULT: -5.114852706      3.310      5.160
REMARK  5 active torsions:
REMARK  status: ('A' for Active; 'I' for Inactive)
REMARK    1  A    between atoms: N1_2  and  C3_4 
REMARK    2  A    between atoms: N1_2  and  C4_6 
REMARK    3  A    between atoms: C4_6  and  C5_7 
REMARK    4  A    between atoms: C6_9  and  O2_10 
REMARK    5  A    between atoms: C7_15  and  O3_16 
ROOT
HETATM    1  C5  UNL     1      20.203  62.209  29.022  1.00  0.00     0.209 C 
HETATM    2  O1  UNL     1      19.508  63.232  29.599  1.00  0.00    -0.328 OA
HETATM    3  C6  UNL     1      18.577  63.593  28.636  1.00  0.00     0.470 C 
HETATM    4  N2  UNL     1      18.329  62.473  27.794  1.00  0.00     0.004 N 
ATOM      5  H21 UNL     1      18.532  62.635  26.808  1.00  0.00     0.286 HD
ATOM      6  H22 UNL     1      17.342  62.253  27.668  1.00  0.00     0.286 HD
HETATM    7  C7  UNL     1      19.120  61.390  28.409  1.00  0.00     0.355 C 
ENDROOT
BRANCH   1   8
HETATM    8  C4  UNL     1      21.169  61.495  29.867  1.00  0.00     0.274 C 
BRANCH   8   9
HETATM    9  N1  UNL     1      22.494  61.347  29.425  1.00  0.00    -0.060 N 
HETATM   10  C1  UNL     1      23.155  60.129  29.813  1.00  0.00     0.273 C 
HETATM   11  C2  UNL     1      22.694  61.552  28.005  1.00  0.00     0.273 C 
BRANCH   9  12
HETATM   12  C3  UNL     1      23.263  62.428  30.077  1.00  0.00     0.350 C 
HETATM   13 CL1  UNL     1      24.952  61.976  30.279  1.00  0.00    -0.101 Cl
ENDBRANCH   9  12
ENDBRANCH   8   9
ENDBRANCH   1   8
BRANCH   7  14
HETATM   14  O3  UNL     1      19.602  60.522  27.434  1.00  0.00    -0.368 OA
ATOM     15  H3  UNL     1      19.945  59.718  27.805  1.00  0.00     0.212 HD
ENDBRANCH   7  14
BRANCH   3  16
HETATM   16  O2  UNL     1      17.400  64.079  29.204  1.00  0.00    -0.349 OA
ATOM     17  H2  UNL     1      17.507  64.958  29.551  1.00  0.00     0.214 HD
ENDBRANCH   3  16
TORSDOF 5
ENDMDL
MODEL 5
REMARK VINA RESULT: -4.546027010      1.021      2.336
REMARK  5 active torsions:
REMARK  status: ('A' for Active; 'I' for Inactive)
REMARK    1  A    between atoms: N1_2  and  C3_4 
REMARK    2  A    between atoms: N1_2  and  C4_6 
REMARK    3  A    between atoms: C4_6  and  C5_7 
REMARK    4  A    between atoms: C6_9  and  O2_10 
REMARK    5  A    between atoms: C7_15  and  O3_16 
ROOT
HETATM    1  C5  UNL     1      22.686  61.032  28.476  1.00  0.00     0.209 C 
HETATM    2  O1  UNL     1      23.169  61.468  29.675  1.00  0.00    -0.328 OA
HETATM    3  C6  UNL     1      24.251  60.637  29.926  1.00  0.00     0.470 C 
HETATM    4  N2  UNL     1      24.749  60.146  28.687  1.00  0.00     0.004 N 
ATOM      5  H21 UNL     1      24.744  59.129  28.604  1.00  0.00     0.286 HD
ATOM      6  H22 UNL     1      25.755  60.260  28.564  1.00  0.00     0.286 HD
HETATM    7  C7  UNL     1      23.929  60.842  27.677  1.00  0.00     0.355 C 
ENDROOT
BRANCH   1   8
HETATM    8  C4  UNL     1      21.620  61.828  27.854  1.00  0.00     0.274 C 
BRANCH   8   9
HETATM    9  N1  UNL     1      20.317  61.760  28.373  1.00  0.00    -0.060 N 
HETATM   10  C1  UNL     1      19.693  60.464  28.343  1.00  0.00     0.273 C 
HETATM   11  C2  UNL     1      20.153  62.324  29.698  1.00  0.00     0.273 C 
BRANCH   9  12
HETATM   12  C3  UNL     1      19.484  62.609  27.494  1.00  0.00     0.350 C 
HETATM   13 CL1  UNL     1      17.903  62.908  28.207  1.00  0.00    -0.101 Cl
ENDBRANCH   9  12
ENDBRANCH   8   9
ENDBRANCH   1   8
BRANCH   7  14
HETATM   14  O3  UNL     1      23.725  60.030  26.567  1.00  0.00    -0.368 OA
ATOM     15  H3  UNL     1      24.534  59.837  26.107  1.00  0.00     0.212 HD
ENDBRANCH   7  14
BRANCH   3  16
HETATM   16  O2  UNL     1      25.246  61.281  30.660  1.00  0.00    -0.349 OA
ATOM     17  H2  UNL     1      25.416  60.846  31.488  1.00  0.00     0.214 HD
ENDBRANCH   3  16
TORSDOF 5
ENDMDL
