MODEL 1
REMARK VINA RESULT: -4.164967752      0.000      0.000
REMARK  5 active torsions:
REMARK  status: ('A' for Active; 'I' for Inactive)
REMARK    1  A    between atoms: N1_2  and  C4_5 
REMARK    2  A    between atoms: C4_5  and  C5_6 
REMARK    3  A    between atoms: C6_9  and  C7_10 
REMARK    4  A    between atoms: C8_12  and  O2_13 
REMARK    5  A    between atoms: C9_15  and  O3_16 
ROOT
HETATM    1  C5  UNL     1      21.643  61.730  28.457  1.00  0.00     0.164 C 
HETATM    2  N2  UNL     1      20.973  61.333  27.262  1.00  0.00    -0.091 NA
HETATM    3  O1  UNL     1      19.630  61.299  27.379  1.00  0.00    -0.276 OA
HETATM    4  C6  UNL     1      19.084  62.555  27.607  1.00  0.00     0.207 C 
HETATM    5  C8  UNL     1      19.707  63.156  28.866  1.00  0.00     0.181 C 
HETATM    6  C9  UNL     1      20.547  62.053  29.483  1.00  0.00     0.172 C 
ENDROOT
BRANCH   1   7
HETATM    7  C4  UNL     1      22.498  60.670  29.068  1.00  0.00     0.262 C 
BRANCH   7   8
HETATM    8  N1  UNL     1      23.890  60.901  29.037  1.00  0.00    -0.077 N 
HETATM    9  C1  UNL     1      24.348  62.095  29.666  1.00  0.00     0.271 C 
HETATM   10  C2  UNL     1      24.621  59.779  29.622  1.00  0.00     0.271 C 
HETATM   11  C3  UNL     1      24.309  60.943  27.628  1.00  0.00     0.271 C 
ENDBRANCH   7   8
ENDBRANCH   1   7
BRANCH   6  12
HETATM   12  O3  UNL     1      21.065  62.387  30.708  1.00  0.00    -0.391 OA
ATOM     13  H3  UNL     1      20.612  61.953  31.421  1.00  0.00     0.210 HD
ENDBRANCH   6  12
BRANCH   5  14
HETATM   14  O2  UNL     1      18.750  63.603  29.748  1.00  0.00    -0.390 OA
ATOM     15  H2  UNL     1      18.968  64.455  30.106  1.00  0.00     0.210 HD
ENDBRANCH   5  14
BRANCH   4  16
HETATM   16  C7  UNL     1      17.609  62.329  27.942  1.00  0.00     0.258 C 
HETATM   17  F1  UNL     1      16.877  63.376  27.459  1.00  0.00    -0.253 F 
ENDBRANCH   4  16
TORSDOF 5
ENDMDL
MODEL 2
REMARK VINA RESULT: -4.127926374      0.083      1.061
REMARK  5 active torsions:
REMARK  status: ('A' for Active; 'I' for Inactive)
REMARK    1  A    between atoms: N1_2  and  C4_5 
REMARK    2  A    between atoms: C4_5  and  C5_6 
REMARK    3  A    between atoms: C6_9  and  C7_10 
REMARK    4  A    between atoms: C8_12  and  O2_13 
REMARK    5  A    between atoms: C9_15  and  O3_16 
ROOT
HETATM    1  C5  UNL     1      21.589  61.745  28.442  1.00  0.00     0.164 C 
HETATM    2  N2  UNL     1      20.927  61.368  27.237  1.00  0.00    -0.091 NA
HETATM    3  O1  UNL     1      19.584  61.327  27.345  1.00  0.00    -0.276 OA
HETATM    4  C6  UNL     1      19.032  62.576  27.594  1.00  0.00     0.207 C 
HETATM    5  C8  UNL     1      19.646  63.155  28.867  1.00  0.00     0.181 C 
HETATM    6  C9  UNL     1      20.487  62.045  29.468  1.00  0.00     0.172 C 
ENDROOT
BRANCH   1   7
HETATM    7  C4  UNL     1      22.445  60.677  29.038  1.00  0.00     0.262 C 
BRANCH   7   8
HETATM    8  N1  UNL     1      23.840  60.857  28.912  1.00  0.00    -0.077 N 
HETATM    9  C1  UNL     1      24.360  60.865  27.585  1.00  0.00     0.271 C 
HETATM   10  C2  UNL     1      24.272  62.090  29.568  1.00  0.00     0.271 C 
HETATM   11  C3  UNL     1      24.503  59.773  29.652  1.00  0.00     0.271 C 
ENDBRANCH   7   8
ENDBRANCH   1   7
BRANCH   6  12
HETATM   12  O3  UNL     1      20.998  62.358  30.702  1.00  0.00    -0.391 OA
ATOM     13  H3  UNL     1      20.864  61.662  31.334  1.00  0.00     0.210 HD
ENDBRANCH   6  12
BRANCH   5  14
HETATM   14  O2  UNL     1      18.683  63.582  29.753  1.00  0.00    -0.390 OA
ATOM     15  H2  UNL     1      18.987  63.547  30.652  1.00  0.00     0.210 HD
ENDBRANCH   5  14
BRANCH   4  16
HETATM   16  C7  UNL     1      17.556  62.339  27.917  1.00  0.00     0.258 C 
HETATM   17  F1  UNL     1      16.826  63.402  27.470  1.00  0.00    -0.253 F 
ENDBRANCH   4  16
TORSDOF 5
ENDMDL
MODEL 3
REMARK VINA RESULT: -4.116819945      0.061      1.047
REMARK  5 active torsions:
REMARK  status: ('A' for Active; 'I' for Inactive)
REMARK    1  A    between atoms: N1_2  and  C4_5 
REMARK    2  A    between atoms: C4_5  and  C5_6 
REMARK    3  A    between atoms: C6_9  and  C7_10 
REMARK    4  A    between atoms: C8_12  and  O2_13 
REMARK    5  A    between atoms: C9_15  and  O3_16 
ROOT
HETATM    1  C5  UNL     1      21.652  61.720  28.510  1.00  0.00     0.164 C 
HETATM    2  N2  UNL     1      21.000  61.300  27.313  1.00  0.00    -0.091 NA
HETATM    3  O1  UNL     1      19.655  61.268  27.410  1.00  0.00    -0.276 OA
HETATM    4  C6  UNL     1      19.107  62.529  27.605  1.00  0.00     0.207 C 
HETATM    5  C8  UNL     1      19.710  63.154  28.861  1.00  0.00     0.181 C 
HETATM    6  C9  UNL     1      20.540  62.065  29.513  1.00  0.00     0.172 C 
ENDROOT
BRANCH   1   7
HETATM    7  C4  UNL     1      22.497  60.673  29.155  1.00  0.00     0.262 C 
BRANCH   7   8
HETATM    8  N1  UNL     1      23.893  60.822  29.004  1.00  0.00    -0.077 N 
HETATM    9  C1  UNL     1      24.703  59.793  29.564  1.00  0.00     0.271 C 
HETATM   10  C2  UNL     1      24.256  60.960  27.596  1.00  0.00     0.271 C 
HETATM   11  C3  UNL     1      24.281  62.096  29.630  1.00  0.00     0.271 C 
ENDBRANCH   7   8
ENDBRANCH   1   7
BRANCH   6  12
HETATM   12  O3  UNL     1      21.041  62.423  30.739  1.00  0.00    -0.391 OA
ATOM     13  H3  UNL     1      20.381  62.387  31.421  1.00  0.00     0.210 HD
ENDBRANCH   6  12
BRANCH   5  14
HETATM   14  O2  UNL     1      18.740  63.619  29.720  1.00  0.00    -0.390 OA
ATOM     15  H2  UNL     1      17.921  63.788  29.270  1.00  0.00     0.210 HD
ENDBRANCH   5  14
BRANCH   4  16
HETATM   16  C7  UNL     1      17.626  62.310  27.922  1.00  0.00     0.258 C 
HETATM   17  F1  UNL     1      16.903  63.349  27.409  1.00  0.00    -0.253 F 
ENDBRANCH   4  16
TORSDOF 5
ENDMDL
MODEL 4
REMARK VINA RESULT: -4.110718061      1.524      2.318
REMARK  5 active torsions:
REMARK  status: ('A' for Active; 'I' for Inactive)
REMARK    1  A    between atoms: N1_2  and  C4_5 
REMARK    2  A    between atoms: C4_5  and  C5_6 
REMARK    3  A    between atoms: C6_9  and  C7_10 
REMARK    4  A    between atoms: C8_12  and  O2_13 
REMARK    5  A    between atoms: C9_15  and  O3_16 
ROOT
HETATM    1  C5  UNL     1      21.898  61.479  29.520  1.00  0.00     0.164 C 
HETATM    2  N2  UNL     1      21.010  62.018  30.496  1.00  0.00    -0.091 NA
HETATM    3  O1  UNL     1      20.102  62.876  29.989  1.00  0.00    -0.276 OA
HETATM    4  C6  UNL     1      19.219  62.258  29.113  1.00  0.00     0.207 C 
HETATM    5  C8  UNL     1      20.007  61.597  27.984  1.00  0.00     0.181 C 
HETATM    6  C9  UNL     1      21.447  62.042  28.163  1.00  0.00     0.172 C 
ENDROOT
BRANCH   1   7
HETATM    7  C4  UNL     1      23.326  61.879  29.691  1.00  0.00     0.262 C 
BRANCH   7   8
HETATM    8  N1  UNL     1      24.271  60.830  29.675  1.00  0.00    -0.077 N 
HETATM    9  C1  UNL     1      24.719  60.402  28.392  1.00  0.00     0.271 C 
HETATM   10  C2  UNL     1      25.449  61.174  30.468  1.00  0.00     0.271 C 
HETATM   11  C3  UNL     1      23.671  59.672  30.356  1.00  0.00     0.271 C 
ENDBRANCH   7   8
ENDBRANCH   1   7
BRANCH   6  12
HETATM   12  O3  UNL     1      22.268  61.647  27.138  1.00  0.00    -0.391 OA
ATOM     13  H3  UNL     1      22.694  62.383  26.715  1.00  0.00     0.210 HD
ENDBRANCH   6  12
BRANCH   5  14
HETATM   14  O2  UNL     1      19.528  61.958  26.745  1.00  0.00    -0.390 OA
ATOM     15  H2  UNL     1      20.121  61.704  26.048  1.00  0.00     0.210 HD
ENDBRANCH   5  14
BRANCH   4  16
HETATM   16  C7  UNL     1      18.412  63.378  28.454  1.00  0.00     0.258 C 
HETATM   17  F1  UNL     1      17.099  63.007  28.400  1.00  0.00    -0.253 F 
ENDBRANCH   4  16
TORSDOF 5
ENDMDL
MODEL 5
REMARK VINA RESULT: -4.103295561      1.507      2.329
REMARK  5 active torsions:
REMARK  status: ('A' for Active; 'I' for Inactive)
REMARK    1  A    between atoms: N1_2  and  C4_5 
REMARK    2  A    between atoms: C4_5  and  C5_6 
REMARK    3  A    between atoms: C6_9  and  C7_10 
REMARK    4  A    between atoms: C8_12  and  O2_13 
REMARK    5  A    between atoms: C9_15  and  O3_16 
ROOT
HETATM    1  C5  UNL     1      21.889  61.467  29.504  1.00  0.00     0.164 C 
HETATM    2  N2  UNL     1      21.020  62.011  30.495  1.00  0.00    -0.091 NA
HETATM    3  O1  UNL     1      20.117  62.885  30.005  1.00  0.00    -0.276 OA
HETATM    4  C6  UNL     1      19.216  62.287  29.135  1.00  0.00     0.207 C 
HETATM    5  C8  UNL     1      19.981  61.624  27.991  1.00  0.00     0.181 C 
HETATM    6  C9  UNL     1      21.429  62.047  28.157  1.00  0.00     0.172 C 
ENDROOT
BRANCH   1   7
HETATM    7  C4  UNL     1      23.323  61.847  29.661  1.00  0.00     0.262 C 
BRANCH   7   8
HETATM    8  N1  UNL     1      24.247  60.779  29.700  1.00  0.00    -0.077 N 
HETATM    9  C1  UNL     1      23.798  59.575  30.314  1.00  0.00     0.271 C 
HETATM   10  C2  UNL     1      24.720  60.447  28.358  1.00  0.00     0.271 C 
HETATM   11  C3  UNL     1      25.440  61.241  30.427  1.00  0.00     0.271 C 
ENDBRANCH   7   8
ENDBRANCH   1   7
BRANCH   6  12
HETATM   12  O3  UNL     1      22.233  61.648  27.120  1.00  0.00    -0.391 OA
ATOM     13  H3  UNL     1      22.016  60.776  26.812  1.00  0.00     0.210 HD
ENDBRANCH   6  12
BRANCH   5  14
HETATM   14  O2  UNL     1      19.493  62.000  26.761  1.00  0.00    -0.390 OA
ATOM     15  H2  UNL     1      20.015  62.689  26.368  1.00  0.00     0.210 HD
ENDBRANCH   5  14
BRANCH   4  16
HETATM   16  C7  UNL     1      18.417  63.422  28.495  1.00  0.00     0.258 C 
HETATM   17  F1  UNL     1      17.097  63.072  28.458  1.00  0.00    -0.253 F 
ENDBRANCH   4  16
TORSDOF 5
ENDMDL
