MODEL 1
REMARK VINA RESULT: -8.631784738      0.000      0.000
REMARK  16 active torsions:
REMARK  status: ('A' for Active; 'I' for Inactive)
REMARK    1  A    between atoms: C2_2  and  O1_3 
REMARK    2  A    between atoms: N1_6  and  C4_7 
REMARK    3  A    between atoms: C5_10  and  N3_11 
REMARK    4  A    between atoms: C7_17  and  O2_18 
REMARK    5  A    between atoms: O2_18  and  C8_19 
REMARK    6  A    between atoms: C8_19  and  C9_21 
REMARK    7  A    between atoms: C11_26  and  C12_27 
REMARK    8  A    between atoms: C12_27  and  O5_28 
REMARK    9  A    between atoms: C12_27  and  C13_30 
REMARK   10  A    between atoms: C13_30  and  O6_31 
REMARK   11  A    between atoms: C13_30  and  C14_33 
REMARK   12  A    between atoms: C14_33  and  O7_34 
REMARK   13  A    between atoms: C14_33  and  C15_36 
REMARK   14  A    between atoms: C15_36  and  O8_37 
REMARK   15  A    between atoms: C16_39  and  C17_40 
REMARK   16  A    between atoms: C18_44  and  C19_45 
ROOT
HETATM    1  C4  UNL     1       3.145  19.715  16.114  1.00  0.00     0.708 A 
HETATM    2  N2  UNL     1       1.798  20.166  16.055  1.00  0.00    -0.022 N 
ATOM      3  H2  UNL     1       1.325  20.371  16.935  1.00  0.00     0.203 HD
HETATM    4  C5  UNL     1       1.132  20.335  14.954  1.00  0.00     0.692 A 
HETATM    5  N4  UNL     1       1.714  20.080  13.799  1.00  0.00    -0.172 N 
ATOM      6  H4  UNL     1       1.207  20.204  12.923  1.00  0.00     0.186 HD
HETATM    7  C6  UNL     1       2.999  19.647  13.800  1.00  0.00     0.183 A 
HETATM    8  C7  UNL     1       3.523  19.366  12.571  1.00  0.00     0.175 A 
HETATM    9  C10 UNL     1       4.791  18.897  12.507  1.00  0.00     0.221 A 
HETATM   10  O4  UNL     1       5.226  18.644  11.326  1.00  0.00    -0.284 OA
HETATM   11  C11 UNL     1       5.593  18.692  13.628  1.00  0.00     0.061 A 
HETATM   12  C16 UNL     1       5.006  18.992  14.874  1.00  0.00     0.148 A 
HETATM   13  N5  UNL     1       3.719  19.464  14.947  1.00  0.00    -0.121 N 
ENDROOT
BRANCH   1  14
HETATM   14  N1  UNL     1       3.524  19.624  17.450  1.00  0.00    -0.172 N 
HETATM   15  C3  UNL     1       3.190  18.505  18.254  1.00  0.00     0.215 C 
HETATM   16  C2  UNL     1       3.552  18.678  19.711  1.00  0.00     0.175 C 
HETATM   17  C1  UNL     1       3.775  17.296  20.350  1.00  0.00     0.080 C 
HETATM   18  O13 UNL     1       4.683  19.391  19.960  1.00  0.00    -0.348 OA
HETATM   19  C20 UNL     1       4.773  20.606  19.359  1.00  0.00     0.236 C 
HETATM   20  C18 UNL     1       3.975  20.795  18.140  1.00  0.00     0.129 C 
BRANCH  16  21
HETATM   21  O1  UNL     1       2.477  19.214  20.409  1.00  0.00    -0.364 OA
ATOM     22  H1  UNL     1       2.055  19.793  19.786  1.00  0.00     0.213 HD
ENDBRANCH  16  21
BRANCH  20  23
HETATM   23  C19 UNL     1       4.501  21.950  17.363  1.00  0.00     0.225 C 
HETATM   24  O11 UNL     1       3.804  23.109  17.336  1.00  0.00    -0.643 OA
HETATM   25  O12 UNL     1       5.892  22.145  17.511  1.00  0.00    -0.643 OA
ENDBRANCH  20  23
ENDBRANCH   1  14
BRANCH   4  26
HETATM   26  N3  UNL     1      -0.093  20.750  14.963  1.00  0.00    -0.234 N 
ATOM     27  H32 UNL     1      -0.761  20.310  15.595  1.00  0.00     0.174 HD
ATOM     28  H31 UNL     1      -0.403  21.506  14.352  1.00  0.00     0.174 HD
ENDBRANCH   4  26
BRANCH  12  29
HETATM   29  C17 UNL     1       5.741  18.535  15.982  1.00  0.00     0.228 C 
HETATM   30  O9  UNL     1       6.519  18.924  16.789  1.00  0.00    -0.643 OA
HETATM   31  O10 UNL     1       5.436  17.103  16.263  1.00  0.00    -0.643 OA
ENDBRANCH  12  29
BRANCH   8  32
HETATM   32  O2  UNL     1       2.774  19.561  11.405  1.00  0.00    -0.266 OA
BRANCH  32  33
HETATM   33  C8  UNL     1       1.828  18.670  11.007  1.00  0.00     0.329 C 
HETATM   34  O3  UNL     1       0.641  18.831  11.376  1.00  0.00    -0.259 OA
BRANCH  33  35
HETATM   35  C9  UNL     1       2.153  17.492  10.136  1.00  0.00     0.452 C 
HETATM   36  F1  UNL     1       2.958  16.582  10.793  1.00  0.00    -0.203 F 
HETATM   37  F2  UNL     1       0.984  16.839   9.791  1.00  0.00    -0.203 F 
ENDBRANCH  33  35
ENDBRANCH  32  33
ENDBRANCH   8  32
BRANCH  11  38
HETATM   38  C12 UNL     1       6.943  18.230  13.360  1.00  0.00     0.189 C 
BRANCH  38  39
HETATM   39  O5  UNL     1       6.868  16.876  12.919  1.00  0.00    -0.388 OA
ATOM     40  H5  UNL     1       7.437  16.780  12.164  1.00  0.00     0.210 HD
ENDBRANCH  38  39
BRANCH  38  41
HETATM   41  C13 UNL     1       7.861  18.872  12.417  1.00  0.00     0.182 C 
BRANCH  41  42
HETATM   42  O6  UNL     1       7.909  18.179  11.172  1.00  0.00    -0.390 OA
ATOM     43  H6  UNL     1       8.282  18.717  10.484  1.00  0.00     0.210 HD
ENDBRANCH  41  42
BRANCH  41  44
HETATM   44  C14 UNL     1       9.306  18.939  12.962  1.00  0.00     0.173 C 
BRANCH  44  45
HETATM   45  O7  UNL     1      10.029  19.813  12.183  1.00  0.00    -0.391 OA
ATOM     46  H7  UNL     1       9.959  20.683  12.559  1.00  0.00     0.210 HD
ENDBRANCH  44  45
BRANCH  44  47
HETATM   47  C15 UNL     1       9.447  19.089  14.413  1.00  0.00     0.198 C 
BRANCH  47  48
HETATM   48  O8  UNL     1      10.419  19.994  14.820  1.00  0.00    -0.398 OA
ATOM     49  H8  UNL     1      10.549  20.051  15.759  1.00  0.00     0.209 HD
ENDBRANCH  47  48
ENDBRANCH  44  47
ENDBRANCH  41  44
ENDBRANCH  38  41
ENDBRANCH  11  38
TORSDOF 16
ENDMDL
MODEL 2
REMARK VINA RESULT: -8.533661907      0.997      1.107
REMARK  16 active torsions:
REMARK  status: ('A' for Active; 'I' for Inactive)
REMARK    1  A    between atoms: C2_2  and  O1_3 
REMARK    2  A    between atoms: N1_6  and  C4_7 
REMARK    3  A    between atoms: C5_10  and  N3_11 
REMARK    4  A    between atoms: C7_17  and  O2_18 
REMARK    5  A    between atoms: O2_18  and  C8_19 
REMARK    6  A    between atoms: C8_19  and  C9_21 
REMARK    7  A    between atoms: C11_26  and  C12_27 
REMARK    8  A    between atoms: C12_27  and  O5_28 
REMARK    9  A    between atoms: C12_27  and  C13_30 
REMARK   10  A    between atoms: C13_30  and  O6_31 
REMARK   11  A    between atoms: C13_30  and  C14_33 
REMARK   12  A    between atoms: C14_33  and  O7_34 
REMARK   13  A    between atoms: C14_33  and  C15_36 
REMARK   14  A    between atoms: C15_36  and  O8_37 
REMARK   15  A    between atoms: C16_39  and  C17_40 
REMARK   16  A    between atoms: C18_44  and  C19_45 
ROOT
HETATM    1  C4  UNL     1       3.362  19.773  15.548  1.00  0.00     0.708 A 
HETATM    2  N2  UNL     1       2.031  20.269  15.485  1.00  0.00    -0.022 N 
ATOM      3  H2  UNL     1       1.545  20.446  16.365  1.00  0.00     0.203 HD
HETATM    4  C5  UNL     1       1.393  20.512  14.381  1.00  0.00     0.692 A 
HETATM    5  N4  UNL     1       1.991  20.294  13.227  1.00  0.00    -0.172 N 
ATOM      6  H4  UNL     1       1.507  20.477  12.348  1.00  0.00     0.186 HD
HETATM    7  C6  UNL     1       3.262  19.821  13.231  1.00  0.00     0.183 A 
HETATM    8  C7  UNL     1       3.803  19.583  12.001  1.00  0.00     0.175 A 
HETATM    9  C10 UNL     1       5.057  19.078  11.938  1.00  0.00     0.221 A 
HETATM   10  O4  UNL     1       5.509  18.868  10.755  1.00  0.00    -0.284 OA
HETATM   11  C11 UNL     1       5.828  18.794  13.064  1.00  0.00     0.061 A 
HETATM   12  C16 UNL     1       5.225  19.052  14.311  1.00  0.00     0.148 A 
HETATM   13  N5  UNL     1       3.952  19.561  14.382  1.00  0.00    -0.121 N 
ENDROOT
BRANCH   1  14
HETATM   14  N1  UNL     1       3.710  19.606  16.885  1.00  0.00    -0.172 N 
HETATM   15  C3  UNL     1       3.289  18.481  17.639  1.00  0.00     0.215 C 
HETATM   16  C2  UNL     1       3.634  18.573  19.107  1.00  0.00     0.175 C 
HETATM   17  C1  UNL     1       3.754  17.157  19.695  1.00  0.00     0.080 C 
HETATM   18  O13 UNL     1       4.805  19.200  19.402  1.00  0.00    -0.348 OA
HETATM   19  C20 UNL     1       4.985  20.429  18.851  1.00  0.00     0.236 C 
HETATM   20  C18 UNL     1       4.224  20.717  17.628  1.00  0.00     0.129 C 
BRANCH  16  21
HETATM   21  O1  UNL     1       2.585  19.153  19.809  1.00  0.00    -0.364 OA
ATOM     22  H1  UNL     1       2.690  18.836  20.698  1.00  0.00     0.213 HD
ENDBRANCH  16  21
BRANCH  20  23
HETATM   23  C19 UNL     1       4.839  21.863  16.906  1.00  0.00     0.225 C 
HETATM   24  O11 UNL     1       4.198  23.054  16.875  1.00  0.00    -0.643 OA
HETATM   25  O12 UNL     1       6.228  21.990  17.124  1.00  0.00    -0.643 OA
ENDBRANCH  20  23
ENDBRANCH   1  14
BRANCH   4  26
HETATM   26  N3  UNL     1       0.182  20.964  14.386  1.00  0.00    -0.234 N 
ATOM     27  H32 UNL     1      -0.077  21.696  13.725  1.00  0.00     0.174 HD
ATOM     28  H31 UNL     1      -0.517  20.606  15.037  1.00  0.00     0.174 HD
ENDBRANCH   4  26
BRANCH  12  29
HETATM   29  C17 UNL     1       5.922  18.519  15.409  1.00  0.00     0.228 C 
HETATM   30  O9  UNL     1       6.687  18.846  16.256  1.00  0.00    -0.643 OA
HETATM   31  O10 UNL     1       5.582  17.080  15.602  1.00  0.00    -0.643 OA
ENDBRANCH  12  29
BRANCH   8  32
HETATM   32  O2  UNL     1       3.085  19.858  10.832  1.00  0.00    -0.266 OA
BRANCH  32  33
HETATM   33  C8  UNL     1       2.319  18.913  10.225  1.00  0.00     0.329 C 
HETATM   34  O3  UNL     1       1.461  18.296  10.899  1.00  0.00    -0.259 OA
BRANCH  33  35
HETATM   35  C9  UNL     1       2.463  18.578   8.770  1.00  0.00     0.452 C 
HETATM   36  F1  UNL     1       1.455  19.146   8.016  1.00  0.00    -0.203 F 
HETATM   37  F2  UNL     1       3.664  19.077   8.300  1.00  0.00    -0.203 F 
ENDBRANCH  33  35
ENDBRANCH  32  33
ENDBRANCH   8  32
BRANCH  11  38
HETATM   38  C12 UNL     1       7.169  18.303  12.799  1.00  0.00     0.189 C 
BRANCH  38  39
HETATM   39  O5  UNL     1       7.058  17.078  12.077  1.00  0.00    -0.388 OA
ATOM     40  H5  UNL     1       7.887  16.619  12.145  1.00  0.00     0.210 HD
ENDBRANCH  38  39
BRANCH  38  41
HETATM   41  C13 UNL     1       8.197  19.059  12.081  1.00  0.00     0.182 C 
BRANCH  41  42
HETATM   42  O6  UNL     1       8.406  18.549  10.766  1.00  0.00    -0.390 OA
ATOM     43  H6  UNL     1       9.064  19.046  10.296  1.00  0.00     0.210 HD
ENDBRANCH  41  42
BRANCH  41  44
HETATM   44  C14 UNL     1       9.560  19.028  12.808  1.00  0.00     0.173 C 
BRANCH  44  45
HETATM   45  O7  UNL     1      10.419  19.891  12.168  1.00  0.00    -0.391 OA
ATOM     46  H7  UNL     1      10.332  20.752  12.560  1.00  0.00     0.210 HD
ENDBRANCH  44  45
BRANCH  44  47
HETATM   47  C15 UNL     1       9.519  19.114  14.270  1.00  0.00     0.198 C 
BRANCH  47  48
HETATM   48  O8  UNL     1      10.413  20.016  14.833  1.00  0.00    -0.398 OA
ATOM     49  H8  UNL     1      11.306  19.951  14.515  1.00  0.00     0.209 HD
ENDBRANCH  47  48
ENDBRANCH  44  47
ENDBRANCH  41  44
ENDBRANCH  38  41
ENDBRANCH  11  38
TORSDOF 16
ENDMDL
MODEL 3
REMARK VINA RESULT: -7.968072990      3.461      7.735
REMARK  16 active torsions:
REMARK  status: ('A' for Active; 'I' for Inactive)
REMARK    1  A    between atoms: C2_2  and  O1_3 
REMARK    2  A    between atoms: N1_6  and  C4_7 
REMARK    3  A    between atoms: C5_10  and  N3_11 
REMARK    4  A    between atoms: C7_17  and  O2_18 
REMARK    5  A    between atoms: O2_18  and  C8_19 
REMARK    6  A    between atoms: C8_19  and  C9_21 
REMARK    7  A    between atoms: C11_26  and  C12_27 
REMARK    8  A    between atoms: C12_27  and  O5_28 
REMARK    9  A    between atoms: C12_27  and  C13_30 
REMARK   10  A    between atoms: C13_30  and  O6_31 
REMARK   11  A    between atoms: C13_30  and  C14_33 
REMARK   12  A    between atoms: C14_33  and  O7_34 
REMARK   13  A    between atoms: C14_33  and  C15_36 
REMARK   14  A    between atoms: C15_36  and  O8_37 
REMARK   15  A    between atoms: C16_39  and  C17_40 
REMARK   16  A    between atoms: C18_44  and  C19_45 
ROOT
HETATM    1  C4  UNL     1       5.781  19.749  16.472  1.00  0.00     0.708 A 
HETATM    2  N2  UNL     1       6.637  20.878  16.600  1.00  0.00    -0.022 N 
ATOM      3  H2  UNL     1       7.234  21.117  15.807  1.00  0.00     0.203 HD
HETATM    4  C5  UNL     1       6.708  21.624  17.660  1.00  0.00     0.692 A 
HETATM    5  N4  UNL     1       5.952  21.343  18.702  1.00  0.00    -0.172 N 
ATOM      6  H4  UNL     1       5.994  21.915  19.544  1.00  0.00     0.186 HD
HETATM    7  C6  UNL     1       5.117  20.277  18.631  1.00  0.00     0.183 A 
HETATM    8  C7  UNL     1       4.393  20.023  19.760  1.00  0.00     0.175 A 
HETATM    9  C10 UNL     1       3.566  18.952  19.765  1.00  0.00     0.221 A 
HETATM   10  O4  UNL     1       2.917  18.760  20.856  1.00  0.00    -0.284 OA
HETATM   11  C11 UNL     1       3.409  18.097  18.675  1.00  0.00     0.061 A 
HETATM   12  C16 UNL     1       4.181  18.397  17.535  1.00  0.00     0.148 A 
HETATM   13  N5  UNL     1       5.025  19.479  17.524  1.00  0.00    -0.121 N 
ENDROOT
BRANCH   1  14
HETATM   14  N1  UNL     1       5.988  19.176  15.221  1.00  0.00    -0.172 N 
HETATM   15  C3  UNL     1       7.113  18.359  14.943  1.00  0.00     0.215 C 
HETATM   16  C2  UNL     1       7.235  17.973  13.486  1.00  0.00     0.175 C 
HETATM   17  C1  UNL     1       8.011  16.650  13.371  1.00  0.00     0.080 C 
HETATM   18  O13 UNL     1       6.063  17.779  12.825  1.00  0.00    -0.348 OA
HETATM   19  C20 UNL     1       5.146  18.777  12.918  1.00  0.00     0.236 C 
HETATM   20  C18 UNL     1       5.253  19.657  14.090  1.00  0.00     0.129 C 
BRANCH  16  21
HETATM   21  O1  UNL     1       8.024  18.898  12.812  1.00  0.00    -0.364 OA
ATOM     22  H1  UNL     1       8.525  19.326  13.496  1.00  0.00     0.213 HD
ENDBRANCH  16  21
BRANCH  20  23
HETATM   23  C19 UNL     1       3.968  20.378  14.301  1.00  0.00     0.225 C 
HETATM   24  O11 UNL     1       3.930  21.724  14.173  1.00  0.00    -0.643 OA
HETATM   25  O12 UNL     1       2.856  19.736  13.715  1.00  0.00    -0.643 OA
ENDBRANCH  20  23
ENDBRANCH   1  14
BRANCH   4  26
HETATM   26  N3  UNL     1       7.506  22.640  17.718  1.00  0.00    -0.234 N 
ATOM     27  H32 UNL     1       8.339  22.584  18.304  1.00  0.00     0.174 HD
ATOM     28  H31 UNL     1       7.319  23.494  17.192  1.00  0.00     0.174 HD
ENDBRANCH   4  26
BRANCH  12  29
HETATM   29  C17 UNL     1       4.193  17.380  16.564  1.00  0.00     0.228 C 
HETATM   30  O9  UNL     1       3.675  17.088  15.536  1.00  0.00    -0.643 OA
HETATM   31  O10 UNL     1       5.195  16.332  16.909  1.00  0.00    -0.643 OA
ENDBRANCH  12  29
BRANCH   8  32
HETATM   32  O2  UNL     1       4.495  20.851  20.884  1.00  0.00    -0.266 OA
BRANCH  32  33
HETATM   33  C8  UNL     1       4.446  22.205  20.779  1.00  0.00     0.329 C 
HETATM   34  O3  UNL     1       5.386  22.890  21.247  1.00  0.00    -0.259 OA
BRANCH  33  35
HETATM   35  C9  UNL     1       3.301  22.917  20.120  1.00  0.00     0.452 C 
HETATM   36  F1  UNL     1       3.632  23.342  18.848  1.00  0.00    -0.203 F 
HETATM   37  F2  UNL     1       2.229  22.052  20.002  1.00  0.00    -0.203 F 
ENDBRANCH  33  35
ENDBRANCH  32  33
ENDBRANCH   8  32
BRANCH  11  38
HETATM   38  C12 UNL     1       2.441  17.028  18.849  1.00  0.00     0.189 C 
BRANCH  38  39
HETATM   39  O5  UNL     1       2.530  16.564  20.194  1.00  0.00    -0.388 OA
ATOM     40  H5  UNL     1       1.979  15.794  20.277  1.00  0.00     0.210 HD
ENDBRANCH  38  39
BRANCH  38  41
HETATM   41  C13 UNL     1       1.004  17.172  18.605  1.00  0.00     0.182 C 
BRANCH  41  42
HETATM   42  O6  UNL     1       0.234  16.388  19.514  1.00  0.00    -0.390 OA
ATOM     43  H6  UNL     1       0.096  16.840  20.338  1.00  0.00     0.210 HD
ENDBRANCH  41  42
BRANCH  41  44
HETATM   44  C14 UNL     1       0.608  16.737  17.175  1.00  0.00     0.173 C 
BRANCH  44  45
HETATM   45  O7  UNL     1      -0.257  15.672  17.264  1.00  0.00    -0.391 OA
ATOM     46  H7  UNL     1      -0.739  15.603  16.448  1.00  0.00     0.210 HD
ENDBRANCH  44  45
BRANCH  44  47
HETATM   47  C15 UNL     1       0.228  17.811  16.252  1.00  0.00     0.198 C 
BRANCH  47  48
HETATM   48  O8  UNL     1       1.023  17.923  15.120  1.00  0.00    -0.398 OA
ATOM     49  H8  UNL     1       0.772  17.365  14.393  1.00  0.00     0.209 HD
ENDBRANCH  47  48
ENDBRANCH  44  47
ENDBRANCH  41  44
ENDBRANCH  38  41
ENDBRANCH  11  38
TORSDOF 16
ENDMDL
MODEL 4
REMARK VINA RESULT: -7.885422331      1.193      2.148
REMARK  16 active torsions:
REMARK  status: ('A' for Active; 'I' for Inactive)
REMARK    1  A    between atoms: C2_2  and  O1_3 
REMARK    2  A    between atoms: N1_6  and  C4_7 
REMARK    3  A    between atoms: C5_10  and  N3_11 
REMARK    4  A    between atoms: C7_17  and  O2_18 
REMARK    5  A    between atoms: O2_18  and  C8_19 
REMARK    6  A    between atoms: C8_19  and  C9_21 
REMARK    7  A    between atoms: C11_26  and  C12_27 
REMARK    8  A    between atoms: C12_27  and  O5_28 
REMARK    9  A    between atoms: C12_27  and  C13_30 
REMARK   10  A    between atoms: C13_30  and  O6_31 
REMARK   11  A    between atoms: C13_30  and  C14_33 
REMARK   12  A    between atoms: C14_33  and  O7_34 
REMARK   13  A    between atoms: C14_33  and  C15_36 
REMARK   14  A    between atoms: C15_36  and  O8_37 
REMARK   15  A    between atoms: C16_39  and  C17_40 
REMARK   16  A    between atoms: C18_44  and  C19_45 
ROOT
HETATM    1  C4  UNL     1       3.252  19.969  16.350  1.00  0.00     0.708 A 
HETATM    2  N2  UNL     1       1.911  20.430  16.238  1.00  0.00    -0.022 N 
ATOM      3  H2  UNL     1       1.401  20.630  17.099  1.00  0.00     0.203 HD
HETATM    4  C5  UNL     1       1.293  20.612  15.110  1.00  0.00     0.692 A 
HETATM    5  N4  UNL     1       1.922  20.362  13.980  1.00  0.00    -0.172 N 
ATOM      6  H4  UNL     1       1.455  20.497  13.084  1.00  0.00     0.186 HD
HETATM    7  C6  UNL     1       3.203  19.921  14.031  1.00  0.00     0.183 A 
HETATM    8  C7  UNL     1       3.778  19.646  12.824  1.00  0.00     0.175 A 
HETATM    9  C10 UNL     1       5.044  19.169  12.810  1.00  0.00     0.221 A 
HETATM   10  O4  UNL     1       5.528  18.923  11.646  1.00  0.00    -0.284 OA
HETATM   11  C11 UNL     1       5.796  18.950  13.963  1.00  0.00     0.061 A 
HETATM   12  C16 UNL     1       5.159  19.244  15.184  1.00  0.00     0.148 A 
HETATM   13  N5  UNL     1       3.873  19.724  15.207  1.00  0.00    -0.121 N 
ENDROOT
BRANCH   1  14
HETATM   14  N1  UNL     1       3.572  19.865  17.700  1.00  0.00    -0.172 N 
HETATM   15  C3  UNL     1       3.284  18.700  18.456  1.00  0.00     0.215 C 
HETATM   16  C2  UNL     1       3.563  18.854  19.933  1.00  0.00     0.175 C 
HETATM   17  C1  UNL     1       3.855  17.473  20.545  1.00  0.00     0.080 C 
HETATM   18  O13 UNL     1       4.625  19.639  20.257  1.00  0.00    -0.348 OA
HETATM   19  C20 UNL     1       4.654  20.875  19.695  1.00  0.00     0.236 C 
HETATM   20  C18 UNL     1       3.902  21.043  18.443  1.00  0.00     0.129 C 
BRANCH  16  21
HETATM   21  O1  UNL     1       2.419  19.290  20.592  1.00  0.00    -0.364 OA
ATOM     22  H1  UNL     1       2.681  19.357  21.502  1.00  0.00     0.213 HD
ENDBRANCH  16  21
BRANCH  20  23
HETATM   23  C19 UNL     1       4.379  22.256  17.724  1.00  0.00     0.225 C 
HETATM   24  O11 UNL     1       3.478  23.122  17.207  1.00  0.00    -0.643 OA
HETATM   25  O12 UNL     1       5.462  22.901  18.360  1.00  0.00    -0.643 OA
ENDBRANCH  20  23
ENDBRANCH   1  14
BRANCH   4  26
HETATM   26  N3  UNL     1       0.072  21.035  15.071  1.00  0.00    -0.234 N 
ATOM     27  H32 UNL     1      -0.640  20.546  15.613  1.00  0.00     0.174 HD
ATOM     28  H31 UNL     1      -0.193  21.844  14.508  1.00  0.00     0.174 HD
ENDBRANCH   4  26
BRANCH  12  29
HETATM   29  C17 UNL     1       5.843  18.773  16.319  1.00  0.00     0.228 C 
HETATM   30  O9  UNL     1       5.948  17.795  16.985  1.00  0.00    -0.643 OA
HETATM   31  O10 UNL     1       6.754  19.821  16.859  1.00  0.00    -0.643 OA
ENDBRANCH  12  29
BRANCH   8  32
HETATM   32  O2  UNL     1       3.081  19.856  11.629  1.00  0.00    -0.266 OA
BRANCH  32  33
HETATM   33  C8  UNL     1       2.226  18.925  11.128  1.00  0.00     0.329 C 
HETATM   34  O3  UNL     1       1.064  18.848  11.592  1.00  0.00    -0.259 OA
BRANCH  33  35
HETATM   35  C9  UNL     1       2.624  17.979  10.033  1.00  0.00     0.452 C 
HETATM   36  F1  UNL     1       3.673  18.479   9.287  1.00  0.00    -0.203 F 
HETATM   37  F2  UNL     1       3.042  16.784  10.588  1.00  0.00    -0.203 F 
ENDBRANCH  33  35
ENDBRANCH  32  33
ENDBRANCH   8  32
BRANCH  11  38
HETATM   38  C12 UNL     1       7.154  18.481  13.748  1.00  0.00     0.189 C 
BRANCH  38  39
HETATM   39  O5  UNL     1       8.035  19.323  14.487  1.00  0.00    -0.388 OA
ATOM     40  H5  UNL     1       8.857  18.860  14.603  1.00  0.00     0.210 HD
ENDBRANCH  38  39
BRANCH  38  41
HETATM   41  C13 UNL     1       7.612  17.122  14.043  1.00  0.00     0.182 C 
BRANCH  41  42
HETATM   42  O6  UNL     1       8.947  16.906  13.593  1.00  0.00    -0.390 OA
ATOM     43  H6  UNL     1       9.267  17.635  13.076  1.00  0.00     0.210 HD
ENDBRANCH  41  42
BRANCH  41  44
HETATM   44  C14 UNL     1       6.723  16.048  13.374  1.00  0.00     0.173 C 
BRANCH  44  45
HETATM   45  O7  UNL     1       7.497  15.319  12.501  1.00  0.00    -0.391 OA
ATOM     46  H7  UNL     1       7.825  14.551  12.954  1.00  0.00     0.210 HD
ENDBRANCH  44  45
BRANCH  44  47
HETATM   47  C15 UNL     1       5.848  15.281  14.265  1.00  0.00     0.198 C 
BRANCH  47  48
HETATM   48  O8  UNL     1       4.996  14.388  13.629  1.00  0.00    -0.398 OA
ATOM     49  H8  UNL     1       4.078  14.473  13.859  1.00  0.00     0.209 HD
ENDBRANCH  47  48
ENDBRANCH  44  47
ENDBRANCH  41  44
ENDBRANCH  38  41
ENDBRANCH  11  38
TORSDOF 16
ENDMDL
MODEL 5
REMARK VINA RESULT: -7.787702864      1.510      2.559
REMARK  16 active torsions:
REMARK  status: ('A' for Active; 'I' for Inactive)
REMARK    1  A    between atoms: C2_2  and  O1_3 
REMARK    2  A    between atoms: N1_6  and  C4_7 
REMARK    3  A    between atoms: C5_10  and  N3_11 
REMARK    4  A    between atoms: C7_17  and  O2_18 
REMARK    5  A    between atoms: O2_18  and  C8_19 
REMARK    6  A    between atoms: C8_19  and  C9_21 
REMARK    7  A    between atoms: C11_26  and  C12_27 
REMARK    8  A    between atoms: C12_27  and  O5_28 
REMARK    9  A    between atoms: C12_27  and  C13_30 
REMARK   10  A    between atoms: C13_30  and  O6_31 
REMARK   11  A    between atoms: C13_30  and  C14_33 
REMARK   12  A    between atoms: C14_33  and  O7_34 
REMARK   13  A    between atoms: C14_33  and  C15_36 
REMARK   14  A    between atoms: C15_36  and  O8_37 
REMARK   15  A    between atoms: C16_39  and  C17_40 
REMARK   16  A    between atoms: C18_44  and  C19_45 
ROOT
HETATM    1  C4  UNL     1       2.595  19.181  16.348  1.00  0.00     0.708 A 
HETATM    2  N2  UNL     1       1.321  19.795  16.193  1.00  0.00    -0.022 N 
ATOM      3  H2  UNL     1       0.739  19.903  17.023  1.00  0.00     0.203 HD
HETATM    4  C5  UNL     1       0.851  20.226  15.062  1.00  0.00     0.692 A 
HETATM    5  N4  UNL     1       1.577  20.101  13.969  1.00  0.00    -0.172 N 
ATOM      6  H4  UNL     1       1.226  20.431  13.071  1.00  0.00     0.186 HD
HETATM    7  C6  UNL     1       2.800  19.523  14.063  1.00  0.00     0.183 A 
HETATM    8  C7  UNL     1       3.478  19.392  12.885  1.00  0.00     0.175 A 
HETATM    9  C10 UNL     1       4.691  18.793  12.907  1.00  0.00     0.221 A 
HETATM   10  O4  UNL     1       5.277  18.692  11.769  1.00  0.00    -0.284 OA
HETATM   11  C11 UNL     1       5.288  18.307  14.069  1.00  0.00     0.061 A 
HETATM   12  C16 UNL     1       4.548  18.460  15.258  1.00  0.00     0.148 A 
HETATM   13  N5  UNL     1       3.315  19.064  15.243  1.00  0.00    -0.121 N 
ENDROOT
BRANCH   1  14
HETATM   14  N1  UNL     1       2.753  18.822  17.683  1.00  0.00    -0.172 N 
HETATM   15  C3  UNL     1       3.592  19.550  18.565  1.00  0.00     0.215 C 
HETATM   16  C2  UNL     1       3.752  18.900  19.920  1.00  0.00     0.175 C 
HETATM   17  C1  UNL     1       4.084  19.977  20.967  1.00  0.00     0.080 C 
HETATM   18  O13 UNL     1       2.660  18.242  20.395  1.00  0.00    -0.348 OA
HETATM   19  C20 UNL     1       2.096  17.332  19.558  1.00  0.00     0.236 C 
HETATM   20  C18 UNL     1       2.337  17.524  18.121  1.00  0.00     0.129 C 
BRANCH  16  21
HETATM   21  O1  UNL     1       4.860  18.062  19.920  1.00  0.00    -0.364 OA
ATOM     22  H1  UNL     1       4.502  17.195  20.062  1.00  0.00     0.213 HD
ENDBRANCH  16  21
BRANCH  20  23
HETATM   23  C19 UNL     1       1.326  16.770  17.332  1.00  0.00     0.225 C 
HETATM   24  O11 UNL     1       1.673  16.241  16.136  1.00  0.00    -0.643 OA
HETATM   25  O12 UNL     1       0.533  15.899  18.111  1.00  0.00    -0.643 OA
ENDBRANCH  20  23
ENDBRANCH   1  14
BRANCH   4  26
HETATM   26  N3  UNL     1      -0.315  20.777  14.982  1.00  0.00    -0.234 N 
ATOM     27  H32 UNL     1      -0.845  20.945  15.838  1.00  0.00     0.174 HD
ATOM     28  H31 UNL     1      -0.717  21.047  14.084  1.00  0.00     0.174 HD
ENDBRANCH   4  26
BRANCH  12  29
HETATM   29  C17 UNL     1       5.057  17.738  16.351  1.00  0.00     0.228 C 
HETATM   30  O9  UNL     1       4.966  16.672  16.867  1.00  0.00    -0.643 OA
HETATM   31  O10 UNL     1       6.054  18.551  17.103  1.00  0.00    -0.643 OA
ENDBRANCH  12  29
BRANCH   8  32
HETATM   32  O2  UNL     1       2.940  19.870  11.685  1.00  0.00    -0.266 OA
BRANCH  32  33
HETATM   33  C8  UNL     1       2.178  19.082  10.881  1.00  0.00     0.329 C 
HETATM   34  O3  UNL     1       1.025  18.760  11.253  1.00  0.00    -0.259 OA
BRANCH  33  35
HETATM   35  C9  UNL     1       2.669  18.579   9.555  1.00  0.00     0.452 C 
HETATM   36  F1  UNL     1       1.697  18.687   8.580  1.00  0.00    -0.203 F 
HETATM   37  F2  UNL     1       3.751  19.338   9.148  1.00  0.00    -0.203 F 
ENDBRANCH  33  35
ENDBRANCH  32  33
ENDBRANCH   8  32
BRANCH  11  38
HETATM   38  C12 UNL     1       6.614  17.737  13.904  1.00  0.00     0.189 C 
BRANCH  38  39
HETATM   39  O5  UNL     1       6.467  16.347  13.627  1.00  0.00    -0.388 OA
ATOM     40  H5  UNL     1       7.267  15.907  13.892  1.00  0.00     0.210 HD
ENDBRANCH  38  39
BRANCH  38  41
HETATM   41  C13 UNL     1       7.595  18.205  12.922  1.00  0.00     0.182 C 
BRANCH  41  42
HETATM   42  O6  UNL     1       7.633  17.363  11.772  1.00  0.00    -0.390 OA
ATOM     43  H6  UNL     1       8.524  17.207  11.480  1.00  0.00     0.210 HD
ENDBRANCH  41  42
BRANCH  41  44
HETATM   44  C14 UNL     1       9.026  18.254  13.504  1.00  0.00     0.173 C 
BRANCH  44  45
HETATM   45  O7  UNL     1       9.907  18.514  12.480  1.00  0.00    -0.391 OA
ATOM     46  H7  UNL     1       9.989  19.455  12.381  1.00  0.00     0.210 HD
ENDBRANCH  44  45
BRANCH  44  47
HETATM   47  C15 UNL     1       9.202  19.037  14.730  1.00  0.00     0.198 C 
BRANCH  47  48
HETATM   48  O8  UNL     1      10.314  19.870  14.742  1.00  0.00    -0.398 OA
ATOM     49  H8  UNL     1      10.486  20.301  15.571  1.00  0.00     0.209 HD
ENDBRANCH  47  48
ENDBRANCH  44  47
ENDBRANCH  41  44
ENDBRANCH  38  41
ENDBRANCH  11  38
TORSDOF 16
ENDMDL
