MODEL 1
REMARK VINA RESULT: -7.856223910      0.000      0.000
REMARK  18 active torsions:
REMARK  status: ('A' for Active; 'I' for Inactive)
REMARK    1  A    between atoms: C3_6  and  N3_7 
REMARK    2  A    between atoms: C4_8  and  C5_9 
REMARK    3  A    between atoms: C5_9  and  O1_10 
REMARK    4  A    between atoms: N4_13  and  C7_14 
REMARK    5  A    between atoms: C7_14  and  C8_15 
REMARK    6  A    between atoms: C8_15  and  C9_16 
REMARK    7  A    between atoms: C9_16  and  O2_17 
REMARK    8  A    between atoms: C9_16  and  C10_19 
REMARK    9  A    between atoms: C10_19  and  O3_20 
REMARK   10  A    between atoms: O3_20  and  C11_21 
REMARK   11  A    between atoms: C12_24  and  C13_25 
REMARK   12  A    between atoms: C13_25  and  O4_26 
REMARK   13  A    between atoms: C14_28  and  O5_29 
REMARK   14  A    between atoms: C16_35  and  N7_36 
REMARK   15  A    between atoms: C17_39  and  N8_40 
REMARK   16  A    between atoms: N8_40  and  N9_42 
REMARK   17  A    between atoms: C20_50  and  N11_51 
REMARK   18  A    between atoms: N12_54  and  N13_55 
ROOT
HETATM    1  N3  UNL     1       6.048  17.625  15.612  1.00  0.00    -0.127 N 
HETATM    2  C4  UNL     1       6.613  18.821  15.407  1.00  0.00     0.075 A 
HETATM    3  C6  UNL     1       7.535  18.953  14.405  1.00  0.00     0.121 A 
HETATM    4  N4  UNL     1       7.923  17.917  13.585  1.00  0.00    -0.339 N 
HETATM    5  C16 UNL     1       7.343  16.741  13.811  1.00  0.00     0.148 A 
HETATM    6  C17 UNL     1       6.393  16.585  14.837  1.00  0.00     0.187 A 
ENDROOT
BRANCH   4   7
HETATM    7  C7  UNL     1       8.951  18.173  12.594  1.00  0.00     0.133 C 
BRANCH   7   8
HETATM    8  C8  UNL     1       8.548  19.013  11.448  1.00  0.00     0.054 C 
BRANCH   8   9
HETATM    9  C9  UNL     1       7.360  18.663  10.648  1.00  0.00     0.144 C 
BRANCH   9  10
HETATM   10  O2  UNL     1       7.065  17.329  10.550  1.00  0.00    -0.393 OA
ATOM     11  H2  UNL     1       7.245  16.918   9.713  1.00  0.00     0.210 HD
ENDBRANCH   9  10
BRANCH   9  12
HETATM   12  C10 UNL     1       6.160  19.373  11.289  1.00  0.00     0.209 C 
BRANCH  12  13
HETATM   13  O3  UNL     1       5.314  18.430  11.917  1.00  0.00    -0.329 OA
BRANCH  13  14
HETATM   14  C11 UNL     1       3.987  18.701  12.214  1.00  0.00     0.213 A 
HETATM   15  N5  UNL     1       3.665  19.508  13.237  1.00  0.00    -0.330 N 
HETATM   16  C12 UNL     1       2.405  19.792  13.552  1.00  0.00     0.086 A 
ATOM     17  H5  UNL     1       4.414  19.918  13.794  1.00  0.00     0.168 HD
HETATM   18  C14 UNL     1       1.419  19.217  12.776  1.00  0.00     0.168 A 
HETATM   19  N6  UNL     1       1.705  18.403  11.742  1.00  0.00    -0.299 N 
HETATM   20  C15 UNL     1       2.988  18.137  11.451  1.00  0.00     0.298 A 
ATOM     21  H6  UNL     1       0.954  17.992  11.187  1.00  0.00     0.171 HD
HETATM   22  O6  UNL     1       3.253  17.374  10.482  1.00  0.00    -0.263 OA
BRANCH  16  23
HETATM   23  C13 UNL     1       2.028  20.693  14.693  1.00  0.00     0.225 C 
BRANCH  23  24
HETATM   24  O4  UNL     1       2.706  20.321  15.838  1.00  0.00    -0.395 OA
ATOM     25  H4  UNL     1       2.114  19.890  16.444  1.00  0.00     0.209 HD
ENDBRANCH  23  24
ENDBRANCH  16  23
BRANCH  18  26
HETATM   26  O5  UNL     1       0.093  19.495  13.080  1.00  0.00    -0.344 OA
ATOM     27  H5  UNL     1      -0.196  20.399  13.054  1.00  0.00     0.219 HD
ENDBRANCH  18  26
ENDBRANCH  13  14
ENDBRANCH  12  13
ENDBRANCH   9  12
ENDBRANCH   8   9
ENDBRANCH   7   8
ENDBRANCH   4   7
BRANCH   5  28
HETATM   28  N7  UNL     1       7.602  15.734  13.068  1.00  0.00    -0.382 N 
ATOM     29  H72 UNL     1       8.562  15.393  13.033  1.00  0.00     0.157 HD
ATOM     30  H71 UNL     1       6.857  15.264  12.554  1.00  0.00     0.157 HD
ENDBRANCH   5  28
BRANCH   2  31
HETATM   31  C5  UNL     1       6.259  20.012  16.245  1.00  0.00     0.223 C 
BRANCH  31  32
HETATM   32  O1  UNL     1       5.401  20.867  15.551  1.00  0.00    -0.395 OA
ATOM     33  H1  UNL     1       4.698  21.168  16.115  1.00  0.00     0.209 HD
ENDBRANCH  31  32
ENDBRANCH   2  31
BRANCH   6  34
HETATM   34  N8  UNL     1       5.875  15.432  15.004  1.00  0.00    -0.288 N 
ATOM     35  H8  UNL     1       6.071  14.934  15.873  1.00  0.00     0.188 HD
BRANCH  34  36
HETATM   36  N9  UNL     1       5.072  14.830  14.080  1.00  0.00    -0.344 N 
ATOM     37  H92 UNL     1       4.526  15.437  13.469  1.00  0.00     0.176 HD
ATOM     38  H91 UNL     1       4.997  13.818  13.978  1.00  0.00     0.176 HD
ENDBRANCH  34  36
ENDBRANCH   6  34
BRANCH   1  39
HETATM   39  C3  UNL     1       5.081  17.403  16.631  1.00  0.00     0.695 A 
HETATM   40  N2  UNL     1       3.759  17.429  16.389  1.00  0.00    -0.173 N 
HETATM   41  C2  UNL     1       2.808  17.226  17.317  1.00  0.00     0.158 A 
ATOM     42  H2  UNL     1       3.455  17.617  15.433  1.00  0.00     0.186 HD
HETATM   43  N1  UNL     1       1.462  17.203  17.321  1.00  0.00    -0.257 N 
HETATM   44  C19 UNL     1       3.189  16.968  18.623  1.00  0.00     0.125 A 
HETATM   45  C1  UNL     1       0.672  17.433  16.116  1.00  0.00     0.182 C 
HETATM   46  N12 UNL     1       0.973  16.952  18.515  1.00  0.00    -0.182 N 
HETATM   47  C20 UNL     1       2.044  16.804  19.336  1.00  0.00     0.158 A 
HETATM   48  C18 UNL     1       4.548  16.940  18.875  1.00  0.00     0.277 A 
HETATM   49  N10 UNL     1       5.460  17.149  17.913  1.00  0.00    -0.154 N 
HETATM   50  O7  UNL     1       4.889  16.702  20.077  1.00  0.00    -0.266 OA
ATOM     51  H10 UNL     1       6.453  17.118  18.147  1.00  0.00     0.187 HD
BRANCH  46  52
HETATM   52  N13 UNL     1      -0.375  16.852  18.898  1.00  0.00    -0.322 N 
ATOM     53 2H13 UNL     1      -1.176  16.846  18.266  1.00  0.00     0.179 HD
ATOM     54 1H13 UNL     1      -0.758  16.772  19.840  1.00  0.00     0.179 HD
ENDBRANCH  46  52
BRANCH  47  55
HETATM   55  N11 UNL     1       1.947  16.548  20.592  1.00  0.00    -0.382 N 
ATOM     56 2H11 UNL     1       1.610  15.659  20.962  1.00  0.00     0.157 HD
ATOM     57 1H11 UNL     1       2.182  17.173  21.364  1.00  0.00     0.157 HD
ENDBRANCH  47  55
ENDBRANCH   1  39
TORSDOF 18
ENDMDL
MODEL 2
REMARK VINA RESULT: -7.710983924      4.099      7.119
REMARK  18 active torsions:
REMARK  status: ('A' for Active; 'I' for Inactive)
REMARK    1  A    between atoms: C3_6  and  N3_7 
REMARK    2  A    between atoms: C4_8  and  C5_9 
REMARK    3  A    between atoms: C5_9  and  O1_10 
REMARK    4  A    between atoms: N4_13  and  C7_14 
REMARK    5  A    between atoms: C7_14  and  C8_15 
REMARK    6  A    between atoms: C8_15  and  C9_16 
REMARK    7  A    between atoms: C9_16  and  O2_17 
REMARK    8  A    between atoms: C9_16  and  C10_19 
REMARK    9  A    between atoms: C10_19  and  O3_20 
REMARK   10  A    between atoms: O3_20  and  C11_21 
REMARK   11  A    between atoms: C12_24  and  C13_25 
REMARK   12  A    between atoms: C13_25  and  O4_26 
REMARK   13  A    between atoms: C14_28  and  O5_29 
REMARK   14  A    between atoms: C16_35  and  N7_36 
REMARK   15  A    between atoms: C17_39  and  N8_40 
REMARK   16  A    between atoms: N8_40  and  N9_42 
REMARK   17  A    between atoms: C20_50  and  N11_51 
REMARK   18  A    between atoms: N12_54  and  N13_55 
ROOT
HETATM    1  N3  UNL     1       4.344  22.075  17.257  1.00  0.00    -0.127 N 
HETATM    2  C4  UNL     1       3.365  22.949  16.990  1.00  0.00     0.075 A 
HETATM    3  C6  UNL     1       2.543  22.714  15.921  1.00  0.00     0.121 A 
HETATM    4  N4  UNL     1       2.664  21.620  15.092  1.00  0.00    -0.339 N 
HETATM    5  C16 UNL     1       3.644  20.769  15.384  1.00  0.00     0.148 A 
HETATM    6  C17 UNL     1       4.499  20.993  16.478  1.00  0.00     0.187 A 
ENDROOT
BRANCH   4   7
HETATM    7  C7  UNL     1       1.764  21.514  13.959  1.00  0.00     0.133 C 
BRANCH   7   8
HETATM    8  C8  UNL     1       0.458  20.880  14.230  1.00  0.00     0.054 C 
BRANCH   8   9
HETATM    9  C9  UNL     1       0.313  19.415  14.169  1.00  0.00     0.144 C 
BRANCH   9  10
HETATM   10  O2  UNL     1       1.318  18.731  13.538  1.00  0.00    -0.393 OA
ATOM     11  H2  UNL     1       1.564  17.896  13.919  1.00  0.00     0.210 HD
ENDBRANCH   9  10
BRANCH   9  12
HETATM   12  C10 UNL     1       0.225  18.909  15.615  1.00  0.00     0.209 C 
BRANCH  12  13
HETATM   13  O3  UNL     1       1.284  18.011  15.883  1.00  0.00    -0.329 OA
BRANCH  13  14
HETATM   14  C11 UNL     1       1.631  17.633  17.172  1.00  0.00     0.213 A 
HETATM   15  N5  UNL     1       2.520  18.347  17.879  1.00  0.00    -0.330 N 
HETATM   16  C12 UNL     1       2.878  18.017  19.116  1.00  0.00     0.086 A 
ATOM     17  H5  UNL     1       2.937  19.175  17.452  1.00  0.00     0.168 HD
HETATM   18  C14 UNL     1       2.293  16.891  19.659  1.00  0.00     0.168 A 
HETATM   19  N6  UNL     1       1.398  16.150  18.979  1.00  0.00    -0.299 N 
HETATM   20  C15 UNL     1       1.058  16.512  17.731  1.00  0.00     0.298 A 
ATOM     21  H6  UNL     1       0.982  15.323  19.407  1.00  0.00     0.171 HD
HETATM   22  O6  UNL     1       0.219  15.816  17.096  1.00  0.00    -0.263 OA
BRANCH  16  23
HETATM   23  C13 UNL     1       3.871  18.806  19.921  1.00  0.00     0.225 C 
BRANCH  23  24
HETATM   24  O4  UNL     1       3.217  19.563  20.874  1.00  0.00    -0.395 OA
ATOM     25  H4  UNL     1       3.595  19.407  21.731  1.00  0.00     0.209 HD
ENDBRANCH  23  24
ENDBRANCH  16  23
BRANCH  18  26
HETATM   26  O5  UNL     1       2.647  16.520  20.949  1.00  0.00    -0.344 OA
ATOM     27  H5  UNL     1       2.949  15.632  21.096  1.00  0.00     0.219 HD
ENDBRANCH  18  26
ENDBRANCH  13  14
ENDBRANCH  12  13
ENDBRANCH   9  12
ENDBRANCH   8   9
ENDBRANCH   7   8
ENDBRANCH   4   7
BRANCH   5  28
HETATM   28  N7  UNL     1       3.801  19.700  14.702  1.00  0.00    -0.382 N 
ATOM     29  H72 UNL     1       3.143  18.934  14.846  1.00  0.00     0.157 HD
ATOM     30  H71 UNL     1       4.543  19.632  14.006  1.00  0.00     0.157 HD
ENDBRANCH   5  28
BRANCH   2  31
HETATM   31  C5  UNL     1       3.150  24.170  17.831  1.00  0.00     0.223 C 
BRANCH  31  32
HETATM   32  O1  UNL     1       2.358  23.871  18.941  1.00  0.00    -0.395 OA
ATOM     33  H1  UNL     1       2.890  23.533  19.652  1.00  0.00     0.209 HD
ENDBRANCH  31  32
ENDBRANCH   2  31
BRANCH   6  34
HETATM   34  N8  UNL     1       5.421  20.141  16.702  1.00  0.00    -0.288 N 
ATOM     35  H8  UNL     1       5.275  19.452  17.441  1.00  0.00     0.188 HD
BRANCH  34  36
HETATM   36  N9  UNL     1       6.593  20.104  16.004  1.00  0.00    -0.344 N 
ATOM     37  H92 UNL     1       6.692  20.750  15.222  1.00  0.00     0.176 HD
ATOM     38  H91 UNL     1       7.358  19.468  16.230  1.00  0.00     0.176 HD
ENDBRANCH  34  36
ENDBRANCH   6  34
BRANCH   1  39
HETATM   39  C3  UNL     1       5.240  22.244  18.347  1.00  0.00     0.695 A 
HETATM   40  N2  UNL     1       6.495  22.698  18.186  1.00  0.00    -0.173 N 
HETATM   41  C2  UNL     1       7.378  22.875  19.184  1.00  0.00     0.158 A 
ATOM     42  H2  UNL     1       6.799  22.925  17.239  1.00  0.00     0.186 HD
HETATM   43  N1  UNL     1       8.652  23.303  19.272  1.00  0.00    -0.257 N 
HETATM   44  C19 UNL     1       6.995  22.574  20.480  1.00  0.00     0.125 A 
HETATM   45  C1  UNL     1       9.420  23.719  18.103  1.00  0.00     0.182 C 
HETATM   46  N12 UNL     1       9.092  23.296  20.510  1.00  0.00    -0.182 N 
HETATM   47  C20 UNL     1       8.065  22.843  21.272  1.00  0.00     0.158 A 
HETATM   48  C18 UNL     1       5.705  22.107  20.649  1.00  0.00     0.277 A 
HETATM   49  N10 UNL     1       4.859  21.948  19.620  1.00  0.00    -0.154 N 
HETATM   50  O7  UNL     1       5.361  21.835  21.844  1.00  0.00    -0.266 OA
ATOM     51  H10 UNL     1       3.916  21.600  19.794  1.00  0.00     0.187 HD
BRANCH  46  52
HETATM   52  N13 UNL     1      10.361  23.673  20.982  1.00  0.00    -0.322 N 
ATOM     53 2H13 UNL     1      10.596  24.570  21.408  1.00  0.00     0.179 HD
ATOM     54 1H13 UNL     1      11.224  23.129  20.975  1.00  0.00     0.179 HD
ENDBRANCH  46  52
BRANCH  47  55
HETATM   55  N11 UNL     1       8.135  22.702  22.549  1.00  0.00    -0.382 N 
ATOM     56 2H11 UNL     1       8.435  21.841  23.006  1.00  0.00     0.157 HD
ATOM     57 1H11 UNL     1       7.910  23.403  23.255  1.00  0.00     0.157 HD
ENDBRANCH  47  55
ENDBRANCH   1  39
TORSDOF 18
ENDMDL
MODEL 3
REMARK VINA RESULT: -7.605054196      4.568      6.535
REMARK  18 active torsions:
REMARK  status: ('A' for Active; 'I' for Inactive)
REMARK    1  A    between atoms: C3_6  and  N3_7 
REMARK    2  A    between atoms: C4_8  and  C5_9 
REMARK    3  A    between atoms: C5_9  and  O1_10 
REMARK    4  A    between atoms: N4_13  and  C7_14 
REMARK    5  A    between atoms: C7_14  and  C8_15 
REMARK    6  A    between atoms: C8_15  and  C9_16 
REMARK    7  A    between atoms: C9_16  and  O2_17 
REMARK    8  A    between atoms: C9_16  and  C10_19 
REMARK    9  A    between atoms: C10_19  and  O3_20 
REMARK   10  A    between atoms: O3_20  and  C11_21 
REMARK   11  A    between atoms: C12_24  and  C13_25 
REMARK   12  A    between atoms: C13_25  and  O4_26 
REMARK   13  A    between atoms: C14_28  and  O5_29 
REMARK   14  A    between atoms: C16_35  and  N7_36 
REMARK   15  A    between atoms: C17_39  and  N8_40 
REMARK   16  A    between atoms: N8_40  and  N9_42 
REMARK   17  A    between atoms: C20_50  and  N11_51 
REMARK   18  A    between atoms: N12_54  and  N13_55 
ROOT
HETATM    1  N3  UNL     1       2.560  20.130  14.030  1.00  0.00    -0.127 N 
HETATM    2  C4  UNL     1       1.387  19.715  13.536  1.00  0.00     0.075 A 
HETATM    3  C6  UNL     1       1.357  19.152  12.289  1.00  0.00     0.121 A 
HETATM    4  N4  UNL     1       2.475  18.987  11.500  1.00  0.00    -0.339 N 
HETATM    5  C16 UNL     1       3.626  19.408  12.019  1.00  0.00     0.148 A 
HETATM    6  C17 UNL     1       3.676  19.989  13.299  1.00  0.00     0.187 A 
ENDROOT
BRANCH   4   7
HETATM    7  C7  UNL     1       2.302  18.426  10.174  1.00  0.00     0.133 C 
BRANCH   7   8
HETATM    8  C8  UNL     1       1.115  17.568   9.985  1.00  0.00     0.054 C 
BRANCH   8   9
HETATM    9  C9  UNL     1       0.991  16.717   8.788  1.00  0.00     0.144 C 
BRANCH   9  10
HETATM   10  O2  UNL     1       0.024  15.747   8.829  1.00  0.00    -0.393 OA
ATOM     11  H2  UNL     1       0.153  15.050   9.462  1.00  0.00     0.210 HD
ENDBRANCH   9  10
BRANCH   9  12
HETATM   12  C10 UNL     1       0.689  17.644   7.605  1.00  0.00     0.209 C 
BRANCH  12  13
HETATM   13  O3  UNL     1      -0.440  18.447   7.889  1.00  0.00    -0.329 OA
BRANCH  13  14
HETATM   14  C11 UNL     1      -0.772  19.560   7.132  1.00  0.00     0.213 A 
HETATM   15  N5  UNL     1       0.184  20.337   6.600  1.00  0.00    -0.330 N 
HETATM   16  C12 UNL     1      -0.095  21.411   5.869  1.00  0.00     0.086 A 
ATOM     17  H5  UNL     1       1.161  20.094   6.762  1.00  0.00     0.168 HD
HETATM   18  C14 UNL     1      -1.428  21.708   5.672  1.00  0.00     0.168 A 
HETATM   19  N6  UNL     1      -2.414  20.953   6.191  1.00  0.00    -0.299 N 
HETATM   20  C15 UNL     1      -2.098  19.873   6.925  1.00  0.00     0.298 A 
ATOM     21  H6  UNL     1      -3.391  21.197   6.029  1.00  0.00     0.171 HD
HETATM   22  O6  UNL     1      -3.024  19.167   7.410  1.00  0.00    -0.263 OA
BRANCH  16  23
HETATM   23  C13 UNL     1       0.964  22.290   5.265  1.00  0.00     0.225 C 
BRANCH  23  24
HETATM   24  O4  UNL     1       0.845  23.580   5.749  1.00  0.00    -0.395 OA
ATOM     25  H4  UNL     1       1.671  23.869   6.116  1.00  0.00     0.209 HD
ENDBRANCH  23  24
ENDBRANCH  16  23
BRANCH  18  26
HETATM   26  O5  UNL     1      -1.751  22.825   4.913  1.00  0.00    -0.344 OA
ATOM     27  H5  UNL     1      -2.649  23.135   4.926  1.00  0.00     0.219 HD
ENDBRANCH  18  26
ENDBRANCH  13  14
ENDBRANCH  12  13
ENDBRANCH   9  12
ENDBRANCH   8   9
ENDBRANCH   7   8
ENDBRANCH   4   7
BRANCH   5  28
HETATM   28  N7  UNL     1       4.722  19.249  11.382  1.00  0.00    -0.382 N 
ATOM     29  H72 UNL     1       4.934  18.325  11.008  1.00  0.00     0.157 HD
ATOM     30  H71 UNL     1       5.348  20.038  11.222  1.00  0.00     0.157 HD
ENDBRANCH   5  28
BRANCH   2  31
HETATM   31  C5  UNL     1       0.114  19.849  14.314  1.00  0.00     0.223 C 
BRANCH  31  32
HETATM   32  O1  UNL     1      -0.435  21.122  14.147  1.00  0.00    -0.395 OA
ATOM     33  H1  UNL     1      -1.257  21.199  14.618  1.00  0.00     0.209 HD
ENDBRANCH  31  32
ENDBRANCH   2  31
BRANCH   6  34
HETATM   34  N8  UNL     1       4.810  20.375  13.737  1.00  0.00    -0.288 N 
ATOM     35  H8  UNL     1       5.053  21.362  13.649  1.00  0.00     0.188 HD
BRANCH  34  36
HETATM   36  N9  UNL     1       5.714  19.534  14.319  1.00  0.00    -0.344 N 
ATOM     37  H92 UNL     1       5.417  19.038  15.159  1.00  0.00     0.176 HD
ATOM     38  H91 UNL     1       6.654  19.385  13.954  1.00  0.00     0.176 HD
ENDBRANCH  34  36
ENDBRANCH   6  34
BRANCH   1  39
HETATM   39  C3  UNL     1       2.678  20.725  15.316  1.00  0.00     0.695 A 
HETATM   40  N2  UNL     1       3.125  20.045  16.386  1.00  0.00    -0.173 N 
HETATM   41  C2  UNL     1       3.254  20.563  17.621  1.00  0.00     0.158 A 
ATOM     42  H2  UNL     1       3.385  19.068  16.253  1.00  0.00     0.186 HD
HETATM   43  N1  UNL     1       3.665  20.099  18.816  1.00  0.00    -0.257 N 
HETATM   44  C19 UNL     1       2.909  21.887  17.833  1.00  0.00     0.125 A 
HETATM   45  C1  UNL     1       4.118  18.725  19.008  1.00  0.00     0.182 C 
HETATM   46  N12 UNL     1       3.607  21.019  19.751  1.00  0.00    -0.182 N 
HETATM   47  C20 UNL     1       3.135  22.140  19.148  1.00  0.00     0.158 A 
HETATM   48  C18 UNL     1       2.449  22.588  16.734  1.00  0.00     0.277 A 
HETATM   49  N10 UNL     1       2.338  22.027  15.520  1.00  0.00    -0.154 N 
HETATM   50  O7  UNL     1       2.135  23.804  16.938  1.00  0.00    -0.266 OA
ATOM     51  H10 UNL     1       1.993  22.585  14.738  1.00  0.00     0.187 HD
BRANCH  46  52
HETATM   52  N13 UNL     1       3.953  20.901  21.108  1.00  0.00    -0.322 N 
ATOM     53 2H13 UNL     1       4.520  21.563  21.639  1.00  0.00     0.179 HD
ATOM     54 1H13 UNL     1       3.700  20.159  21.761  1.00  0.00     0.179 HD
ENDBRANCH  46  52
BRANCH  47  55
HETATM   55  N11 UNL     1       2.945  23.253  19.764  1.00  0.00    -0.382 N 
ATOM     56 2H11 UNL     1       2.421  24.034  19.368  1.00  0.00     0.157 HD
ATOM     57 1H11 UNL     1       3.279  23.502  20.695  1.00  0.00     0.157 HD
ENDBRANCH  47  55
ENDBRANCH   1  39
TORSDOF 18
ENDMDL
MODEL 4
REMARK VINA RESULT: -7.578491771      4.550      7.683
REMARK  18 active torsions:
REMARK  status: ('A' for Active; 'I' for Inactive)
REMARK    1  A    between atoms: C3_6  and  N3_7 
REMARK    2  A    between atoms: C4_8  and  C5_9 
REMARK    3  A    between atoms: C5_9  and  O1_10 
REMARK    4  A    between atoms: N4_13  and  C7_14 
REMARK    5  A    between atoms: C7_14  and  C8_15 
REMARK    6  A    between atoms: C8_15  and  C9_16 
REMARK    7  A    between atoms: C9_16  and  O2_17 
REMARK    8  A    between atoms: C9_16  and  C10_19 
REMARK    9  A    between atoms: C10_19  and  O3_20 
REMARK   10  A    between atoms: O3_20  and  C11_21 
REMARK   11  A    between atoms: C12_24  and  C13_25 
REMARK   12  A    between atoms: C13_25  and  O4_26 
REMARK   13  A    between atoms: C14_28  and  O5_29 
REMARK   14  A    between atoms: C16_35  and  N7_36 
REMARK   15  A    between atoms: C17_39  and  N8_40 
REMARK   16  A    between atoms: N8_40  and  N9_42 
REMARK   17  A    between atoms: C20_50  and  N11_51 
REMARK   18  A    between atoms: N12_54  and  N13_55 
ROOT
HETATM    1  N3  UNL     1       4.627  22.226  17.534  1.00  0.00    -0.127 N 
HETATM    2  C4  UNL     1       4.532  21.184  16.699  1.00  0.00     0.075 A 
HETATM    3  C6  UNL     1       3.395  21.036  15.952  1.00  0.00     0.121 A 
HETATM    4  N4  UNL     1       2.327  21.905  16.010  1.00  0.00    -0.339 N 
HETATM    5  C16 UNL     1       2.451  22.931  16.848  1.00  0.00     0.148 A 
HETATM    6  C17 UNL     1       3.612  23.100  17.624  1.00  0.00     0.187 A 
ENDROOT
BRANCH   4   7
HETATM    7  C7  UNL     1       1.156  21.607  15.208  1.00  0.00     0.133 C 
BRANCH   7   8
HETATM    8  C8  UNL     1       1.390  20.782  14.005  1.00  0.00     0.054 C 
BRANCH   8   9
HETATM    9  C9  UNL     1       0.887  19.397  13.941  1.00  0.00     0.144 C 
BRANCH   9  10
HETATM   10  O2  UNL     1       1.800  18.435  13.597  1.00  0.00    -0.393 OA
ATOM     11  H2  UNL     1       1.893  18.257  12.668  1.00  0.00     0.210 HD
ENDBRANCH   9  10
BRANCH   9  12
HETATM   12  C10 UNL     1       0.331  19.055  15.329  1.00  0.00     0.209 C 
BRANCH  12  13
HETATM   13  O3  UNL     1       0.732  17.752  15.708  1.00  0.00    -0.329 OA
BRANCH  13  14
HETATM   14  C11 UNL     1       1.200  17.457  16.979  1.00  0.00     0.213 A 
HETATM   15  N5  UNL     1       2.173  18.195  17.539  1.00  0.00    -0.330 N 
HETATM   16  C12 UNL     1       2.648  17.943  18.755  1.00  0.00     0.086 A 
ATOM     17  H5  UNL     1       2.561  18.977  17.012  1.00  0.00     0.168 HD
HETATM   18  C14 UNL     1       2.097  16.877  19.436  1.00  0.00     0.168 A 
HETATM   19  N6  UNL     1       1.122  16.115  18.905  1.00  0.00    -0.299 N 
HETATM   20  C15 UNL     1       0.664  16.397  17.675  1.00  0.00     0.298 A 
ATOM     21  H6  UNL     1       0.734  15.332  19.433  1.00  0.00     0.171 HD
HETATM   22  O6  UNL     1      -0.250  15.681  17.181  1.00  0.00    -0.263 OA
BRANCH  16  23
HETATM   23  C13 UNL     1       3.734  18.759  19.395  1.00  0.00     0.225 C 
BRANCH  23  24
HETATM   24  O4  UNL     1       3.251  20.006  19.744  1.00  0.00    -0.395 OA
ATOM     25  H4  UNL     1       3.969  20.578  19.990  1.00  0.00     0.209 HD
ENDBRANCH  23  24
ENDBRANCH  16  23
BRANCH  18  26
HETATM   26  O5  UNL     1       2.573  16.589  20.708  1.00  0.00    -0.344 OA
ATOM     27  H5  UNL     1       2.184  17.040  21.448  1.00  0.00     0.219 HD
ENDBRANCH  18  26
ENDBRANCH  13  14
ENDBRANCH  12  13
ENDBRANCH   9  12
ENDBRANCH   8   9
ENDBRANCH   7   8
ENDBRANCH   4   7
BRANCH   5  28
HETATM   28  N7  UNL     1       1.534  23.817  16.931  1.00  0.00    -0.382 N 
ATOM     29  H72 UNL     1       0.563  23.516  16.853  1.00  0.00     0.157 HD
ATOM     30  H71 UNL     1       1.769  24.793  17.110  1.00  0.00     0.157 HD
ENDBRANCH   5  28
BRANCH   2  31
HETATM   31  C5  UNL     1       5.639  20.182  16.562  1.00  0.00     0.223 C 
BRANCH  31  32
HETATM   32  O1  UNL     1       5.867  19.878  15.219  1.00  0.00    -0.395 OA
ATOM     33  H1  UNL     1       6.585  19.263  15.131  1.00  0.00     0.209 HD
ENDBRANCH  31  32
ENDBRANCH   2  31
BRANCH   6  34
HETATM   34  N8  UNL     1       3.668  24.102  18.409  1.00  0.00    -0.288 N 
ATOM     35  H8  UNL     1       4.135  24.949  18.083  1.00  0.00     0.188 HD
BRANCH  34  36
HETATM   36  N9  UNL     1       3.134  24.100  19.665  1.00  0.00    -0.344 N 
ATOM     37  H92 UNL     1       3.014  23.196  20.121  1.00  0.00     0.176 HD
ATOM     38  H91 UNL     1       2.856  24.950  20.156  1.00  0.00     0.176 HD
ENDBRANCH  34  36
ENDBRANCH   6  34
BRANCH   1  39
HETATM   39  C3  UNL     1       5.773  22.452  18.344  1.00  0.00     0.695 A 
HETATM   40  N2  UNL     1       6.842  23.140  17.906  1.00  0.00    -0.173 N 
HETATM   41  C2  UNL     1       7.947  23.380  18.633  1.00  0.00     0.158 A 
ATOM     42  H2  UNL     1       6.812  23.506  16.954  1.00  0.00     0.186 HD
HETATM   43  N1  UNL     1       9.112  24.022  18.423  1.00  0.00    -0.257 N 
HETATM   44  C19 UNL     1       8.017  22.895  19.928  1.00  0.00     0.125 A 
HETATM   45  C1  UNL     1       9.426  24.677  17.157  1.00  0.00     0.182 C 
HETATM   46  N12 UNL     1       9.898  23.980  19.474  1.00  0.00    -0.182 N 
HETATM   47  C20 UNL     1       9.223  23.278  20.420  1.00  0.00     0.158 A 
HETATM   48  C18 UNL     1       6.919  22.188  20.382  1.00  0.00     0.277 A 
HETATM   49  N10 UNL     1       5.837  21.975  19.617  1.00  0.00    -0.154 N 
HETATM   50  O7  UNL     1       6.991  21.748  21.573  1.00  0.00    -0.266 OA
ATOM     51  H10 UNL     1       5.051  21.447  19.996  1.00  0.00     0.187 HD
BRANCH  46  52
HETATM   52  N13 UNL     1      11.180  24.535  19.622  1.00  0.00    -0.322 N 
ATOM     53 2H13 UNL     1      12.056  24.098  19.335  1.00  0.00     0.179 HD
ATOM     54 1H13 UNL     1      11.434  25.436  20.027  1.00  0.00     0.179 HD
ENDBRANCH  46  52
BRANCH  47  55
HETATM   55  N11 UNL     1       9.691  23.034  21.593  1.00  0.00    -0.382 N 
ATOM     56 2H11 UNL     1       9.858  23.756  22.295  1.00  0.00     0.157 HD
ATOM     57 1H11 UNL     1       9.951  22.123  21.971  1.00  0.00     0.157 HD
ENDBRANCH  47  55
ENDBRANCH   1  39
TORSDOF 18
ENDMDL
MODEL 5
REMARK VINA RESULT: -7.559437439      1.136      1.984
REMARK  18 active torsions:
REMARK  status: ('A' for Active; 'I' for Inactive)
REMARK    1  A    between atoms: C3_6  and  N3_7 
REMARK    2  A    between atoms: C4_8  and  C5_9 
REMARK    3  A    between atoms: C5_9  and  O1_10 
REMARK    4  A    between atoms: N4_13  and  C7_14 
REMARK    5  A    between atoms: C7_14  and  C8_15 
REMARK    6  A    between atoms: C8_15  and  C9_16 
REMARK    7  A    between atoms: C9_16  and  O2_17 
REMARK    8  A    between atoms: C9_16  and  C10_19 
REMARK    9  A    between atoms: C10_19  and  O3_20 
REMARK   10  A    between atoms: O3_20  and  C11_21 
REMARK   11  A    between atoms: C12_24  and  C13_25 
REMARK   12  A    between atoms: C13_25  and  O4_26 
REMARK   13  A    between atoms: C14_28  and  O5_29 
REMARK   14  A    between atoms: C16_35  and  N7_36 
REMARK   15  A    between atoms: C17_39  and  N8_40 
REMARK   16  A    between atoms: N8_40  and  N9_42 
REMARK   17  A    between atoms: C20_50  and  N11_51 
REMARK   18  A    between atoms: N12_54  and  N13_55 
ROOT
HETATM    1  N3  UNL     1       5.991  17.648  15.581  1.00  0.00    -0.127 N 
HETATM    2  C4  UNL     1       6.519  18.856  15.349  1.00  0.00     0.075 A 
HETATM    3  C6  UNL     1       7.437  18.994  14.343  1.00  0.00     0.121 A 
HETATM    4  N4  UNL     1       7.858  17.950  13.548  1.00  0.00    -0.339 N 
HETATM    5  C16 UNL     1       7.315  16.763  13.802  1.00  0.00     0.148 A 
HETATM    6  C17 UNL     1       6.369  16.602  14.831  1.00  0.00     0.187 A 
ENDROOT
BRANCH   4   7
HETATM    7  C7  UNL     1       8.879  18.215  12.552  1.00  0.00     0.133 C 
BRANCH   7   8
HETATM    8  C8  UNL     1       8.454  19.029  11.394  1.00  0.00     0.054 C 
BRANCH   8   9
HETATM    9  C9  UNL     1       7.256  18.657  10.620  1.00  0.00     0.144 C 
BRANCH   9  10
HETATM   10  O2  UNL     1       6.971  17.319  10.547  1.00  0.00    -0.393 OA
ATOM     11  H2  UNL     1       7.437  16.824   9.883  1.00  0.00     0.210 HD
ENDBRANCH   9  10
BRANCH   9  12
HETATM   12  C10 UNL     1       6.062  19.366  11.270  1.00  0.00     0.209 C 
BRANCH  12  13
HETATM   13  O3  UNL     1       5.152  18.415  11.789  1.00  0.00    -0.329 OA
BRANCH  13  14
HETATM   14  C11 UNL     1       3.790  18.470  11.534  1.00  0.00     0.213 A 
HETATM   15  N5  UNL     1       3.318  18.279  10.292  1.00  0.00    -0.330 N 
HETATM   16  C12 UNL     1       2.021  18.324  10.008  1.00  0.00     0.086 A 
ATOM     17  H5  UNL     1       3.980  18.094   9.538  1.00  0.00     0.168 HD
HETATM   18  C14 UNL     1       1.158  18.578  11.054  1.00  0.00     0.168 A 
HETATM   19  N6  UNL     1       1.595  18.775  12.312  1.00  0.00    -0.299 N 
HETATM   20  C15 UNL     1       2.913  18.723  12.565  1.00  0.00     0.298 A 
ATOM     21  H6  UNL     1       0.933  18.962  13.065  1.00  0.00     0.171 HD
HETATM   22  O6  UNL     1       3.320  18.907  13.745  1.00  0.00    -0.263 OA
BRANCH  16  23
HETATM   23  C13 UNL     1       1.476  18.113   8.624  1.00  0.00     0.225 C 
BRANCH  23  24
HETATM   24  O4  UNL     1       0.784  19.234   8.208  1.00  0.00    -0.395 OA
ATOM     25  H4  UNL     1       0.464  19.111   7.322  1.00  0.00     0.209 HD
ENDBRANCH  23  24
ENDBRANCH  16  23
BRANCH  18  26
HETATM   26  O5  UNL     1      -0.204  18.632  10.788  1.00  0.00    -0.344 OA
ATOM     27  H5  UNL     1      -0.778  18.034  11.253  1.00  0.00     0.219 HD
ENDBRANCH  18  26
ENDBRANCH  13  14
ENDBRANCH  12  13
ENDBRANCH   9  12
ENDBRANCH   8   9
ENDBRANCH   7   8
ENDBRANCH   4   7
BRANCH   5  28
HETATM   28  N7  UNL     1       7.606  15.747  13.083  1.00  0.00    -0.382 N 
ATOM     29  H72 UNL     1       8.482  15.759  12.562  1.00  0.00     0.157 HD
ATOM     30  H71 UNL     1       6.993  14.933  13.064  1.00  0.00     0.157 HD
ENDBRANCH   5  28
BRANCH   2  31
HETATM   31  C5  UNL     1       6.127  20.055  16.158  1.00  0.00     0.223 C 
BRANCH  31  32
HETATM   32  O1  UNL     1       5.153  20.803  15.493  1.00  0.00    -0.395 OA
ATOM     33  H1  UNL     1       5.551  21.377  14.850  1.00  0.00     0.209 HD
ENDBRANCH  31  32
ENDBRANCH   2  31
BRANCH   6  34
HETATM   34  N8  UNL     1       5.888  15.437  15.026  1.00  0.00    -0.288 N 
ATOM     35  H8  UNL     1       6.073  14.979  15.919  1.00  0.00     0.188 HD
BRANCH  34  36
HETATM   36  N9  UNL     1       5.137  14.773  14.101  1.00  0.00    -0.344 N 
ATOM     37  H92 UNL     1       5.417  14.857  13.123  1.00  0.00     0.176 HD
ATOM     38  H91 UNL     1       4.324  14.207  14.342  1.00  0.00     0.176 HD
ENDBRANCH  34  36
ENDBRANCH   6  34
BRANCH   1  39
HETATM   39  C3  UNL     1       5.031  17.420  16.605  1.00  0.00     0.695 A 
HETATM   40  N2  UNL     1       3.707  17.446  16.371  1.00  0.00    -0.173 N 
HETATM   41  C2  UNL     1       2.762  17.237  17.305  1.00  0.00     0.158 A 
ATOM     42  H2  UNL     1       3.397  17.638  15.419  1.00  0.00     0.186 HD
HETATM   43  N1  UNL     1       1.416  17.212  17.317  1.00  0.00    -0.257 N 
HETATM   44  C19 UNL     1       3.151  16.974  18.607  1.00  0.00     0.125 A 
HETATM   45  C1  UNL     1       0.619  17.447  16.118  1.00  0.00     0.182 C 
HETATM   46  N12 UNL     1       0.936  16.956  18.512  1.00  0.00    -0.182 N 
HETATM   47  C20 UNL     1       2.012  16.806  19.326  1.00  0.00     0.158 A 
HETATM   48  C18 UNL     1       4.512  16.946  18.850  1.00  0.00     0.277 A 
HETATM   49  N10 UNL     1       5.418  17.161  17.884  1.00  0.00    -0.154 N 
HETATM   50  O7  UNL     1       4.861  16.703  20.049  1.00  0.00    -0.266 OA
ATOM     51  H10 UNL     1       6.412  17.131  18.111  1.00  0.00     0.187 HD
BRANCH  46  52
HETATM   52  N13 UNL     1      -0.410  16.853  18.903  1.00  0.00    -0.322 N 
ATOM     53 2H13 UNL     1      -1.216  16.873  18.278  1.00  0.00     0.179 HD
ATOM     54 1H13 UNL     1      -0.786  16.743  19.845  1.00  0.00     0.179 HD
ENDBRANCH  46  52
BRANCH  47  55
HETATM   55  N11 UNL     1       1.922  16.544  20.582  1.00  0.00    -0.382 N 
ATOM     56 2H11 UNL     1       2.726  16.327  21.171  1.00  0.00     0.157 HD
ATOM     57 1H11 UNL     1       1.070  16.517  21.143  1.00  0.00     0.157 HD
ENDBRANCH  47  55
ENDBRANCH   1  39
TORSDOF 18
ENDMDL
