MODEL 1
REMARK VINA RESULT: -10.195903747      0.000      0.000
REMARK  11 active torsions:
REMARK  status: ('A' for Active; 'I' for Inactive)
REMARK    1  A    between atoms: C3_4  and  O1_5 
REMARK    2  A    between atoms: O1_5  and  C4_6 
REMARK    3  A    between atoms: C4_6  and  C5_8 
REMARK    4  A    between atoms: C5_8  and  C6_9 
REMARK    5  A    between atoms: C6_9  and  N1_10 
REMARK    6  A    between atoms: N1_10  and  C7_13 
REMARK    7  A    between atoms: C7_13  and  C8_14 
REMARK    8  A    between atoms: C8_14  and  C9_15 
REMARK    9  A    between atoms: C8_14  and  N6_28 
REMARK   10  A    between atoms: C11_20  and  N4_21 
REMARK   11  A    between atoms: C15_37  and  O4_38 
ROOT
HETATM    1  C8  UNL     1       2.758  20.144  15.353  1.00  0.00     0.179 C 
ENDROOT
BRANCH   1   2
HETATM    2  C7  UNL     1       2.977  20.354  13.898  1.00  0.00     0.264 C 
BRANCH   2   3
HETATM    3  N1  UNL     1       4.403  20.549  13.582  1.00  0.00    -0.072 N 
ATOM      4  H12 UNL     1       4.786  21.391  14.013  1.00  0.00     0.277 HD
ATOM      5  H11 UNL     1       4.554  20.808  12.607  1.00  0.00     0.277 HD
BRANCH   3   6
HETATM    6  C6  UNL     1       5.135  19.355  13.955  1.00  0.00     0.242 C 
BRANCH   6   7
HETATM    7  C5  UNL     1       5.557  18.532  12.758  1.00  0.00     0.138 C 
BRANCH   7   8
HETATM    8  C4  UNL     1       5.703  19.440  11.582  1.00  0.00     0.263 C 
HETATM    9  O2  UNL     1       6.801  20.049  11.406  1.00  0.00    -0.265 OA
BRANCH   8  10
HETATM   10  O1  UNL     1       4.716  19.676  10.647  1.00  0.00    -0.282 OA
BRANCH  10  11
HETATM   11  C3  UNL     1       4.165  18.653   9.864  1.00  0.00     0.362 A 
HETATM   12  C2  UNL     1       2.682  18.525   9.922  1.00  0.00     0.251 A 
HETATM   13  C1  UNL     1       2.289  17.135  10.421  1.00  0.00     0.084 C 
HETATM   14  F1  UNL     1       2.059  19.488  10.682  1.00  0.00    -0.212 F 
HETATM   15  N13 UNL     1       2.284  18.625   8.531  1.00  0.00    -0.166 N 
HETATM   16  N11 UNL     1       3.335  18.792   7.751  1.00  0.00    -0.092 N 
HETATM   17  C18 UNL     1       1.186  18.604   7.767  1.00  0.00     0.350 A 
HETATM   18  O6  UNL     1       4.492  18.820   8.487  1.00  0.00    -0.215 OA
HETATM   19  C17 UNL     1       2.958  18.886   6.455  1.00  0.00     0.370 A 
HETATM   20  O7  UNL     1       3.709  19.049   5.457  1.00  0.00    -0.243 OA
HETATM   21  N12 UNL     1       1.620  18.765   6.492  1.00  0.00    -0.256 N 
ATOM     22  H12 UNL     1       1.012  18.791   5.673  1.00  0.00     0.175 HD
HETATM   23  O8  UNL     1      -0.020  18.469   8.059  1.00  0.00    -0.245 OA
ENDBRANCH  10  11
ENDBRANCH   8  10
ENDBRANCH   7   8
ENDBRANCH   6   7
ENDBRANCH   3   6
ENDBRANCH   2   3
ENDBRANCH   1   2
BRANCH   1  24
HETATM   24  C9  UNL     1       1.885  19.038  15.728  1.00  0.00     0.078 A 
HETATM   25  C10 UNL     1       2.411  18.063  16.582  1.00  0.00     0.145 A 
HETATM   26  N2  UNL     1       3.742  18.143  17.050  1.00  0.00    -0.081 NA
HETATM   27  N3  UNL     1       1.692  17.008  16.992  1.00  0.00    -0.178 N 
HETATM   28  C11 UNL     1       0.434  16.846  16.601  1.00  0.00     0.680 A 
ATOM     29  H3  UNL     1       2.117  16.319  17.614  1.00  0.00     0.185 HD
HETATM   30  N5  UNL     1      -0.109  17.764  15.778  1.00  0.00    -0.156 N 
HETATM   31  C12 UNL     1       0.587  18.832  15.349  1.00  0.00     0.271 A 
ATOM     32  H5  UNL     1      -1.075  17.646  15.472  1.00  0.00     0.187 HD
HETATM   33  O3  UNL     1       0.000  19.629  14.588  1.00  0.00    -0.267 OA
BRANCH  28  34
HETATM   34  N4  UNL     1      -0.224  15.820  17.017  1.00  0.00    -0.234 N 
ATOM     35  H42 UNL     1       0.232  15.027  17.469  1.00  0.00     0.174 HD
ATOM     36  H41 UNL     1      -1.237  15.798  16.893  1.00  0.00     0.174 HD
ENDBRANCH  28  34
ENDBRANCH   1  24
BRANCH   1  37
HETATM   37  N6  UNL     1       2.263  21.420  15.891  1.00  0.00    -0.249 N 
HETATM   38  N7  UNL     1       1.581  22.363  15.247  1.00  0.00    -0.237 N 
HETATM   39  N8  UNL     1       1.309  23.362  16.038  1.00  0.00    -0.278 N 
ATOM     40  H7  UNL     1       1.309  22.311  14.265  1.00  0.00     0.208 HD
HETATM   41  C13 UNL     1       1.822  23.088  17.261  1.00  0.00     0.163 A 
ATOM     42  H8  UNL     1       0.796  24.206  15.781  1.00  0.00     0.189 HD
HETATM   43  C14 UNL     1       2.416  21.869  17.148  1.00  0.00     0.157 A 
HETATM   44  C16 UNL     1       1.844  23.803  18.523  1.00  0.00     0.276 A 
HETATM   45  N9  UNL     1       3.059  21.302  18.300  1.00  0.00    -0.330 N 
HETATM   46  C15 UNL     1       3.130  21.931  19.580  1.00  0.00     0.330 A 
ATOM     47  H9  UNL     1       3.496  20.387  18.196  1.00  0.00     0.165 HD
HETATM   48  N10 UNL     1       2.488  23.214  19.628  1.00  0.00    -0.312 N 
ATOM     49  H10 UNL     1       2.500  23.727  20.509  1.00  0.00     0.167 HD
HETATM   50  O5  UNL     1       1.291  24.929  18.612  1.00  0.00    -0.266 OA
BRANCH  46  51
HETATM   51  O4  UNL     1       2.592  21.042  20.517  1.00  0.00    -0.359 OA
ATOM     52  H4  UNL     1       3.211  20.973  21.235  1.00  0.00     0.214 HD
ENDBRANCH  46  51
ENDBRANCH   1  37
TORSDOF 11
ENDMDL
MODEL 2
REMARK VINA RESULT: -10.188809536      2.633      4.318
REMARK  11 active torsions:
REMARK  status: ('A' for Active; 'I' for Inactive)
REMARK    1  A    between atoms: C3_4  and  O1_5 
REMARK    2  A    between atoms: O1_5  and  C4_6 
REMARK    3  A    between atoms: C4_6  and  C5_8 
REMARK    4  A    between atoms: C5_8  and  C6_9 
REMARK    5  A    between atoms: C6_9  and  N1_10 
REMARK    6  A    between atoms: N1_10  and  C7_13 
REMARK    7  A    between atoms: C7_13  and  C8_14 
REMARK    8  A    between atoms: C8_14  and  C9_15 
REMARK    9  A    between atoms: C8_14  and  N6_28 
REMARK   10  A    between atoms: C11_20  and  N4_21 
REMARK   11  A    between atoms: C15_37  and  O4_38 
ROOT
HETATM    1  C8  UNL     1       2.796  18.800  15.125  1.00  0.00     0.179 C 
ENDROOT
BRANCH   1   2
HETATM    2  C7  UNL     1       3.846  18.566  14.100  1.00  0.00     0.264 C 
BRANCH   2   3
HETATM    3  N1  UNL     1       3.399  18.967  12.755  1.00  0.00    -0.072 N 
ATOM      4  H12 UNL     1       2.686  19.695  12.783  1.00  0.00     0.277 HD
ATOM      5  H11 UNL     1       2.845  18.244  12.297  1.00  0.00     0.277 HD
BRANCH   3   6
HETATM    6  C6  UNL     1       4.555  19.356  11.972  1.00  0.00     0.242 C 
BRANCH   6   7
HETATM    7  C5  UNL     1       4.470  18.888  10.536  1.00  0.00     0.138 C 
BRANCH   7   8
HETATM    8  C4  UNL     1       3.236  18.062  10.374  1.00  0.00     0.263 C 
HETATM    9  O2  UNL     1       3.302  16.811  10.571  1.00  0.00    -0.265 OA
BRANCH   8  10
HETATM   10  O1  UNL     1       2.000  18.562  10.020  1.00  0.00    -0.282 OA
BRANCH  10  11
HETATM   11  C3  UNL     1       1.391  18.257   8.797  1.00  0.00     0.362 A 
HETATM   12  C2  UNL     1      -0.085  18.057   8.844  1.00  0.00     0.251 A 
HETATM   13  C1  UNL     1      -0.445  16.655   8.353  1.00  0.00     0.084 C 
HETATM   14  F1  UNL     1      -0.648  18.278  10.080  1.00  0.00    -0.212 F 
HETATM   15  N13 UNL     1      -0.582  19.009   7.869  1.00  0.00    -0.166 N 
HETATM   16  N11 UNL     1       0.410  19.685   7.321  1.00  0.00    -0.092 N 
HETATM   17  C18 UNL     1      -1.732  19.434   7.336  1.00  0.00     0.350 A 
HETATM   18  O6  UNL     1       1.618  19.285   7.834  1.00  0.00    -0.215 OA
HETATM   19  C17 UNL     1      -0.059  20.572   6.414  1.00  0.00     0.370 A 
HETATM   20  O7  UNL     1       0.618  21.370   5.714  1.00  0.00    -0.243 OA
HETATM   21  N12 UNL     1      -1.392  20.396   6.442  1.00  0.00    -0.256 N 
ATOM     22  H12 UNL     1      -2.057  20.915   5.868  1.00  0.00     0.175 HD
HETATM   23  O8  UNL     1      -2.915  19.091   7.542  1.00  0.00    -0.245 OA
ENDBRANCH  10  11
ENDBRANCH   8  10
ENDBRANCH   7   8
ENDBRANCH   6   7
ENDBRANCH   3   6
ENDBRANCH   2   3
ENDBRANCH   1   2
BRANCH   1  24
HETATM   24  C9  UNL     1       2.110  20.086  15.075  1.00  0.00     0.078 A 
HETATM   25  C10 UNL     1       0.717  20.079  15.192  1.00  0.00     0.145 A 
HETATM   26  N2  UNL     1       0.002  18.868  15.340  1.00  0.00    -0.081 NA
HETATM   27  N3  UNL     1      -0.010  21.206  15.164  1.00  0.00    -0.178 N 
HETATM   28  C11 UNL     1       0.574  22.389  15.024  1.00  0.00     0.680 A 
ATOM     29  H3  UNL     1      -1.025  21.153  15.251  1.00  0.00     0.185 HD
HETATM   30  N5  UNL     1       1.915  22.439  14.908  1.00  0.00    -0.156 N 
HETATM   31  C12 UNL     1       2.670  21.326  14.931  1.00  0.00     0.271 A 
ATOM     32  H5  UNL     1       2.370  23.345  14.799  1.00  0.00     0.187 HD
HETATM   33  O3  UNL     1       3.905  21.470  14.816  1.00  0.00    -0.267 OA
BRANCH  28  34
HETATM   34  N4  UNL     1      -0.158  23.450  15.002  1.00  0.00    -0.234 N 
ATOM     35  H42 UNL     1      -1.136  23.442  15.293  1.00  0.00     0.174 HD
ATOM     36  H41 UNL     1       0.252  24.328  14.685  1.00  0.00     0.174 HD
ENDBRANCH  28  34
ENDBRANCH   1  24
BRANCH   1  37
HETATM   37  N6  UNL     1       3.431  18.585  16.433  1.00  0.00    -0.249 N 
HETATM   38  N7  UNL     1       4.631  18.997  16.831  1.00  0.00    -0.237 N 
HETATM   39  N8  UNL     1       4.869  18.623  18.057  1.00  0.00    -0.278 N 
ATOM     40  H7  UNL     1       5.280  19.533  16.254  1.00  0.00     0.208 HD
HETATM   41  C13 UNL     1       3.793  17.935  18.507  1.00  0.00     0.163 A 
ATOM     42  H8  UNL     1       5.719  18.817  18.586  1.00  0.00     0.189 HD
HETATM   43  C14 UNL     1       2.904  17.921  17.477  1.00  0.00     0.157 A 
HETATM   44  C16 UNL     1       3.474  17.282  19.763  1.00  0.00     0.276 A 
HETATM   45  N9  UNL     1       1.646  17.254  17.656  1.00  0.00    -0.330 N 
HETATM   46  C15 UNL     1       1.245  16.586  18.852  1.00  0.00     0.330 A 
ATOM     47  H9  UNL     1       0.993  17.256  16.873  1.00  0.00     0.165 HD
HETATM   48  N10 UNL     1       2.230  16.635  19.897  1.00  0.00    -0.312 N 
ATOM     49  H10 UNL     1       2.018  16.176  20.782  1.00  0.00     0.167 HD
HETATM   50  O5  UNL     1       4.305  17.302  20.706  1.00  0.00    -0.266 OA
BRANCH  46  51
HETATM   51  O4  UNL     1       0.026  17.139  19.257  1.00  0.00    -0.359 OA
ATOM     52  H4  UNL     1      -0.051  17.007  20.195  1.00  0.00     0.214 HD
ENDBRANCH  46  51
ENDBRANCH   1  37
TORSDOF 11
ENDMDL
MODEL 3
REMARK VINA RESULT: -10.141650954      1.813      3.740
REMARK  11 active torsions:
REMARK  status: ('A' for Active; 'I' for Inactive)
REMARK    1  A    between atoms: C3_4  and  O1_5 
REMARK    2  A    between atoms: O1_5  and  C4_6 
REMARK    3  A    between atoms: C4_6  and  C5_8 
REMARK    4  A    between atoms: C5_8  and  C6_9 
REMARK    5  A    between atoms: C6_9  and  N1_10 
REMARK    6  A    between atoms: N1_10  and  C7_13 
REMARK    7  A    between atoms: C7_13  and  C8_14 
REMARK    8  A    between atoms: C8_14  and  C9_15 
REMARK    9  A    between atoms: C8_14  and  N6_28 
REMARK   10  A    between atoms: C11_20  and  N4_21 
REMARK   11  A    between atoms: C15_37  and  O4_38 
ROOT
HETATM    1  C8  UNL     1       3.427  19.884  15.757  1.00  0.00     0.179 C 
ENDROOT
BRANCH   1   2
HETATM    2  C7  UNL     1       4.760  20.304  15.252  1.00  0.00     0.264 C 
BRANCH   2   3
HETATM    3  N1  UNL     1       4.905  20.049  13.807  1.00  0.00    -0.072 N 
ATOM      4  H12 UNL     1       5.680  20.569  13.397  1.00  0.00     0.277 HD
ATOM      5  H11 UNL     1       4.150  20.465  13.262  1.00  0.00     0.277 HD
BRANCH   3   6
HETATM    6  C6  UNL     1       5.021  18.620  13.592  1.00  0.00     0.242 C 
BRANCH   6   7
HETATM    7  C5  UNL     1       6.035  18.273  12.524  1.00  0.00     0.138 C 
BRANCH   7   8
HETATM    8  C4  UNL     1       6.032  19.353  11.493  1.00  0.00     0.263 C 
HETATM    9  O2  UNL     1       7.055  20.092  11.372  1.00  0.00    -0.265 OA
BRANCH   8  10
HETATM   10  O1  UNL     1       4.981  19.619  10.640  1.00  0.00    -0.282 OA
BRANCH  10  11
HETATM   11  C3  UNL     1       4.336  18.613   9.909  1.00  0.00     0.362 A 
HETATM   12  C2  UNL     1       2.881  18.448  10.184  1.00  0.00     0.251 A 
HETATM   13  C1  UNL     1       2.593  17.031  10.680  1.00  0.00     0.084 C 
HETATM   14  F1  UNL     1       2.363  19.367  11.067  1.00  0.00    -0.212 F 
HETATM   15  N13 UNL     1       2.276  18.590   8.873  1.00  0.00    -0.166 N 
HETATM   16  N11 UNL     1       3.194  18.811   7.951  1.00  0.00    -0.092 N 
HETATM   17  C18 UNL     1       1.076  18.571   8.283  1.00  0.00     0.350 A 
HETATM   18  O6  UNL     1       4.449  18.839   8.506  1.00  0.00    -0.215 OA
HETATM   19  C17 UNL     1       2.624  18.944   6.732  1.00  0.00     0.370 A 
HETATM   20  O7  UNL     1       3.213  19.162   5.640  1.00  0.00    -0.243 OA
HETATM   21  N12 UNL     1       1.309  18.790   6.964  1.00  0.00    -0.256 N 
ATOM     22  H12 UNL     1       0.585  18.832   6.247  1.00  0.00     0.175 HD
HETATM   23  O8  UNL     1      -0.070  18.397   8.747  1.00  0.00    -0.245 OA
ENDBRANCH  10  11
ENDBRANCH   8  10
ENDBRANCH   7   8
ENDBRANCH   6   7
ENDBRANCH   3   6
ENDBRANCH   2   3
ENDBRANCH   1   2
BRANCH   1  24
HETATM   24  C9  UNL     1       2.349  20.858  15.644  1.00  0.00     0.078 A 
HETATM   25  C10 UNL     1       1.191  20.464  14.967  1.00  0.00     0.145 A 
HETATM   26  N2  UNL     1       1.080  19.173  14.401  1.00  0.00    -0.081 NA
HETATM   27  N3  UNL     1       0.139  21.281  14.811  1.00  0.00    -0.178 N 
HETATM   28  C11 UNL     1       0.155  22.513  15.304  1.00  0.00     0.680 A 
ATOM     29  H3  UNL     1      -0.684  20.952  14.307  1.00  0.00     0.185 HD
HETATM   30  N5  UNL     1       1.252  22.931  15.964  1.00  0.00    -0.156 N 
HETATM   31  C12 UNL     1       2.323  22.135  16.134  1.00  0.00     0.271 A 
ATOM     32  H5  UNL     1       1.272  23.877  16.344  1.00  0.00     0.187 HD
HETATM   33  O3  UNL     1       3.295  22.609  16.760  1.00  0.00    -0.267 OA
BRANCH  28  34
HETATM   34  N4  UNL     1      -0.875  23.269  15.134  1.00  0.00    -0.234 N 
ATOM     35  H42 UNL     1      -0.888  24.027  14.452  1.00  0.00     0.174 HD
ATOM     36  H41 UNL     1      -1.708  23.104  15.700  1.00  0.00     0.174 HD
ENDBRANCH  28  34
ENDBRANCH   1  24
BRANCH   1  37
HETATM   37  N6  UNL     1       3.622  19.461  17.151  1.00  0.00    -0.249 N 
HETATM   38  N7  UNL     1       4.528  19.908  18.017  1.00  0.00    -0.237 N 
HETATM   39  N8  UNL     1       4.410  19.306  19.167  1.00  0.00    -0.278 N 
ATOM     40  H7  UNL     1       5.223  20.625  17.808  1.00  0.00     0.208 HD
HETATM   41  C13 UNL     1       3.388  18.421  19.080  1.00  0.00     0.163 A 
ATOM     42  H8  UNL     1       4.987  19.473  19.991  1.00  0.00     0.189 HD
HETATM   43  C14 UNL     1       2.908  18.533  17.812  1.00  0.00     0.157 A 
HETATM   44  C16 UNL     1       2.794  17.480  20.011  1.00  0.00     0.276 A 
HETATM   45  N9  UNL     1       1.804  17.707  17.413  1.00  0.00    -0.330 N 
HETATM   46  C15 UNL     1       1.157  16.755  18.259  1.00  0.00     0.330 A 
ATOM     47  H9  UNL     1       1.457  17.806  16.460  1.00  0.00     0.165 HD
HETATM   48  N10 UNL     1       1.715  16.685  19.580  1.00  0.00    -0.312 N 
ATOM     49  H10 UNL     1       1.308  16.025  20.242  1.00  0.00     0.167 HD
HETATM   50  O5  UNL     1       3.248  17.387  21.180  1.00  0.00    -0.266 OA
BRANCH  46  51
HETATM   51  O4  UNL     1      -0.206  17.068  18.283  1.00  0.00    -0.359 OA
ATOM     52  H4  UNL     1      -0.536  16.980  17.396  1.00  0.00     0.214 HD
ENDBRANCH  46  51
ENDBRANCH   1  37
TORSDOF 11
ENDMDL
MODEL 4
REMARK VINA RESULT: -10.138872138      1.840      2.755
REMARK  11 active torsions:
REMARK  status: ('A' for Active; 'I' for Inactive)
REMARK    1  A    between atoms: C3_4  and  O1_5 
REMARK    2  A    between atoms: O1_5  and  C4_6 
REMARK    3  A    between atoms: C4_6  and  C5_8 
REMARK    4  A    between atoms: C5_8  and  C6_9 
REMARK    5  A    between atoms: C6_9  and  N1_10 
REMARK    6  A    between atoms: N1_10  and  C7_13 
REMARK    7  A    between atoms: C7_13  and  C8_14 
REMARK    8  A    between atoms: C8_14  and  C9_15 
REMARK    9  A    between atoms: C8_14  and  N6_28 
REMARK   10  A    between atoms: C11_20  and  N4_21 
REMARK   11  A    between atoms: C15_37  and  O4_38 
ROOT
HETATM    1  C8  UNL     1       3.650  18.223  15.579  1.00  0.00     0.179 C 
ENDROOT
BRANCH   1   2
HETATM    2  C7  UNL     1       4.075  17.224  14.564  1.00  0.00     0.264 C 
BRANCH   2   3
HETATM    3  N1  UNL     1       5.543  17.153  14.447  1.00  0.00    -0.072 N 
ATOM      4  H12 UNL     1       5.847  16.397  13.834  1.00  0.00     0.277 HD
ATOM      5  H11 UNL     1       5.985  16.825  15.306  1.00  0.00     0.277 HD
BRANCH   3   6
HETATM    6  C6  UNL     1       6.044  18.445  14.024  1.00  0.00     0.242 C 
BRANCH   6   7
HETATM    7  C5  UNL     1       6.256  18.526  12.529  1.00  0.00     0.138 C 
BRANCH   7   8
HETATM    8  C4  UNL     1       5.346  19.572  11.973  1.00  0.00     0.263 C 
HETATM    9  O2  UNL     1       4.832  20.423  12.761  1.00  0.00    -0.265 OA
BRANCH   8  10
HETATM   10  O1  UNL     1       5.012  19.691  10.640  1.00  0.00    -0.282 OA
BRANCH  10  11
HETATM   11  C3  UNL     1       4.323  18.687   9.948  1.00  0.00     0.362 A 
HETATM   12  C2  UNL     1       2.841  18.696  10.107  1.00  0.00     0.251 A 
HETATM   13  C1  UNL     1       2.366  17.370  10.700  1.00  0.00     0.084 C 
HETATM   14  F1  UNL     1       2.357  19.744  10.854  1.00  0.00    -0.212 F 
HETATM   15  N13 UNL     1       2.360  18.767   8.740  1.00  0.00    -0.166 N 
HETATM   16  N11 UNL     1       3.366  18.805   7.887  1.00  0.00    -0.092 N 
HETATM   17  C18 UNL     1       1.216  18.810   8.050  1.00  0.00     0.350 A 
HETATM   18  O6  UNL     1       4.569  18.762   8.545  1.00  0.00    -0.215 OA
HETATM   19  C17 UNL     1       2.912  18.873   6.615  1.00  0.00     0.370 A 
HETATM   20  O7  UNL     1       3.605  18.923   5.564  1.00  0.00    -0.243 OA
HETATM   21  N12 UNL     1       1.573  18.874   6.743  1.00  0.00    -0.256 N 
ATOM     22  H12 UNL     1       0.916  18.917   5.964  1.00  0.00     0.175 HD
HETATM   23  O8  UNL     1       0.025  18.797   8.425  1.00  0.00    -0.245 OA
ENDBRANCH  10  11
ENDBRANCH   8  10
ENDBRANCH   7   8
ENDBRANCH   6   7
ENDBRANCH   3   6
ENDBRANCH   2   3
ENDBRANCH   1   2
BRANCH   1  24
HETATM   24  C9  UNL     1       3.350  17.713  16.911  1.00  0.00     0.078 A 
HETATM   25  C10 UNL     1       4.321  17.887  17.902  1.00  0.00     0.145 A 
HETATM   26  N2  UNL     1       5.551  18.523  17.615  1.00  0.00    -0.081 NA
HETATM   27  N3  UNL     1       4.144  17.460  19.162  1.00  0.00    -0.178 N 
HETATM   28  C11 UNL     1       3.023  16.849  19.522  1.00  0.00     0.680 A 
ATOM     29  H3  UNL     1       4.881  17.607  19.851  1.00  0.00     0.185 HD
HETATM   30  N5  UNL     1       2.062  16.662  18.597  1.00  0.00    -0.156 N 
HETATM   31  C12 UNL     1       2.211  17.078  17.326  1.00  0.00     0.271 A 
ATOM     32  H5  UNL     1       1.198  16.193  18.867  1.00  0.00     0.187 HD
HETATM   33  O3  UNL     1       1.267  16.861  16.538  1.00  0.00    -0.267 OA
BRANCH  28  34
HETATM   34  N4  UNL     1       2.890  16.454  20.742  1.00  0.00    -0.234 N 
ATOM     35  H42 UNL     1       3.614  15.922  21.224  1.00  0.00     0.174 HD
ATOM     36  H41 UNL     1       2.032  16.682  21.244  1.00  0.00     0.174 HD
ENDBRANCH  28  34
ENDBRANCH   1  24
BRANCH   1  37
HETATM   37  N6  UNL     1       2.497  18.935  15.008  1.00  0.00    -0.249 N 
HETATM   38  N7  UNL     1       1.651  18.499  14.079  1.00  0.00    -0.237 N 
HETATM   39  N8  UNL     1       0.747  19.399  13.812  1.00  0.00    -0.278 N 
ATOM     40  H7  UNL     1       1.703  17.582  13.634  1.00  0.00     0.208 HD
HETATM   41  C13 UNL     1       0.987  20.484  14.586  1.00  0.00     0.163 A 
ATOM     42  H8  UNL     1      -0.010  19.303  13.136  1.00  0.00     0.189 HD
HETATM   43  C14 UNL     1       2.086  20.174  15.328  1.00  0.00     0.157 A 
HETATM   44  C16 UNL     1       0.340  21.775  14.733  1.00  0.00     0.276 A 
HETATM   45  N9  UNL     1       2.590  21.144  16.258  1.00  0.00    -0.330 N 
HETATM   46  C15 UNL     1       2.020  22.436  16.471  1.00  0.00     0.330 A 
ATOM     47  H9  UNL     1       3.412  20.893  16.806  1.00  0.00     0.165 HD
HETATM   48  N10 UNL     1       0.868  22.699  15.655  1.00  0.00    -0.312 N 
ATOM     49  H10 UNL     1       0.407  23.604  15.747  1.00  0.00     0.167 HD
HETATM   50  O5  UNL     1      -0.673  22.047  14.041  1.00  0.00    -0.266 OA
BRANCH  46  51
HETATM   51  O4  UNL     1       1.732  22.552  17.835  1.00  0.00    -0.359 OA
ATOM     52  H4  UNL     1       0.957  22.032  18.009  1.00  0.00     0.214 HD
ENDBRANCH  46  51
ENDBRANCH   1  37
TORSDOF 11
ENDMDL
MODEL 5
REMARK VINA RESULT: -10.019471618      1.651      2.034
REMARK  11 active torsions:
REMARK  status: ('A' for Active; 'I' for Inactive)
REMARK    1  A    between atoms: C3_4  and  O1_5 
REMARK    2  A    between atoms: O1_5  and  C4_6 
REMARK    3  A    between atoms: C4_6  and  C5_8 
REMARK    4  A    between atoms: C5_8  and  C6_9 
REMARK    5  A    between atoms: C6_9  and  N1_10 
REMARK    6  A    between atoms: N1_10  and  C7_13 
REMARK    7  A    between atoms: C7_13  and  C8_14 
REMARK    8  A    between atoms: C8_14  and  C9_15 
REMARK    9  A    between atoms: C8_14  and  N6_28 
REMARK   10  A    between atoms: C11_20  and  N4_21 
REMARK   11  A    between atoms: C15_37  and  O4_38 
ROOT
HETATM    1  C8  UNL     1       2.652  20.177  15.253  1.00  0.00     0.179 C 
ENDROOT
BRANCH   1   2
HETATM    2  C7  UNL     1       2.765  20.389  13.786  1.00  0.00     0.264 C 
BRANCH   2   3
HETATM    3  N1  UNL     1       3.225  19.174  13.091  1.00  0.00    -0.072 N 
ATOM      4  H12 UNL     1       2.509  18.781  12.480  1.00  0.00     0.277 HD
ATOM      5  H11 UNL     1       3.325  18.379  13.722  1.00  0.00     0.277 HD
BRANCH   3   6
HETATM    6  C6  UNL     1       4.453  19.476  12.381  1.00  0.00     0.242 C 
BRANCH   6   7
HETATM    7  C5  UNL     1       4.331  19.260  10.889  1.00  0.00     0.138 C 
BRANCH   7   8
HETATM    8  C4  UNL     1       3.238  18.275  10.636  1.00  0.00     0.263 C 
HETATM    9  O2  UNL     1       3.490  17.036  10.737  1.00  0.00    -0.265 OA
BRANCH   8  10
HETATM   10  O1  UNL     1       1.945  18.610  10.293  1.00  0.00    -0.282 OA
BRANCH  10  11
HETATM   11  C3  UNL     1       1.373  18.237   9.070  1.00  0.00     0.362 A 
HETATM   12  C2  UNL     1      -0.108  18.070   9.075  1.00  0.00     0.251 A 
HETATM   13  C1  UNL     1      -0.481  16.646   8.665  1.00  0.00     0.084 C 
HETATM   14  F1  UNL     1      -0.709  18.384  10.272  1.00  0.00    -0.212 F 
HETATM   15  N13 UNL     1      -0.548  18.965   8.022  1.00  0.00    -0.166 N 
HETATM   16  N11 UNL     1       0.478  19.582   7.468  1.00  0.00    -0.092 N 
HETATM   17  C18 UNL     1      -1.668  19.377   7.419  1.00  0.00     0.350 A 
HETATM   18  O6  UNL     1       1.658  19.192   8.051  1.00  0.00    -0.215 OA
HETATM   19  C17 UNL     1       0.062  20.416   6.487  1.00  0.00     0.370 A 
HETATM   20  O7  UNL     1       0.782  21.152   5.762  1.00  0.00    -0.243 OA
HETATM   21  N12 UNL     1      -1.275  20.269   6.477  1.00  0.00    -0.256 N 
ATOM     22  H12 UNL     1      -1.907  20.762   5.846  1.00  0.00     0.175 HD
HETATM   23  O8  UNL     1      -2.865  19.071   7.603  1.00  0.00    -0.245 OA
ENDBRANCH  10  11
ENDBRANCH   8  10
ENDBRANCH   7   8
ENDBRANCH   6   7
ENDBRANCH   3   6
ENDBRANCH   2   3
ENDBRANCH   1   2
BRANCH   1  24
HETATM   24  C9  UNL     1       1.878  19.021  15.688  1.00  0.00     0.078 A 
HETATM   25  C10 UNL     1       2.527  18.074  16.485  1.00  0.00     0.145 A 
HETATM   26  N2  UNL     1       3.887  18.227  16.841  1.00  0.00    -0.081 NA
HETATM   27  N3  UNL     1       1.906  16.976  16.943  1.00  0.00    -0.178 N 
HETATM   28  C11 UNL     1       0.631  16.746  16.655  1.00  0.00     0.680 A 
ATOM     29  H3  UNL     1       2.420  16.310  17.519  1.00  0.00     0.185 HD
HETATM   30  N5  UNL     1      -0.030  17.636  15.891  1.00  0.00    -0.156 N 
HETATM   31  C12 UNL     1       0.566  18.744  15.416  1.00  0.00     0.271 A 
ATOM     32  H5  UNL     1      -1.010  17.465  15.665  1.00  0.00     0.187 HD
HETATM   33  O3  UNL     1      -0.126  19.511  14.715  1.00  0.00    -0.267 OA
BRANCH  28  34
HETATM   34  N4  UNL     1       0.068  15.681  17.115  1.00  0.00    -0.234 N 
ATOM     35  H42 UNL     1      -0.858  15.381  16.811  1.00  0.00     0.174 HD
ATOM     36  H41 UNL     1       0.565  15.118  17.805  1.00  0.00     0.174 HD
ENDBRANCH  28  34
ENDBRANCH   1  24
BRANCH   1  37
HETATM   37  N6  UNL     1       2.113  21.424  15.816  1.00  0.00    -0.249 N 
HETATM   38  N7  UNL     1       1.359  22.333  15.203  1.00  0.00    -0.237 N 
HETATM   39  N8  UNL     1       1.064  23.313  16.010  1.00  0.00    -0.278 N 
ATOM     40  H7  UNL     1       1.052  22.270  14.232  1.00  0.00     0.208 HD
HETATM   41  C13 UNL     1       1.637  23.062  17.211  1.00  0.00     0.163 A 
ATOM     42  H8  UNL     1       0.499  24.129  15.776  1.00  0.00     0.189 HD
HETATM   43  C14 UNL     1       2.289  21.876  17.070  1.00  0.00     0.157 A 
HETATM   44  C16 UNL     1       1.669  23.773  18.476  1.00  0.00     0.276 A 
HETATM   45  N9  UNL     1       3.003  21.340  18.193  1.00  0.00    -0.330 N 
HETATM   46  C15 UNL     1       3.090  21.966  19.473  1.00  0.00     0.330 A 
ATOM     47  H9  UNL     1       3.484  20.449  18.068  1.00  0.00     0.165 HD
HETATM   48  N10 UNL     1       2.384  23.214  19.552  1.00  0.00    -0.312 N 
ATOM     49  H10 UNL     1       2.402  23.724  20.435  1.00  0.00     0.167 HD
HETATM   50  O5  UNL     1       1.062  24.868  18.592  1.00  0.00    -0.266 OA
BRANCH  46  51
HETATM   51  O4  UNL     1       2.635  21.047  20.425  1.00  0.00    -0.359 OA
ATOM     52  H4  UNL     1       3.090  21.228  21.239  1.00  0.00     0.214 HD
ENDBRANCH  46  51
ENDBRANCH   1  37
TORSDOF 11
ENDMDL
