MODEL 1
REMARK VINA RESULT: -9.184875689      0.000      0.000
REMARK  16 active torsions:
REMARK  status: ('A' for Active; 'I' for Inactive)
REMARK    1  A    between atoms: C2_2  and  C7_21 
REMARK    2  A    between atoms: N1_3  and  C3_5 
REMARK    3  A    between atoms: C3_5  and  O1_6 
REMARK    4  A    between atoms: C3_5  and  C4_8 
REMARK    5  A    between atoms: C4_8  and  N3_13 
REMARK    6  A    between atoms: N2_9  and  O2_11 
REMARK    7  A    between atoms: N3_13  and  C5_15 
REMARK    8  A    between atoms: C5_15  and  O3_16 
REMARK    9  A    between atoms: C5_15  and  C6_18 
REMARK   10  A    between atoms: C6_18  and  O4_19 
REMARK       I    between atoms: C7_21  and  N4_23 
REMARK   11  A    between atoms: N4_23  and  C8_25 
REMARK   12  A    between atoms: C10_29  and  N5_31 
REMARK   13  A    between atoms: C14_38  and  O8_39 
REMARK   14  A    between atoms: C14_38  and  N8_41 
REMARK   15  A    between atoms: N8_41  and  N9_43 
REMARK   16  A    between atoms: C16_48  and  O9_49 
ROOT
HETATM    1  C8  UNL     1       3.343  19.053  13.540  1.00  0.00     0.214 C 
HETATM    2  C9  UNL     1       4.516  19.929  13.362  1.00  0.00     0.286 C 
HETATM    3  O6  UNL     1       4.341  21.112  13.015  1.00  0.00    -0.263 OA
HETATM    4  O7  UNL     1       5.739  19.420  13.581  1.00  0.00    -0.285 OA
HETATM    5  C10 UNL     1       6.169  18.620  14.696  1.00  0.00     0.177 C 
HETATM    6  C11 UNL     1       6.666  19.660  15.619  1.00  0.00     0.075 C 
HETATM    7  C15 UNL     1       4.897  18.078  15.248  1.00  0.00     0.146 C 
HETATM    8 BR1  UNL     1       5.081  16.494  16.319  1.00  0.00    -0.083 Br
HETATM    9  C16 UNL     1       3.753  17.830  14.326  1.00  0.00     0.169 C 
ENDROOT
BRANCH   1  10
HETATM   10  N4  UNL     1       2.737  18.676  12.283  1.00  0.00    -0.340 N 
HETATM   11  C7  UNL     1       1.406  18.954  11.967  1.00  0.00     0.264 C 
HETATM   12  O5  UNL     1       0.680  19.557  12.790  1.00  0.00    -0.266 OA
ATOM     13  H4  UNL     1       3.308  18.185  11.594  1.00  0.00     0.163 HD
BRANCH  11  14
HETATM   14  C2  UNL     1       0.849  18.557  10.697  1.00  0.00     0.071 C 
HETATM   15  C1  UNL     1      -0.614  18.429  10.543  1.00  0.00     0.074 C 
HETATM   16  N1  UNL     1       1.619  18.313   9.703  1.00  0.00    -0.357 N 
ATOM     17  H1  UNL     1       2.622  18.415   9.858  1.00  0.00     0.162 HD
BRANCH  16  18
HETATM   18  C3  UNL     1       1.205  17.910   8.397  1.00  0.00     0.288 C 
BRANCH  18  19
HETATM   19  O1  UNL     1       1.639  16.606   8.151  1.00  0.00    -0.369 OA
ATOM     20  H1  UNL     1       2.540  16.621   7.851  1.00  0.00     0.212 HD
ENDBRANCH  18  19
BRANCH  18  21
HETATM   21  C4  UNL     1       1.685  18.864   7.384  1.00  0.00     0.148 C 
HETATM   22  N2  UNL     1       2.916  19.188   7.223  1.00  0.00    -0.253 N 
ATOM     23  H2  UNL     1       3.117  19.862   6.484  1.00  0.00     0.195 HD
BRANCH  22  24
HETATM   24  O2  UNL     1       3.976  18.732   7.927  1.00  0.00    -0.288 OA
ATOM     25  H2  UNL     1       4.214  17.825   8.080  1.00  0.00     0.244 HD
ENDBRANCH  22  24
BRANCH  21  26
HETATM   26  N3  UNL     1       0.676  19.454   6.536  1.00  0.00    -0.347 N 
ATOM     27  H3  UNL     1       0.959  19.903   5.664  1.00  0.00     0.163 HD
BRANCH  26  28
HETATM   28  C5  UNL     1      -0.719  19.423   6.889  1.00  0.00     0.242 C 
BRANCH  28  29
HETATM   29  O3  UNL     1      -1.233  18.208   6.403  1.00  0.00    -0.375 OA
ATOM     30  H3  UNL     1      -0.521  17.580   6.428  1.00  0.00     0.212 HD
ENDBRANCH  28  29
BRANCH  28  31
HETATM   31  C6  UNL     1      -1.523  20.541   6.278  1.00  0.00     0.217 C 
BRANCH  31  32
HETATM   32  O4  UNL     1      -2.861  20.187   6.178  1.00  0.00    -0.397 OA
ATOM     33  H4  UNL     1      -3.363  20.881   5.766  1.00  0.00     0.209 HD
ENDBRANCH  31  32
ENDBRANCH  28  31
ENDBRANCH  26  28
ENDBRANCH  21  26
ENDBRANCH  18  21
ENDBRANCH  16  18
ENDBRANCH  11  14
ENDBRANCH   1  10
BRANCH   9  34
HETATM   34  O9  UNL     1       3.849  16.674  13.560  1.00  0.00    -0.392 OA
ATOM     35  H9  UNL     1       4.701  16.547  13.161  1.00  0.00     0.210 HD
ENDBRANCH   9  34
BRANCH   5  36
HETATM   36  N5  UNL     1       7.066  17.674  14.153  1.00  0.00    -0.235 N 
HETATM   37  N6  UNL     1       6.730  16.383  14.105  1.00  0.00    -0.289 N 
HETATM   38  C12 UNL     1       7.665  15.630  13.582  1.00  0.00     0.199 A 
ATOM     39  H6  UNL     1       5.838  16.021  14.440  1.00  0.00     0.188 HD
HETATM   40  N7  UNL     1       8.649  16.474  13.278  1.00  0.00    -0.333 N 
HETATM   41  C13 UNL     1       8.282  17.733  13.630  1.00  0.00     0.179 A 
ATOM     42  H7  UNL     1       9.538  16.216  12.849  1.00  0.00     0.168 HD
HETATM   43  C14 UNL     1       9.155  18.849  13.402  1.00  0.00     0.201 C 
BRANCH  43  44
HETATM   44  O8  UNL     1       9.323  19.856  14.262  1.00  0.00    -0.342 OA
ATOM     45  H8  UNL     1       9.507  19.741  15.187  1.00  0.00     0.219 HD
ENDBRANCH  43  44
BRANCH  43  46
HETATM   46  N8  UNL     1       9.084  19.227  11.977  1.00  0.00    -0.283 N 
ATOM     47  H8  UNL     1       9.866  19.158  11.327  1.00  0.00     0.188 HD
BRANCH  46  48
HETATM   48  N9  UNL     1       7.818  19.689  11.630  1.00  0.00    -0.343 N 
ATOM     49  H92 UNL     1       6.962  19.165  11.810  1.00  0.00     0.176 HD
ATOM     50  H91 UNL     1       7.861  20.605  11.182  1.00  0.00     0.176 HD
ENDBRANCH  46  48
ENDBRANCH  43  46
ENDBRANCH   5  36
TORSDOF 16
ENDMDL
MODEL 2
REMARK VINA RESULT: -9.172888952      1.233      2.119
REMARK  16 active torsions:
REMARK  status: ('A' for Active; 'I' for Inactive)
REMARK    1  A    between atoms: C2_2  and  C7_21 
REMARK    2  A    between atoms: N1_3  and  C3_5 
REMARK    3  A    between atoms: C3_5  and  O1_6 
REMARK    4  A    between atoms: C3_5  and  C4_8 
REMARK    5  A    between atoms: C4_8  and  N3_13 
REMARK    6  A    between atoms: N2_9  and  O2_11 
REMARK    7  A    between atoms: N3_13  and  C5_15 
REMARK    8  A    between atoms: C5_15  and  O3_16 
REMARK    9  A    between atoms: C5_15  and  C6_18 
REMARK   10  A    between atoms: C6_18  and  O4_19 
REMARK       I    between atoms: C7_21  and  N4_23 
REMARK   11  A    between atoms: N4_23  and  C8_25 
REMARK   12  A    between atoms: C10_29  and  N5_31 
REMARK   13  A    between atoms: C14_38  and  O8_39 
REMARK   14  A    between atoms: C14_38  and  N8_41 
REMARK   15  A    between atoms: N8_41  and  N9_43 
REMARK   16  A    between atoms: C16_48  and  O9_49 
ROOT
HETATM    1  C8  UNL     1       3.379  19.172  13.432  1.00  0.00     0.214 C 
HETATM    2  C9  UNL     1       4.585  19.999  13.238  1.00  0.00     0.286 C 
HETATM    3  O6  UNL     1       4.456  21.178  12.858  1.00  0.00    -0.263 OA
HETATM    4  O7  UNL     1       5.788  19.451  13.477  1.00  0.00    -0.285 OA
HETATM    5  C10 UNL     1       6.182  18.666  14.616  1.00  0.00     0.177 C 
HETATM    6  C11 UNL     1       6.713  19.712  15.513  1.00  0.00     0.075 C 
HETATM    7  C15 UNL     1       4.888  18.187  15.175  1.00  0.00     0.146 C 
HETATM    8 BR1  UNL     1       5.009  16.627  16.289  1.00  0.00    -0.083 Br
HETATM    9  C16 UNL     1       3.741  17.956  14.254  1.00  0.00     0.169 C 
ENDROOT
BRANCH   1  10
HETATM   10  N4  UNL     1       2.766  18.784  12.182  1.00  0.00    -0.340 N 
HETATM   11  C7  UNL     1       1.410  18.973  11.910  1.00  0.00     0.264 C 
HETATM   12  O5  UNL     1       0.667  19.501  12.769  1.00  0.00    -0.266 OA
ATOM     13  H4  UNL     1       3.351  18.353  11.466  1.00  0.00     0.163 HD
BRANCH  11  14
HETATM   14  C2  UNL     1       0.847  18.569  10.646  1.00  0.00     0.071 C 
HETATM   15  C1  UNL     1      -0.615  18.404  10.511  1.00  0.00     0.074 C 
HETATM   16  N1  UNL     1       1.609  18.350   9.640  1.00  0.00    -0.357 N 
ATOM     17  H1  UNL     1       2.611  18.478   9.783  1.00  0.00     0.162 HD
BRANCH  16  18
HETATM   18  C3  UNL     1       1.188  17.944   8.337  1.00  0.00     0.288 C 
BRANCH  18  19
HETATM   19  O1  UNL     1       1.639  16.647   8.084  1.00  0.00    -0.369 OA
ATOM     20  H1  UNL     1       0.934  16.133   7.709  1.00  0.00     0.212 HD
ENDBRANCH  18  19
BRANCH  18  21
HETATM   21  C4  UNL     1       1.643  18.908   7.322  1.00  0.00     0.148 C 
HETATM   22  N2  UNL     1       0.899  19.813   6.801  1.00  0.00    -0.253 N 
ATOM     23  H2  UNL     1       1.336  20.419   6.107  1.00  0.00     0.195 HD
BRANCH  22  24
HETATM   24  O2  UNL     1      -0.404  20.051   7.073  1.00  0.00    -0.288 OA
ATOM     25  H2  UNL     1      -1.155  19.575   6.737  1.00  0.00     0.244 HD
ENDBRANCH  22  24
BRANCH  21  26
HETATM   26  N3  UNL     1       3.023  18.796   6.910  1.00  0.00    -0.347 N 
ATOM     27  H3  UNL     1       3.761  18.966   7.593  1.00  0.00     0.163 HD
BRANCH  26  28
HETATM   28  C5  UNL     1       3.382  18.449   5.560  1.00  0.00     0.242 C 
BRANCH  28  29
HETATM   29  O3  UNL     1       3.178  19.600   4.778  1.00  0.00    -0.375 OA
ATOM     30  H3  UNL     1       3.553  20.328   5.261  1.00  0.00     0.212 HD
ENDBRANCH  28  29
BRANCH  28  31
HETATM   31  C6  UNL     1       2.543  17.341   4.976  1.00  0.00     0.217 C 
BRANCH  31  32
HETATM   32  O4  UNL     1       3.106  16.866   3.800  1.00  0.00    -0.397 OA
ATOM     33  H4  UNL     1       3.555  16.043   3.949  1.00  0.00     0.209 HD
ENDBRANCH  31  32
ENDBRANCH  28  31
ENDBRANCH  26  28
ENDBRANCH  21  26
ENDBRANCH  18  21
ENDBRANCH  16  18
ENDBRANCH  11  14
ENDBRANCH   1  10
BRANCH   9  34
HETATM   34  O9  UNL     1       3.797  16.778  13.519  1.00  0.00    -0.392 OA
ATOM     35  H9  UNL     1       4.112  16.031  14.015  1.00  0.00     0.210 HD
ENDBRANCH   9  34
BRANCH   5  36
HETATM   36  N5  UNL     1       7.046  17.673  14.104  1.00  0.00    -0.235 N 
HETATM   37  N6  UNL     1       6.684  16.390  14.135  1.00  0.00    -0.289 N 
HETATM   38  C12 UNL     1       7.590  15.590  13.631  1.00  0.00     0.199 A 
ATOM     39  H6  UNL     1       5.794  16.065  14.511  1.00  0.00     0.188 HD
HETATM   40  N7  UNL     1       8.583  16.394  13.257  1.00  0.00    -0.333 N 
HETATM   41  C13 UNL     1       8.249  17.678  13.548  1.00  0.00     0.179 A 
ATOM     42  H7  UNL     1       9.454  16.095  12.820  1.00  0.00     0.168 HD
HETATM   43  C14 UNL     1       9.137  18.762  13.237  1.00  0.00     0.201 C 
BRANCH  43  44
HETATM   44  O8  UNL     1       9.348  19.810  14.037  1.00  0.00    -0.342 OA
ATOM     45  H8  UNL     1       8.927  19.929  14.880  1.00  0.00     0.219 HD
ENDBRANCH  43  44
BRANCH  43  46
HETATM   46  N8  UNL     1       9.037  19.063  11.796  1.00  0.00    -0.283 N 
ATOM     47  H8  UNL     1       9.748  18.815  11.108  1.00  0.00     0.188 HD
BRANCH  46  48
HETATM   48  N9  UNL     1       7.853  19.727  11.491  1.00  0.00    -0.343 N 
ATOM     49  H92 UNL     1       7.337  19.583  10.623  1.00  0.00     0.176 HD
ATOM     50  H91 UNL     1       7.576  20.365  12.238  1.00  0.00     0.176 HD
ENDBRANCH  46  48
ENDBRANCH  43  46
ENDBRANCH   5  36
TORSDOF 16
ENDMDL
MODEL 3
REMARK VINA RESULT: -9.157501096      3.789      5.155
REMARK  16 active torsions:
REMARK  status: ('A' for Active; 'I' for Inactive)
REMARK    1  A    between atoms: C2_2  and  C7_21 
REMARK    2  A    between atoms: N1_3  and  C3_5 
REMARK    3  A    between atoms: C3_5  and  O1_6 
REMARK    4  A    between atoms: C3_5  and  C4_8 
REMARK    5  A    between atoms: C4_8  and  N3_13 
REMARK    6  A    between atoms: N2_9  and  O2_11 
REMARK    7  A    between atoms: N3_13  and  C5_15 
REMARK    8  A    between atoms: C5_15  and  O3_16 
REMARK    9  A    between atoms: C5_15  and  C6_18 
REMARK   10  A    between atoms: C6_18  and  O4_19 
REMARK       I    between atoms: C7_21  and  N4_23 
REMARK   11  A    between atoms: N4_23  and  C8_25 
REMARK   12  A    between atoms: C10_29  and  N5_31 
REMARK   13  A    between atoms: C14_38  and  O8_39 
REMARK   14  A    between atoms: C14_38  and  N8_41 
REMARK   15  A    between atoms: N8_41  and  N9_43 
REMARK   16  A    between atoms: C16_48  and  O9_49 
ROOT
HETATM    1  C8  UNL     1       4.048  18.278  14.636  1.00  0.00     0.214 C 
HETATM    2  C9  UNL     1       4.435  16.947  15.140  1.00  0.00     0.286 C 
HETATM    3  O6  UNL     1       5.131  16.205  14.422  1.00  0.00    -0.263 OA
HETATM    4  O7  UNL     1       4.021  16.576  16.363  1.00  0.00    -0.285 OA
HETATM    5  C10 UNL     1       4.070  17.347  17.576  1.00  0.00     0.177 C 
HETATM    6  C11 UNL     1       5.378  16.935  18.123  1.00  0.00     0.075 C 
HETATM    7  C15 UNL     1       4.188  18.750  17.093  1.00  0.00     0.146 C 
HETATM    8 BR1  UNL     1       3.651  20.095  18.355  1.00  0.00    -0.083 Br
HETATM    9  C16 UNL     1       3.569  19.125  15.792  1.00  0.00     0.169 C 
ENDROOT
BRANCH   1  10
HETATM   10  N4  UNL     1       3.043  18.207  13.600  1.00  0.00    -0.340 N 
HETATM   11  C7  UNL     1       3.321  18.448  12.253  1.00  0.00     0.264 C 
HETATM   12  O5  UNL     1       4.485  18.740  11.897  1.00  0.00    -0.266 OA
ATOM     13  H4  UNL     1       2.086  17.969  13.864  1.00  0.00     0.163 HD
BRANCH  11  14
HETATM   14  C2  UNL     1       2.281  18.363  11.257  1.00  0.00     0.071 C 
HETATM   15  C1  UNL     1       0.976  19.009  11.500  1.00  0.00     0.074 C 
HETATM   16  N1  UNL     1       2.485  17.729  10.163  1.00  0.00    -0.357 N 
ATOM     17  H1  UNL     1       3.402  17.300  10.041  1.00  0.00     0.162 HD
BRANCH  16  18
HETATM   18  C3  UNL     1       1.548  17.565   9.098  1.00  0.00     0.288 C 
BRANCH  18  19
HETATM   19  O1  UNL     1       1.525  16.227   8.699  1.00  0.00    -0.369 OA
ATOM     20  H1  UNL     1       1.848  16.155   7.808  1.00  0.00     0.212 HD
ENDBRANCH  18  19
BRANCH  18  21
HETATM   21  C4  UNL     1       1.860  18.480   7.988  1.00  0.00     0.148 C 
HETATM   22  N2  UNL     1       3.037  18.914   7.719  1.00  0.00    -0.253 N 
ATOM     23  H2  UNL     1       3.118  19.544   6.921  1.00  0.00     0.195 HD
BRANCH  22  24
HETATM   24  O2  UNL     1       4.181  18.626   8.380  1.00  0.00    -0.288 OA
ATOM     25  H2  UNL     1       4.993  19.119   8.358  1.00  0.00     0.244 HD
ENDBRANCH  22  24
BRANCH  21  26
HETATM   26  N3  UNL     1       0.744  18.893   7.171  1.00  0.00    -0.347 N 
ATOM     27  H3  UNL     1       0.869  19.657   6.506  1.00  0.00     0.163 HD
BRANCH  26  28
HETATM   28  C5  UNL     1      -0.542  18.254   7.271  1.00  0.00     0.242 C 
BRANCH  28  29
HETATM   29  O3  UNL     1      -0.462  17.063   6.526  1.00  0.00    -0.375 OA
ATOM     30  H3  UNL     1      -1.017  17.180   5.764  1.00  0.00     0.212 HD
ENDBRANCH  28  29
BRANCH  28  31
HETATM   31  C6  UNL     1      -1.672  19.076   6.706  1.00  0.00     0.217 C 
BRANCH  31  32
HETATM   32  O4  UNL     1      -2.410  18.335   5.793  1.00  0.00    -0.397 OA
ATOM     33  H4  UNL     1      -3.048  18.883   5.352  1.00  0.00     0.209 HD
ENDBRANCH  31  32
ENDBRANCH  28  31
ENDBRANCH  26  28
ENDBRANCH  21  26
ENDBRANCH  18  21
ENDBRANCH  16  18
ENDBRANCH  11  14
ENDBRANCH   1  10
BRANCH   9  34
HETATM   34  O9  UNL     1       2.192  19.310  15.821  1.00  0.00    -0.392 OA
ATOM     35  H9  UNL     1       1.863  19.610  16.660  1.00  0.00     0.210 HD
ENDBRANCH   9  34
BRANCH   5  36
HETATM   36  N5  UNL     1       2.883  17.025  18.271  1.00  0.00    -0.235 N 
HETATM   37  N6  UNL     1       1.770  16.735  17.597  1.00  0.00    -0.289 N 
HETATM   38  C12 UNL     1       0.754  16.464  18.378  1.00  0.00     0.199 A 
ATOM     39  H6  UNL     1       1.715  16.724  16.578  1.00  0.00     0.188 HD
HETATM   40  N7  UNL     1       1.234  16.584  19.613  1.00  0.00    -0.333 N 
HETATM   41  C13 UNL     1       2.546  16.930  19.549  1.00  0.00     0.179 A 
ATOM     42  H7  UNL     1       0.703  16.439  20.471  1.00  0.00     0.168 HD
HETATM   43  C14 UNL     1       3.322  17.114  20.743  1.00  0.00     0.201 C 
BRANCH  43  44
HETATM   44  O8  UNL     1       4.224  18.084  20.907  1.00  0.00    -0.342 OA
ATOM     45  H8  UNL     1       4.354  18.558  21.720  1.00  0.00     0.219 HD
ENDBRANCH  43  44
BRANCH  43  46
HETATM   46  N8  UNL     1       3.697  15.791  21.277  1.00  0.00    -0.283 N 
ATOM     47  H8  UNL     1       4.339  15.148  20.815  1.00  0.00     0.188 HD
BRANCH  46  48
HETATM   48  N9  UNL     1       3.065  15.528  22.489  1.00  0.00    -0.343 N 
ATOM     49  H92 UNL     1       2.816  16.255  23.160  1.00  0.00     0.176 HD
ATOM     50  H91 UNL     1       2.889  14.531  22.614  1.00  0.00     0.176 HD
ENDBRANCH  46  48
ENDBRANCH  43  46
ENDBRANCH   5  36
TORSDOF 16
ENDMDL
MODEL 4
REMARK VINA RESULT: -9.013230951      3.785      5.435
REMARK  16 active torsions:
REMARK  status: ('A' for Active; 'I' for Inactive)
REMARK    1  A    between atoms: C2_2  and  C7_21 
REMARK    2  A    between atoms: N1_3  and  C3_5 
REMARK    3  A    between atoms: C3_5  and  O1_6 
REMARK    4  A    between atoms: C3_5  and  C4_8 
REMARK    5  A    between atoms: C4_8  and  N3_13 
REMARK    6  A    between atoms: N2_9  and  O2_11 
REMARK    7  A    between atoms: N3_13  and  C5_15 
REMARK    8  A    between atoms: C5_15  and  O3_16 
REMARK    9  A    between atoms: C5_15  and  C6_18 
REMARK   10  A    between atoms: C6_18  and  O4_19 
REMARK       I    between atoms: C7_21  and  N4_23 
REMARK   11  A    between atoms: N4_23  and  C8_25 
REMARK   12  A    between atoms: C10_29  and  N5_31 
REMARK   13  A    between atoms: C14_38  and  O8_39 
REMARK   14  A    between atoms: C14_38  and  N8_41 
REMARK   15  A    between atoms: N8_41  and  N9_43 
REMARK   16  A    between atoms: C16_48  and  O9_49 
ROOT
HETATM    1  C8  UNL     1       3.867  18.276  14.265  1.00  0.00     0.214 C 
HETATM    2  C9  UNL     1       4.193  16.929  14.771  1.00  0.00     0.286 C 
HETATM    3  O6  UNL     1       4.839  16.149  14.046  1.00  0.00    -0.263 OA
HETATM    4  O7  UNL     1       3.778  16.585  16.001  1.00  0.00    -0.285 OA
HETATM    5  C10 UNL     1       3.884  17.357  17.210  1.00  0.00     0.177 C 
HETATM    6  C11 UNL     1       5.177  16.880  17.740  1.00  0.00     0.075 C 
HETATM    7  C15 UNL     1       4.068  18.750  16.718  1.00  0.00     0.146 C 
HETATM    8 BR1  UNL     1       3.620  20.127  17.982  1.00  0.00    -0.083 Br
HETATM    9  C16 UNL     1       3.450  19.152  15.424  1.00  0.00     0.169 C 
ENDROOT
BRANCH   1  10
HETATM   10  N4  UNL     1       2.845  18.253  13.244  1.00  0.00    -0.340 N 
HETATM   11  C7  UNL     1       3.126  18.393  11.884  1.00  0.00     0.264 C 
HETATM   12  O5  UNL     1       4.308  18.545  11.501  1.00  0.00    -0.266 OA
ATOM     13  H4  UNL     1       1.873  18.129  13.530  1.00  0.00     0.163 HD
BRANCH  11  14
HETATM   14  C2  UNL     1       2.068  18.362  10.904  1.00  0.00     0.071 C 
HETATM   15  C1  UNL     1       0.711  18.816  11.272  1.00  0.00     0.074 C 
HETATM   16  N1  UNL     1       2.300  17.942   9.717  1.00  0.00    -0.357 N 
ATOM     17  H1  UNL     1       3.252  17.640   9.511  1.00  0.00     0.162 HD
BRANCH  16  18
HETATM   18  C3  UNL     1       1.351  17.855   8.654  1.00  0.00     0.288 C 
BRANCH  18  19
HETATM   19  O1  UNL     1       1.275  16.536   8.202  1.00  0.00    -0.369 OA
ATOM     20  H1  UNL     1       0.410  16.372   7.844  1.00  0.00     0.212 HD
ENDBRANCH  18  19
BRANCH  18  21
HETATM   21  C4  UNL     1       1.689  18.802   7.578  1.00  0.00     0.148 C 
HETATM   22  N2  UNL     1       0.859  19.629   7.057  1.00  0.00    -0.253 N 
ATOM     23  H2  UNL     1       1.220  20.232   6.318  1.00  0.00     0.195 HD
BRANCH  22  24
HETATM   24  O2  UNL     1      -0.444  19.788   7.382  1.00  0.00    -0.288 OA
ATOM     25  H2  UNL     1      -1.193  19.697   6.804  1.00  0.00     0.244 HD
ENDBRANCH  22  24
BRANCH  21  26
HETATM   26  N3  UNL     1       3.053  18.767   7.106  1.00  0.00    -0.347 N 
ATOM     27  H3  UNL     1       3.812  18.958   7.760  1.00  0.00     0.163 HD
BRANCH  26  28
HETATM   28  C5  UNL     1       3.369  18.470   5.733  1.00  0.00     0.242 C 
BRANCH  28  29
HETATM   29  O3  UNL     1       3.072  19.626   4.989  1.00  0.00    -0.375 OA
ATOM     30  H3  UNL     1       2.654  19.335   4.187  1.00  0.00     0.212 HD
ENDBRANCH  28  29
BRANCH  28  31
HETATM   31  C6  UNL     1       2.563  17.333   5.159  1.00  0.00     0.217 C 
BRANCH  31  32
HETATM   32  O4  UNL     1       3.067  16.948   3.924  1.00  0.00    -0.397 OA
ATOM     33  H4  UNL     1       2.481  16.333   3.499  1.00  0.00     0.209 HD
ENDBRANCH  31  32
ENDBRANCH  28  31
ENDBRANCH  26  28
ENDBRANCH  21  26
ENDBRANCH  18  21
ENDBRANCH  16  18
ENDBRANCH  11  14
ENDBRANCH   1  10
BRANCH   9  34
HETATM   34  O9  UNL     1       2.085  19.408  15.472  1.00  0.00    -0.392 OA
ATOM     35  H9  UNL     1       1.563  18.803  14.959  1.00  0.00     0.210 HD
ENDBRANCH   9  34
BRANCH   5  36
HETATM   36  N5  UNL     1       2.693  17.100  17.924  1.00  0.00    -0.235 N 
HETATM   37  N6  UNL     1       1.549  16.900  17.267  1.00  0.00    -0.289 N 
HETATM   38  C12 UNL     1       0.533  16.681  18.064  1.00  0.00     0.199 A 
ATOM     39  H6  UNL     1       1.473  16.915  16.250  1.00  0.00     0.188 HD
HETATM   40  N7  UNL     1       1.045  16.741  19.291  1.00  0.00    -0.333 N 
HETATM   41  C13 UNL     1       2.376  17.000  19.206  1.00  0.00     0.179 A 
ATOM     42  H7  UNL     1       0.523  16.613  20.157  1.00  0.00     0.168 HD
HETATM   43  C14 UNL     1       3.186  17.106  20.387  1.00  0.00     0.201 C 
BRANCH  43  44
HETATM   44  O8  UNL     1       4.154  18.009  20.551  1.00  0.00    -0.342 OA
ATOM     45  H8  UNL     1       5.031  17.921  20.196  1.00  0.00     0.219 HD
ENDBRANCH  43  44
BRANCH  43  46
HETATM   46  N8  UNL     1       3.482  15.749  20.885  1.00  0.00    -0.283 N 
ATOM     47  H8  UNL     1       3.880  15.003  20.315  1.00  0.00     0.188 HD
BRANCH  46  48
HETATM   48  N9  UNL     1       3.151  15.612  22.230  1.00  0.00    -0.343 N 
ATOM     49  H92 UNL     1       3.726  15.979  22.988  1.00  0.00     0.176 HD
ATOM     50  H91 UNL     1       2.274  15.106  22.353  1.00  0.00     0.176 HD
ENDBRANCH  46  48
ENDBRANCH  43  46
ENDBRANCH   5  36
TORSDOF 16
ENDMDL
MODEL 5
REMARK VINA RESULT: -9.002353221      3.722      5.486
REMARK  16 active torsions:
REMARK  status: ('A' for Active; 'I' for Inactive)
REMARK    1  A    between atoms: C2_2  and  C7_21 
REMARK    2  A    between atoms: N1_3  and  C3_5 
REMARK    3  A    between atoms: C3_5  and  O1_6 
REMARK    4  A    between atoms: C3_5  and  C4_8 
REMARK    5  A    between atoms: C4_8  and  N3_13 
REMARK    6  A    between atoms: N2_9  and  O2_11 
REMARK    7  A    between atoms: N3_13  and  C5_15 
REMARK    8  A    between atoms: C5_15  and  O3_16 
REMARK    9  A    between atoms: C5_15  and  C6_18 
REMARK   10  A    between atoms: C6_18  and  O4_19 
REMARK       I    between atoms: C7_21  and  N4_23 
REMARK   11  A    between atoms: N4_23  and  C8_25 
REMARK   12  A    between atoms: C10_29  and  N5_31 
REMARK   13  A    between atoms: C14_38  and  O8_39 
REMARK   14  A    between atoms: C14_38  and  N8_41 
REMARK   15  A    between atoms: N8_41  and  N9_43 
REMARK   16  A    between atoms: C16_48  and  O9_49 
ROOT
HETATM    1  C8  UNL     1       3.721  18.236  14.209  1.00  0.00     0.214 C 
HETATM    2  C9  UNL     1       4.103  16.910  14.729  1.00  0.00     0.286 C 
HETATM    3  O6  UNL     1       4.738  16.130  13.994  1.00  0.00    -0.263 OA
HETATM    4  O7  UNL     1       3.751  16.584  15.984  1.00  0.00    -0.285 OA
HETATM    5  C10 UNL     1       3.890  17.387  17.170  1.00  0.00     0.177 C 
HETATM    6  C11 UNL     1       5.216  16.956  17.653  1.00  0.00     0.075 C 
HETATM    7  C15 UNL     1       4.015  18.773  16.640  1.00  0.00     0.146 C 
HETATM    8 BR1  UNL     1       3.586  20.166  17.890  1.00  0.00    -0.083 Br
HETATM    9  C16 UNL     1       3.332  19.128  15.365  1.00  0.00     0.169 C 
ENDROOT
BRANCH   1  10
HETATM   10  N4  UNL     1       2.656  18.163  13.234  1.00  0.00    -0.340 N 
HETATM   11  C7  UNL     1       2.875  18.271  11.860  1.00  0.00     0.264 C 
HETATM   12  O5  UNL     1       4.037  18.437  11.422  1.00  0.00    -0.266 OA
ATOM     13  H4  UNL     1       1.701  18.027  13.566  1.00  0.00     0.163 HD
BRANCH  11  14
HETATM   14  C2  UNL     1       1.777  18.191  10.928  1.00  0.00     0.071 C 
HETATM   15  C1  UNL     1       0.559  18.994  11.157  1.00  0.00     0.074 C 
HETATM   16  N1  UNL     1       1.854  17.425   9.905  1.00  0.00    -0.357 N 
ATOM     17  H1  UNL     1       2.715  16.891   9.790  1.00  0.00     0.162 HD
BRANCH  16  18
HETATM   18  C3  UNL     1       0.846  17.247   8.909  1.00  0.00     0.288 C 
BRANCH  18  19
HETATM   19  O1  UNL     1       0.444  15.911   8.885  1.00  0.00    -0.369 OA
ATOM     20  H1  UNL     1       0.040  15.715   8.047  1.00  0.00     0.212 HD
ENDBRANCH  18  19
BRANCH  18  21
HETATM   21  C4  UNL     1       1.325  17.716   7.598  1.00  0.00     0.148 C 
HETATM   22  N2  UNL     1       0.968  17.209   6.475  1.00  0.00    -0.253 N 
ATOM     23  H2  UNL     1       1.373  17.626   5.637  1.00  0.00     0.195 HD
BRANCH  22  24
HETATM   24  O2  UNL     1       0.112  16.180   6.283  1.00  0.00    -0.288 OA
ATOM     25  H2  UNL     1      -0.451  16.037   5.530  1.00  0.00     0.244 HD
ENDBRANCH  22  24
BRANCH  21  26
HETATM   26  N3  UNL     1       2.256  18.820   7.617  1.00  0.00    -0.347 N 
ATOM     27  H3  UNL     1       1.923  19.747   7.883  1.00  0.00     0.163 HD
BRANCH  26  28
HETATM   28  C5  UNL     1       3.642  18.644   7.270  1.00  0.00     0.242 C 
BRANCH  28  29
HETATM   29  O3  UNL     1       4.385  18.873   8.443  1.00  0.00    -0.375 OA
ATOM     30  H3  UNL     1       4.020  18.306   9.112  1.00  0.00     0.212 HD
ENDBRANCH  28  29
BRANCH  28  31
HETATM   31  C6  UNL     1       4.130  19.609   6.220  1.00  0.00     0.217 C 
BRANCH  31  32
HETATM   32  O4  UNL     1       4.469  18.936   5.055  1.00  0.00    -0.397 OA
ATOM     33  H4  UNL     1       4.268  19.463   4.291  1.00  0.00     0.209 HD
ENDBRANCH  31  32
ENDBRANCH  28  31
ENDBRANCH  26  28
ENDBRANCH  21  26
ENDBRANCH  18  21
ENDBRANCH  16  18
ENDBRANCH  11  14
ENDBRANCH   1  10
BRANCH   9  34
HETATM   34  O9  UNL     1       1.964  19.350  15.467  1.00  0.00    -0.392 OA
ATOM     35  H9  UNL     1       1.605  19.151  16.324  1.00  0.00     0.210 HD
ENDBRANCH   9  34
BRANCH   5  36
HETATM   36  N5  UNL     1       2.738  17.117  17.940  1.00  0.00    -0.235 N 
HETATM   37  N6  UNL     1       1.569  16.887  17.340  1.00  0.00    -0.289 N 
HETATM   38  C12 UNL     1       0.595  16.659  18.185  1.00  0.00     0.199 A 
ATOM     39  H6  UNL     1       1.446  16.889  16.327  1.00  0.00     0.188 HD
HETATM   40  N7  UNL     1       1.162  16.744  19.386  1.00  0.00    -0.333 N 
HETATM   41  C13 UNL     1       2.482  17.026  19.237  1.00  0.00     0.179 A 
ATOM     42  H7  UNL     1       0.682  16.616  20.277  1.00  0.00     0.168 HD
HETATM   43  C14 UNL     1       3.343  17.162  20.378  1.00  0.00     0.201 C 
BRANCH  43  44
HETATM   44  O8  UNL     1       4.300  18.085  20.487  1.00  0.00    -0.342 OA
ATOM     45  H8  UNL     1       4.154  19.018  20.384  1.00  0.00     0.219 HD
ENDBRANCH  43  44
BRANCH  43  46
HETATM   46  N8  UNL     1       3.687  15.817  20.878  1.00  0.00    -0.283 N 
ATOM     47  H8  UNL     1       4.199  15.118  20.338  1.00  0.00     0.188 HD
BRANCH  46  48
HETATM   48  N9  UNL     1       3.229  15.618  22.176  1.00  0.00    -0.343 N 
ATOM     49  H92 UNL     1       2.424  15.034  22.403  1.00  0.00     0.176 HD
ATOM     50  H91 UNL     1       3.796  16.125  22.857  1.00  0.00     0.176 HD
ENDBRANCH  46  48
ENDBRANCH  43  46
ENDBRANCH   5  36
TORSDOF 16
ENDMDL
