MODEL 1
REMARK VINA RESULT: -8.857033274      0.000      0.000
REMARK  20 active torsions:
REMARK  status: ('A' for Active; 'I' for Inactive)
REMARK    1  A    between atoms: N2_4  and  C1_6 
REMARK    2  A    between atoms: C1_6  and  O2_11 
REMARK    3  A    between atoms: N3_7  and  O1_9 
REMARK    4  A    between atoms: O2_11  and  N4_12 
REMARK    5  A    between atoms: C2_14  and  N5_15 
REMARK    6  A    between atoms: C2_14  and  O6_29 
REMARK    7  A    between atoms: N5_15  and  N6_17 
REMARK       I    between atoms: N6_17  and  C3_19 
REMARK    8  A    between atoms: C3_19  and  C4_21 
REMARK    9  A    between atoms: C4_21  and  N7_22 
REMARK   10  A    between atoms: C5_24  and  C6_25 
REMARK   11  A    between atoms: C6_25  and  C7_26 
REMARK   12  A    between atoms: O6_29  and  C8_30 
REMARK   13  A    between atoms: C8_30  and  C9_31 
REMARK   14  A    between atoms: C10_32  and  C11_33 
REMARK   15  A    between atoms: C11_33  and  N8_34 
REMARK   16  A    between atoms: N8_34  and  C12_35 
REMARK   17  A    between atoms: N8_34  and  N9_39 
REMARK   18  A    between atoms: C12_35  and  C13_36 
REMARK   19  A    between atoms: C13_36  and  O7_37 
REMARK   20  A    between atoms: C18_51  and  N14_52 
ROOT
HETATM    1  O6  UNL     1      -0.436   5.699   6.208  1.00  0.00    -0.316 OA
ENDROOT
BRANCH   1   2
HETATM    2  C2  UNL     1      -0.807   5.542   7.550  1.00  0.00     0.259 C 
HETATM    3  N4  UNL     1      -1.497   6.541   8.076  1.00  0.00    -0.219 N 
ATOM      4  H4  UNL     1      -1.716   7.353   7.498  1.00  0.00     0.198 HD
BRANCH   3   5
HETATM    5  O2  UNL     1      -1.918   6.515   9.360  1.00  0.00    -0.194 OA
BRANCH   5   6
HETATM    6  C1  UNL     1      -1.698   7.581  10.217  1.00  0.00     0.281 C 
HETATM    7  N3  UNL     1      -0.494   7.833  10.596  1.00  0.00    -0.230 N 
ATOM      8  H3  UNL     1      -0.313   8.614  11.226  1.00  0.00     0.198 HD
BRANCH   6   9
HETATM    9  N2  UNL     1      -2.830   8.333  10.625  1.00  0.00    -0.269 N 
HETATM   10  N1  UNL     1      -3.985   7.933  10.256  1.00  0.00    -0.342 N 
ATOM     11  H12 UNL     1      -4.074   7.093   9.683  1.00  0.00     0.176 HD
ATOM     12  H11 UNL     1      -4.798   8.473  10.550  1.00  0.00     0.176 HD
ATOM     13  H2  UNL     1      -2.724   9.171  11.198  1.00  0.00     0.190 HD
ENDBRANCH   6   9
BRANCH   7  14
HETATM   14  O1  UNL     1       0.545   7.055  10.156  1.00  0.00    -0.287 OA
ATOM     15  H1  UNL     1       0.728   6.983   9.227  1.00  0.00     0.244 HD
ENDBRANCH   7  14
ENDBRANCH   5   6
ENDBRANCH   3   5
BRANCH   2  16
HETATM   16  N5  UNL     1      -0.543   4.470   8.392  1.00  0.00    -0.261 N 
ATOM     17  H5  UNL     1      -1.185   3.678   8.372  1.00  0.00     0.190 HD
BRANCH  16  18
HETATM   18  N6  UNL     1       0.526   4.408   9.249  1.00  0.00    -0.266 N 
HETATM   19  C3  UNL     1       0.454   3.556  10.414  1.00  0.00     0.253 C 
HETATM   20  O3  UNL     1      -0.657   2.922  10.531  1.00  0.00    -0.270 OA
ATOM     21  H6  UNL     1       1.365   4.958   9.065  1.00  0.00     0.190 HD
BRANCH  19  22
HETATM   22  C4  UNL     1       1.530   3.401  11.394  1.00  0.00     0.223 C 
BRANCH  22  23
HETATM   23  N7  UNL     1       1.706   4.631  12.116  1.00  0.00    -0.393 N 
HETATM   24  C5  UNL     1       2.851   5.111  12.383  1.00  0.00     0.066 C 
ATOM     25  H7  UNL     1       0.878   5.140  12.426  1.00  0.00     0.159 HD
BRANCH  24  26
HETATM   26  C6  UNL     1       3.039   6.380  13.128  1.00  0.00     0.157 C 
BRANCH  26  27
HETATM   27  C7  UNL     1       1.751   6.756  13.748  1.00  0.00     0.177 C 
HETATM   28  O4  UNL     1       1.547   6.478  14.950  1.00  0.00    -0.648 OA
HETATM   29  O5  UNL     1       0.793   7.401  13.016  1.00  0.00    -0.648 OA
ENDBRANCH  26  27
ENDBRANCH  24  26
ENDBRANCH  22  23
ENDBRANCH  19  22
ENDBRANCH  16  18
ENDBRANCH   2  16
ENDBRANCH   1   2
BRANCH   1  30
HETATM   30  C8  UNL     1       0.723   5.077   5.759  1.00  0.00     0.206 C 
BRANCH  30  31
HETATM   31  C9  UNL     1       0.500   3.924   4.838  1.00  0.00    -0.003 C 
HETATM   32  C10 UNL     1       1.120   3.945   3.675  1.00  0.00    -0.008 C 
BRANCH  32  33
HETATM   33  C11 UNL     1       1.030   2.901   2.623  1.00  0.00     0.170 C 
BRANCH  33  34
HETATM   34  N8  UNL     1       1.410   3.485   1.360  1.00  0.00    -0.313 N 
BRANCH  34  35
HETATM   35  C12 UNL     1       0.345   3.852   0.442  1.00  0.00     0.169 C 
BRANCH  35  36
HETATM   36  C13 UNL     1       0.429   3.113  -0.881  1.00  0.00     0.185 C 
BRANCH  36  37
HETATM   37  O7  UNL     1       0.793   4.069  -1.828  1.00  0.00    -0.399 OA
ATOM     38  H7  UNL     1       1.684   4.320  -1.615  1.00  0.00     0.209 HD
ENDBRANCH  36  37
ENDBRANCH  35  36
ENDBRANCH  34  35
BRANCH  34  39
HETATM   39  N9  UNL     1       2.732   3.732   0.978  1.00  0.00    -0.235 N 
HETATM   40  C14 UNL     1       3.747   2.875   0.796  1.00  0.00     0.209 A 
HETATM   41  N10 UNL     1       4.867   3.534   0.401  1.00  0.00    -0.345 N 
HETATM   42  C15 UNL     1       4.587   4.845   0.321  1.00  0.00     0.126 A 
ATOM     43  H10 UNL     1       5.771   3.106   0.198  1.00  0.00     0.167 HD
HETATM   44  C16 UNL     1       3.265   4.959   0.681  1.00  0.00     0.159 A 
HETATM   45  C19 UNL     1       5.356   5.943  -0.033  1.00  0.00     0.174 A 
HETATM   46  N11 UNL     1       2.721   6.181   0.683  1.00  0.00    -0.334 N 
HETATM   47  C17 UNL     1       3.475   7.267   0.336  1.00  0.00     0.211 A 
ATOM     48  H11 UNL     1       1.743   6.303   0.945  1.00  0.00     0.168 HD
HETATM   49  N12 UNL     1       4.768   7.154  -0.017  1.00  0.00    -0.218 N 
HETATM   50  N13 UNL     1       5.662   8.072  -0.387  1.00  0.00    -0.123 N 
HETATM   51  C18 UNL     1       6.836   7.464  -0.646  1.00  0.00     0.692 A 
ATOM     52  H13 UNL     1       5.485   9.074  -0.462  1.00  0.00     0.206 HD
HETATM   53  N15 UNL     1       6.623   6.150  -0.420  1.00  0.00    -0.171 N 
ATOM     54  H15 UNL     1       7.327   5.418  -0.528  1.00  0.00     0.186 HD
BRANCH  51  55
HETATM   55  N14 UNL     1       7.908   8.071  -1.027  1.00  0.00    -0.233 N 
ATOM     56 2H14 UNL     1       8.199   9.036  -0.873  1.00  0.00     0.174 HD
ATOM     57 1H14 UNL     1       8.657   7.641  -1.569  1.00  0.00     0.174 HD
ENDBRANCH  51  55
ENDBRANCH  34  39
ENDBRANCH  33  34
ENDBRANCH  32  33
ENDBRANCH  30  31
ENDBRANCH   1  30
TORSDOF 20
ENDMDL
MODEL 2
REMARK VINA RESULT: -8.766605864      3.372      9.297
REMARK  20 active torsions:
REMARK  status: ('A' for Active; 'I' for Inactive)
REMARK    1  A    between atoms: N2_4  and  C1_6 
REMARK    2  A    between atoms: C1_6  and  O2_11 
REMARK    3  A    between atoms: N3_7  and  O1_9 
REMARK    4  A    between atoms: O2_11  and  N4_12 
REMARK    5  A    between atoms: C2_14  and  N5_15 
REMARK    6  A    between atoms: C2_14  and  O6_29 
REMARK    7  A    between atoms: N5_15  and  N6_17 
REMARK       I    between atoms: N6_17  and  C3_19 
REMARK    8  A    between atoms: C3_19  and  C4_21 
REMARK    9  A    between atoms: C4_21  and  N7_22 
REMARK   10  A    between atoms: C5_24  and  C6_25 
REMARK   11  A    between atoms: C6_25  and  C7_26 
REMARK   12  A    between atoms: O6_29  and  C8_30 
REMARK   13  A    between atoms: C8_30  and  C9_31 
REMARK   14  A    between atoms: C10_32  and  C11_33 
REMARK   15  A    between atoms: C11_33  and  N8_34 
REMARK   16  A    between atoms: N8_34  and  C12_35 
REMARK   17  A    between atoms: N8_34  and  N9_39 
REMARK   18  A    between atoms: C12_35  and  C13_36 
REMARK   19  A    between atoms: C13_36  and  O7_37 
REMARK   20  A    between atoms: C18_51  and  N14_52 
ROOT
HETATM    1  O6  UNL     1       1.458   9.636   8.854  1.00  0.00    -0.316 OA
ENDROOT
BRANCH   1   2
HETATM    2  C2  UNL     1       0.552   8.590   8.637  1.00  0.00     0.259 C 
HETATM    3  N4  UNL     1      -0.263   8.318   9.643  1.00  0.00    -0.219 N 
ATOM      4  H4  UNL     1      -0.194   8.865  10.501  1.00  0.00     0.198 HD
BRANCH   3   5
HETATM    5  O2  UNL     1      -1.186   7.334   9.564  1.00  0.00    -0.194 OA
BRANCH   5   6
HETATM    6  C1  UNL     1      -2.535   7.614   9.419  1.00  0.00     0.281 C 
HETATM    7  N3  UNL     1      -3.131   7.243   8.341  1.00  0.00    -0.230 N 
ATOM      8  H3  UNL     1      -4.125   7.440   8.216  1.00  0.00     0.198 HD
BRANCH   6   9
HETATM    9  N2  UNL     1      -3.177   8.300  10.482  1.00  0.00    -0.269 N 
HETATM   10  N1  UNL     1      -4.450   8.391  10.459  1.00  0.00    -0.342 N 
ATOM     11  H12 UNL     1      -4.977   7.977   9.689  1.00  0.00     0.176 HD
ATOM     12  H11 UNL     1      -4.912   8.884  11.224  1.00  0.00     0.176 HD
ATOM     13  H2  UNL     1      -2.636   8.710  11.244  1.00  0.00     0.190 HD
ENDBRANCH   6   9
BRANCH   7  14
HETATM   14  O1  UNL     1      -2.437   6.585   7.359  1.00  0.00    -0.287 OA
ATOM     15  H1  UNL     1      -2.536   6.840   6.450  1.00  0.00     0.244 HD
ENDBRANCH   7  14
ENDBRANCH   5   6
ENDBRANCH   3   5
BRANCH   2  16
HETATM   16  N5  UNL     1       0.403   7.806   7.500  1.00  0.00    -0.261 N 
ATOM     17  H5  UNL     1      -0.497   7.350   7.350  1.00  0.00     0.190 HD
BRANCH  16  18
HETATM   18  N6  UNL     1       1.388   7.605   6.568  1.00  0.00    -0.266 N 
HETATM   19  C3  UNL     1       1.210   6.590   5.554  1.00  0.00     0.253 C 
HETATM   20  O3  UNL     1       0.099   5.951   5.642  1.00  0.00    -0.270 OA
ATOM     21  H6  UNL     1       2.239   8.167   6.589  1.00  0.00     0.190 HD
BRANCH  19  22
HETATM   22  C4  UNL     1       2.184   6.289   4.505  1.00  0.00     0.223 C 
BRANCH  22  23
HETATM   23  N7  UNL     1       1.669   5.257   3.648  1.00  0.00    -0.393 N 
HETATM   24  C5  UNL     1       2.234   4.923   2.561  1.00  0.00     0.066 C 
ATOM     25  H7  UNL     1       0.815   4.773   3.925  1.00  0.00     0.159 HD
BRANCH  24  26
HETATM   26  C6  UNL     1       1.707   3.858   1.674  1.00  0.00     0.157 C 
BRANCH  26  27
HETATM   27  C7  UNL     1       0.452   3.338   2.256  1.00  0.00     0.177 C 
HETATM   28  O4  UNL     1      -0.617   3.957   2.056  1.00  0.00    -0.648 OA
HETATM   29  O5  UNL     1       0.458   2.196   3.006  1.00  0.00    -0.648 OA
ENDBRANCH  26  27
ENDBRANCH  24  26
ENDBRANCH  22  23
ENDBRANCH  19  22
ENDBRANCH  16  18
ENDBRANCH   2  16
ENDBRANCH   1   2
BRANCH   1  30
HETATM   30  C8  UNL     1       2.490   9.447   9.765  1.00  0.00     0.206 C 
BRANCH  30  31
HETATM   31  C9  UNL     1       3.546   8.488   9.327  1.00  0.00    -0.003 C 
HETATM   32  C10 UNL     1       3.950   7.586  10.201  1.00  0.00    -0.008 C 
BRANCH  32  33
HETATM   33  C11 UNL     1       4.985   6.549   9.964  1.00  0.00     0.170 C 
BRANCH  33  34
HETATM   34  N8  UNL     1       4.397   5.251  10.191  1.00  0.00    -0.313 N 
BRANCH  34  35
HETATM   35  C12 UNL     1       5.163   4.086   9.782  1.00  0.00     0.169 C 
BRANCH  35  36
HETATM   36  C13 UNL     1       5.718   4.212   8.375  1.00  0.00     0.185 C 
BRANCH  36  37
HETATM   37  O7  UNL     1       4.632   4.037   7.519  1.00  0.00    -0.399 OA
ATOM     38  H7  UNL     1       4.950   4.245   6.649  1.00  0.00     0.209 HD
ENDBRANCH  36  37
ENDBRANCH  35  36
ENDBRANCH  34  35
BRANCH  34  39
HETATM   39  N9  UNL     1       3.150   5.052  10.791  1.00  0.00    -0.235 N 
HETATM   40  C14 UNL     1       2.811   5.062  12.089  1.00  0.00     0.209 A 
HETATM   41  N10 UNL     1       1.478   4.846  12.239  1.00  0.00    -0.345 N 
HETATM   42  C15 UNL     1       0.931   4.691  11.022  1.00  0.00     0.126 A 
ATOM     43  H10 UNL     1       0.977   4.807  13.126  1.00  0.00     0.167 HD
HETATM   44  C16 UNL     1       1.971   4.819  10.134  1.00  0.00     0.159 A 
HETATM   45  C19 UNL     1      -0.372   4.455  10.609  1.00  0.00     0.174 A 
HETATM   46  N11 UNL     1       1.696   4.708   8.829  1.00  0.00    -0.334 N 
HETATM   47  C17 UNL     1       0.414   4.475   8.417  1.00  0.00     0.211 A 
ATOM     48  H11 UNL     1       2.444   4.797   8.141  1.00  0.00     0.168 HD
HETATM   49  N12 UNL     1      -0.604   4.351   9.288  1.00  0.00    -0.218 N 
HETATM   50  N13 UNL     1      -1.904   4.130   9.094  1.00  0.00    -0.123 N 
HETATM   51  C18 UNL     1      -2.527   4.088  10.288  1.00  0.00     0.692 A 
ATOM     52  H13 UNL     1      -2.356   4.011   8.187  1.00  0.00     0.206 HD
HETATM   53  N15 UNL     1      -1.560   4.292  11.210  1.00  0.00    -0.171 N 
ATOM     54  H15 UNL     1      -1.712   4.316  12.218  1.00  0.00     0.186 HD
BRANCH  51  55
HETATM   55  N14 UNL     1      -3.790   3.890  10.451  1.00  0.00    -0.233 N 
ATOM     56 2H14 UNL     1      -4.358   3.079  10.208  1.00  0.00     0.174 HD
ATOM     57 1H14 UNL     1      -4.434   4.560  10.871  1.00  0.00     0.174 HD
ENDBRANCH  51  55
ENDBRANCH  34  39
ENDBRANCH  33  34
ENDBRANCH  32  33
ENDBRANCH  30  31
ENDBRANCH   1  30
TORSDOF 20
ENDMDL
MODEL 3
REMARK VINA RESULT: -8.696583318      1.851      2.293
REMARK  20 active torsions:
REMARK  status: ('A' for Active; 'I' for Inactive)
REMARK    1  A    between atoms: N2_4  and  C1_6 
REMARK    2  A    between atoms: C1_6  and  O2_11 
REMARK    3  A    between atoms: N3_7  and  O1_9 
REMARK    4  A    between atoms: O2_11  and  N4_12 
REMARK    5  A    between atoms: C2_14  and  N5_15 
REMARK    6  A    between atoms: C2_14  and  O6_29 
REMARK    7  A    between atoms: N5_15  and  N6_17 
REMARK       I    between atoms: N6_17  and  C3_19 
REMARK    8  A    between atoms: C3_19  and  C4_21 
REMARK    9  A    between atoms: C4_21  and  N7_22 
REMARK   10  A    between atoms: C5_24  and  C6_25 
REMARK   11  A    between atoms: C6_25  and  C7_26 
REMARK   12  A    between atoms: O6_29  and  C8_30 
REMARK   13  A    between atoms: C8_30  and  C9_31 
REMARK   14  A    between atoms: C10_32  and  C11_33 
REMARK   15  A    between atoms: C11_33  and  N8_34 
REMARK   16  A    between atoms: N8_34  and  C12_35 
REMARK   17  A    between atoms: N8_34  and  N9_39 
REMARK   18  A    between atoms: C12_35  and  C13_36 
REMARK   19  A    between atoms: C13_36  and  O7_37 
REMARK   20  A    between atoms: C18_51  and  N14_52 
ROOT
HETATM    1  O6  UNL     1       1.056   4.340   6.856  1.00  0.00    -0.316 OA
ENDROOT
BRANCH   1   2
HETATM    2  C2  UNL     1       0.572   4.678   8.127  1.00  0.00     0.259 C 
HETATM    3  N4  UNL     1      -0.733   4.542   8.300  1.00  0.00    -0.219 N 
ATOM      4  H4  UNL     1      -1.305   4.210   7.523  1.00  0.00     0.198 HD
BRANCH   3   5
HETATM    5  O2  UNL     1      -1.328   4.831   9.478  1.00  0.00    -0.194 OA
BRANCH   5   6
HETATM    6  C1  UNL     1      -2.182   3.935  10.099  1.00  0.00     0.281 C 
HETATM    7  N3  UNL     1      -1.694   3.106  10.954  1.00  0.00    -0.230 N 
ATOM      8  H3  UNL     1      -2.308   2.439  11.422  1.00  0.00     0.198 HD
BRANCH   6   9
HETATM    9  N2  UNL     1      -3.556   3.992   9.747  1.00  0.00    -0.269 N 
HETATM   10  N1  UNL     1      -4.419   4.005  10.688  1.00  0.00    -0.342 N 
ATOM     11  H12 UNL     1      -4.113   3.974  11.661  1.00  0.00     0.176 HD
ATOM     12  H11 UNL     1      -5.406   4.047  10.435  1.00  0.00     0.176 HD
ATOM     13  H2  UNL     1      -3.846   4.022   8.770  1.00  0.00     0.190 HD
ENDBRANCH   6   9
BRANCH   7  14
HETATM   14  O1  UNL     1      -0.354   3.115  11.237  1.00  0.00    -0.287 OA
ATOM     15  H1  UNL     1       0.047   2.377  11.680  1.00  0.00     0.244 HD
ENDBRANCH   7  14
ENDBRANCH   5   6
ENDBRANCH   3   5
BRANCH   2  16
HETATM   16  N5  UNL     1       1.290   5.135   9.225  1.00  0.00    -0.261 N 
ATOM     17  H5  UNL     1       1.253   6.132   9.437  1.00  0.00     0.190 HD
BRANCH  16  18
HETATM   18  N6  UNL     1       2.044   4.332  10.042  1.00  0.00    -0.266 N 
HETATM   19  C3  UNL     1       3.485   4.359   9.930  1.00  0.00     0.253 C 
HETATM   20  O3  UNL     1       3.926   5.165   9.032  1.00  0.00    -0.270 OA
ATOM     21  H6  UNL     1       1.592   3.722  10.723  1.00  0.00     0.190 HD
BRANCH  19  22
HETATM   22  C4  UNL     1       4.393   3.556  10.749  1.00  0.00     0.223 C 
BRANCH  22  23
HETATM   23  N7  UNL     1       4.153   3.823  12.141  1.00  0.00    -0.393 N 
HETATM   24  C5  UNL     1       3.728   2.937  12.945  1.00  0.00     0.066 C 
ATOM     25  H7  UNL     1       4.331   4.763  12.496  1.00  0.00     0.159 HD
BRANCH  24  26
HETATM   26  C6  UNL     1       3.478   3.208  14.382  1.00  0.00     0.157 C 
BRANCH  26  27
HETATM   27  C7  UNL     1       3.650   4.656  14.625  1.00  0.00     0.177 C 
HETATM   28  O4  UNL     1       4.491   5.038  15.467  1.00  0.00    -0.648 OA
HETATM   29  O5  UNL     1       2.898   5.566  13.937  1.00  0.00    -0.648 OA
ENDBRANCH  26  27
ENDBRANCH  24  26
ENDBRANCH  22  23
ENDBRANCH  19  22
ENDBRANCH  16  18
ENDBRANCH   2  16
ENDBRANCH   1   2
BRANCH   1  30
HETATM   30  C8  UNL     1       0.158   4.264   5.799  1.00  0.00     0.206 C 
BRANCH  30  31
HETATM   31  C9  UNL     1       0.432   3.171   4.821  1.00  0.00    -0.003 C 
HETATM   32  C10 UNL     1       0.744   3.521   3.588  1.00  0.00    -0.008 C 
BRANCH  32  33
HETATM   33  C11 UNL     1       1.049   2.592   2.471  1.00  0.00     0.170 C 
BRANCH  33  34
HETATM   34  N8  UNL     1       1.423   3.368   1.314  1.00  0.00    -0.313 N 
BRANCH  34  35
HETATM   35  C12 UNL     1       0.353   3.892   0.483  1.00  0.00     0.169 C 
BRANCH  35  36
HETATM   36  C13 UNL     1       0.254   3.189  -0.859  1.00  0.00     0.185 C 
BRANCH  36  37
HETATM   37  O7  UNL     1       0.742   4.094  -1.801  1.00  0.00    -0.399 OA
ATOM     38  H7  UNL     1       1.233   4.741  -1.309  1.00  0.00     0.209 HD
ENDBRANCH  36  37
ENDBRANCH  35  36
ENDBRANCH  34  35
BRANCH  34  39
HETATM   39  N9  UNL     1       2.745   3.657   0.960  1.00  0.00    -0.235 N 
HETATM   40  C14 UNL     1       3.794   2.834   0.818  1.00  0.00     0.209 A 
HETATM   41  N10 UNL     1       4.899   3.527   0.438  1.00  0.00    -0.345 N 
HETATM   42  C15 UNL     1       4.573   4.825   0.327  1.00  0.00     0.126 A 
ATOM     43  H10 UNL     1       5.823   3.128   0.265  1.00  0.00     0.167 HD
HETATM   44  C16 UNL     1       3.240   4.896   0.653  1.00  0.00     0.159 A 
HETATM   45  C19 UNL     1       5.311   5.944  -0.029  1.00  0.00     0.174 A 
HETATM   46  N11 UNL     1       2.652   6.098   0.619  1.00  0.00    -0.334 N 
HETATM   47  C17 UNL     1       3.375   7.204   0.269  1.00  0.00     0.211 A 
ATOM     48  H11 UNL     1       1.665   6.189   0.855  1.00  0.00     0.168 HD
HETATM   49  N12 UNL     1       4.680   7.132  -0.050  1.00  0.00    -0.218 N 
HETATM   50  N13 UNL     1       5.548   8.076  -0.415  1.00  0.00    -0.123 N 
HETATM   51  C18 UNL     1       6.750   7.507  -0.635  1.00  0.00     0.692 A 
ATOM     52  H13 UNL     1       5.337   9.069  -0.513  1.00  0.00     0.206 HD
HETATM   53  N15 UNL     1       6.579   6.190  -0.389  1.00  0.00    -0.171 N 
ATOM     54  H15 UNL     1       7.311   5.483  -0.466  1.00  0.00     0.186 HD
BRANCH  51  55
HETATM   55  N14 UNL     1       7.809   8.146  -1.001  1.00  0.00    -0.233 N 
ATOM     56 2H14 UNL     1       8.763   8.080  -0.648  1.00  0.00     0.174 HD
ATOM     57 1H14 UNL     1       7.837   8.848  -1.740  1.00  0.00     0.174 HD
ENDBRANCH  51  55
ENDBRANCH  34  39
ENDBRANCH  33  34
ENDBRANCH  32  33
ENDBRANCH  30  31
ENDBRANCH   1  30
TORSDOF 20
ENDMDL
MODEL 4
REMARK VINA RESULT: -8.630125841      3.452     10.904
REMARK  20 active torsions:
REMARK  status: ('A' for Active; 'I' for Inactive)
REMARK    1  A    between atoms: N2_4  and  C1_6 
REMARK    2  A    between atoms: C1_6  and  O2_11 
REMARK    3  A    between atoms: N3_7  and  O1_9 
REMARK    4  A    between atoms: O2_11  and  N4_12 
REMARK    5  A    between atoms: C2_14  and  N5_15 
REMARK    6  A    between atoms: C2_14  and  O6_29 
REMARK    7  A    between atoms: N5_15  and  N6_17 
REMARK       I    between atoms: N6_17  and  C3_19 
REMARK    8  A    between atoms: C3_19  and  C4_21 
REMARK    9  A    between atoms: C4_21  and  N7_22 
REMARK   10  A    between atoms: C5_24  and  C6_25 
REMARK   11  A    between atoms: C6_25  and  C7_26 
REMARK   12  A    between atoms: O6_29  and  C8_30 
REMARK   13  A    between atoms: C8_30  and  C9_31 
REMARK   14  A    between atoms: C10_32  and  C11_33 
REMARK   15  A    between atoms: C11_33  and  N8_34 
REMARK   16  A    between atoms: N8_34  and  C12_35 
REMARK   17  A    between atoms: N8_34  and  N9_39 
REMARK   18  A    between atoms: C12_35  and  C13_36 
REMARK   19  A    between atoms: C13_36  and  O7_37 
REMARK   20  A    between atoms: C18_51  and  N14_52 
ROOT
HETATM    1  O6  UNL     1       0.099   2.394   2.720  1.00  0.00    -0.316 OA
ENDROOT
BRANCH   1   2
HETATM    2  C2  UNL     1       0.809   2.907   1.626  1.00  0.00     0.259 C 
HETATM    3  N4  UNL     1       2.082   2.554   1.549  1.00  0.00    -0.219 N 
ATOM      4  H4  UNL     1       2.473   1.945   2.269  1.00  0.00     0.198 HD
BRANCH   3   5
HETATM    5  O2  UNL     1       2.878   2.978   0.544  1.00  0.00    -0.194 OA
BRANCH   5   6
HETATM    6  C1  UNL     1       4.141   3.493   0.786  1.00  0.00     0.281 C 
HETATM    7  N3  UNL     1       4.245   4.593   1.445  1.00  0.00    -0.230 N 
ATOM      8  H3  UNL     1       5.167   4.987   1.634  1.00  0.00     0.198 HD
BRANCH   6   9
HETATM    9  N2  UNL     1       5.250   2.763   0.284  1.00  0.00    -0.269 N 
HETATM   10  N1  UNL     1       5.523   1.637   0.821  1.00  0.00    -0.342 N 
ATOM     11  H12 UNL     1       4.951   1.287   1.590  1.00  0.00     0.176 HD
ATOM     12  H11 UNL     1       6.320   1.112   0.460  1.00  0.00     0.176 HD
ATOM     13  H2  UNL     1       5.814   3.128  -0.484  1.00  0.00     0.190 HD
ENDBRANCH   6   9
BRANCH   7  14
HETATM   14  O1  UNL     1       3.122   5.237   1.895  1.00  0.00    -0.287 OA
ATOM     15  H1  UNL     1       3.199   5.977   2.485  1.00  0.00     0.244 HD
ENDBRANCH   7  14
ENDBRANCH   5   6
ENDBRANCH   3   5
BRANCH   2  16
HETATM   16  N5  UNL     1       0.343   3.738   0.615  1.00  0.00    -0.261 N 
ATOM     17  H5  UNL     1      -0.327   3.351  -0.049  1.00  0.00     0.190 HD
BRANCH  16  18
HETATM   18  N6  UNL     1       0.726   5.044   0.453  1.00  0.00    -0.266 N 
HETATM   19  C3  UNL     1       1.093   5.519  -0.863  1.00  0.00     0.253 C 
HETATM   20  O3  UNL     1       1.023   4.624  -1.781  1.00  0.00    -0.270 OA
ATOM     21  H6  UNL     1       0.751   5.676   1.253  1.00  0.00     0.190 HD
BRANCH  19  22
HETATM   22  C4  UNL     1       1.509   6.890  -1.161  1.00  0.00     0.223 C 
BRANCH  22  23
HETATM   23  N7  UNL     1       2.901   7.052  -0.840  1.00  0.00    -0.393 N 
HETATM   24  C5  UNL     1       3.559   8.092  -1.153  1.00  0.00     0.066 C 
ATOM     25  H7  UNL     1       3.379   6.301  -0.341  1.00  0.00     0.159 HD
BRANCH  24  26
HETATM   26  C6  UNL     1       4.995   8.265  -0.825  1.00  0.00     0.157 C 
BRANCH  26  27
HETATM   27  C7  UNL     1       5.397   7.190   0.107  1.00  0.00     0.177 C 
HETATM   28  O4  UNL     1       5.239   7.357   1.336  1.00  0.00    -0.648 OA
HETATM   29  O5  UNL     1       5.936   6.028  -0.369  1.00  0.00    -0.648 OA
ENDBRANCH  26  27
ENDBRANCH  24  26
ENDBRANCH  22  23
ENDBRANCH  19  22
ENDBRANCH  16  18
ENDBRANCH   2  16
ENDBRANCH   1   2
BRANCH   1  30
HETATM   30  C8  UNL     1      -0.216   3.247   3.770  1.00  0.00     0.206 C 
BRANCH  30  31
HETATM   31  C9  UNL     1       0.961   3.802   4.501  1.00  0.00    -0.003 C 
HETATM   32  C10 UNL     1       1.079   5.115   4.559  1.00  0.00    -0.008 C 
BRANCH  32  33
HETATM   33  C11 UNL     1       2.170   5.862   5.233  1.00  0.00     0.170 C 
BRANCH  33  34
HETATM   34  N8  UNL     1       1.669   6.386   6.480  1.00  0.00    -0.313 N 
BRANCH  34  35
HETATM   35  C12 UNL     1       1.272   7.783   6.510  1.00  0.00     0.169 C 
BRANCH  35  36
HETATM   36  C13 UNL     1       2.411   8.725   6.167  1.00  0.00     0.185 C 
BRANCH  36  37
HETATM   37  O7  UNL     1       3.397   8.497   7.126  1.00  0.00    -0.399 OA
ATOM     38  H7  UNL     1       4.226   8.561   6.667  1.00  0.00     0.209 HD
ENDBRANCH  36  37
ENDBRANCH  35  36
ENDBRANCH  34  35
BRANCH  34  39
HETATM   39  N9  UNL     1       1.529   5.628   7.646  1.00  0.00    -0.235 N 
HETATM   40  C14 UNL     1       2.460   5.224   8.524  1.00  0.00     0.209 A 
HETATM   41  N10 UNL     1       1.890   4.522   9.538  1.00  0.00    -0.345 N 
HETATM   42  C15 UNL     1       0.565   4.462   9.326  1.00  0.00     0.126 A 
ATOM     43  H10 UNL     1       2.385   4.109  10.329  1.00  0.00     0.167 HD
HETATM   44  C16 UNL     1       0.351   5.148   8.155  1.00  0.00     0.159 A 
HETATM   45  C19 UNL     1      -0.469   3.880  10.044  1.00  0.00     0.174 A 
HETATM   46  N11 UNL     1      -0.907   5.244   7.708  1.00  0.00    -0.334 N 
HETATM   47  C17 UNL     1      -1.929   4.672   8.412  1.00  0.00     0.211 A 
ATOM     48  H11 UNL     1      -1.103   5.745   6.842  1.00  0.00     0.168 HD
HETATM   49  N12 UNL     1      -1.718   4.002   9.559  1.00  0.00    -0.218 N 
HETATM   50  N13 UNL     1      -2.564   3.384  10.385  1.00  0.00    -0.123 N 
HETATM   51  C18 UNL     1      -1.870   2.857  11.412  1.00  0.00     0.692 A 
ATOM     52  H13 UNL     1      -3.574   3.322  10.258  1.00  0.00     0.206 HD
HETATM   53  N15 UNL     1      -0.577   3.175  11.180  1.00  0.00    -0.171 N 
ATOM     54  H15 UNL     1       0.204   2.916  11.783  1.00  0.00     0.186 HD
BRANCH  51  55
HETATM   55  N14 UNL     1      -2.392   2.192  12.386  1.00  0.00    -0.233 N 
ATOM     56 2H14 UNL     1      -2.382   1.189  12.568  1.00  0.00     0.174 HD
ATOM     57 1H14 UNL     1      -2.919   2.606  13.155  1.00  0.00     0.174 HD
ENDBRANCH  51  55
ENDBRANCH  34  39
ENDBRANCH  33  34
ENDBRANCH  32  33
ENDBRANCH  30  31
ENDBRANCH   1  30
TORSDOF 20
ENDMDL
MODEL 5
REMARK VINA RESULT: -8.417893491      2.872     10.631
REMARK  20 active torsions:
REMARK  status: ('A' for Active; 'I' for Inactive)
REMARK    1  A    between atoms: N2_4  and  C1_6 
REMARK    2  A    between atoms: C1_6  and  O2_11 
REMARK    3  A    between atoms: N3_7  and  O1_9 
REMARK    4  A    between atoms: O2_11  and  N4_12 
REMARK    5  A    between atoms: C2_14  and  N5_15 
REMARK    6  A    between atoms: C2_14  and  O6_29 
REMARK    7  A    between atoms: N5_15  and  N6_17 
REMARK       I    between atoms: N6_17  and  C3_19 
REMARK    8  A    between atoms: C3_19  and  C4_21 
REMARK    9  A    between atoms: C4_21  and  N7_22 
REMARK   10  A    between atoms: C5_24  and  C6_25 
REMARK   11  A    between atoms: C6_25  and  C7_26 
REMARK   12  A    between atoms: O6_29  and  C8_30 
REMARK   13  A    between atoms: C8_30  and  C9_31 
REMARK   14  A    between atoms: C10_32  and  C11_33 
REMARK   15  A    between atoms: C11_33  and  N8_34 
REMARK   16  A    between atoms: N8_34  and  C12_35 
REMARK   17  A    between atoms: N8_34  and  N9_39 
REMARK   18  A    between atoms: C12_35  and  C13_36 
REMARK   19  A    between atoms: C13_36  and  O7_37 
REMARK   20  A    between atoms: C18_51  and  N14_52 
ROOT
HETATM    1  O6  UNL     1       2.561   4.716   7.954  1.00  0.00    -0.316 OA
ENDROOT
BRANCH   1   2
HETATM    2  C2  UNL     1       2.010   5.068   6.714  1.00  0.00     0.259 C 
HETATM    3  N4  UNL     1       2.340   6.265   6.257  1.00  0.00    -0.219 N 
ATOM      4  H4  UNL     1       2.958   6.856   6.813  1.00  0.00     0.198 HD
BRANCH   3   5
HETATM    5  O2  UNL     1       1.879   6.725   5.073  1.00  0.00    -0.194 OA
BRANCH   5   6
HETATM    6  C1  UNL     1       2.701   7.403   4.189  1.00  0.00     0.281 C 
HETATM    7  N3  UNL     1       3.503   6.725   3.445  1.00  0.00    -0.230 N 
ATOM      8  H3  UNL     1       4.115   7.207   2.787  1.00  0.00     0.198 HD
BRANCH   6   9
HETATM    9  N2  UNL     1       2.601   8.819   4.161  1.00  0.00    -0.269 N 
HETATM   10  N1  UNL     1       3.458   9.496   4.823  1.00  0.00    -0.342 N 
ATOM     11  H12 UNL     1       4.187   9.017   5.353  1.00  0.00     0.176 HD
ATOM     12  H11 UNL     1       3.387  10.513   4.802  1.00  0.00     0.176 HD
ATOM     13  H2  UNL     1       1.866   9.282   3.626  1.00  0.00     0.190 HD
ENDBRANCH   6   9
BRANCH   7  14
HETATM   14  O1  UNL     1       3.538   5.358   3.535  1.00  0.00    -0.287 OA
ATOM     15  H1  UNL     1       4.171   4.932   4.100  1.00  0.00     0.244 HD
ENDBRANCH   7  14
ENDBRANCH   5   6
ENDBRANCH   3   5
BRANCH   2  16
HETATM   16  N5  UNL     1       1.165   4.316   5.908  1.00  0.00    -0.261 N 
ATOM     17  H5  UNL     1       0.213   4.153   6.237  1.00  0.00     0.190 HD
BRANCH  16  18
HETATM   18  N6  UNL     1       1.526   3.781   4.700  1.00  0.00    -0.266 N 
HETATM   19  C3  UNL     1       0.500   3.372   3.768  1.00  0.00     0.253 C 
HETATM   20  O3  UNL     1      -0.698   3.559   4.193  1.00  0.00    -0.270 OA
ATOM     21  H6  UNL     1       2.512   3.671   4.459  1.00  0.00     0.190 HD
BRANCH  19  22
HETATM   22  C4  UNL     1       0.762   2.796   2.448  1.00  0.00     0.223 C 
BRANCH  22  23
HETATM   23  N7  UNL     1       2.147   2.976   2.109  1.00  0.00    -0.393 N 
HETATM   24  C5  UNL     1       2.584   2.845   0.925  1.00  0.00     0.066 C 
ATOM     25  H7  UNL     1       2.804   3.217   2.851  1.00  0.00     0.159 HD
BRANCH  24  26
HETATM   26  C6  UNL     1       4.013   3.029   0.569  1.00  0.00     0.157 C 
BRANCH  26  27
HETATM   27  C7  UNL     1       4.266   4.472   0.372  1.00  0.00     0.177 C 
HETATM   28  O4  UNL     1       5.398   4.848  -0.004  1.00  0.00    -0.648 OA
HETATM   29  O5  UNL     1       3.275   5.385   0.597  1.00  0.00    -0.648 OA
ENDBRANCH  26  27
ENDBRANCH  24  26
ENDBRANCH  22  23
ENDBRANCH  19  22
ENDBRANCH  16  18
ENDBRANCH   2  16
ENDBRANCH   1   2
BRANCH   1  30
HETATM   30  C8  UNL     1       3.943   4.618   8.066  1.00  0.00     0.206 C 
BRANCH  30  31
HETATM   31  C9  UNL     1       4.495   5.024   9.392  1.00  0.00    -0.003 C 
HETATM   32  C10 UNL     1       4.055   4.383  10.457  1.00  0.00    -0.008 C 
BRANCH  32  33
HETATM   33  C11 UNL     1       4.475   4.634  11.859  1.00  0.00     0.170 C 
BRANCH  33  34
HETATM   34  N8  UNL     1       3.339   5.126  12.600  1.00  0.00    -0.313 N 
BRANCH  34  35
HETATM   35  C12 UNL     1       3.119   4.584  13.930  1.00  0.00     0.169 C 
BRANCH  35  36
HETATM   36  C13 UNL     1       3.043   3.069  13.942  1.00  0.00     0.185 C 
BRANCH  36  37
HETATM   37  O7  UNL     1       1.940   2.736  13.156  1.00  0.00    -0.399 OA
ATOM     38  H7  UNL     1       2.292   2.466  12.316  1.00  0.00     0.209 HD
ENDBRANCH  36  37
ENDBRANCH  35  36
ENDBRANCH  34  35
BRANCH  34  39
HETATM   39  N9  UNL     1       2.455   6.097  12.121  1.00  0.00    -0.235 N 
HETATM   40  C14 UNL     1       2.599   7.429  12.051  1.00  0.00     0.209 A 
HETATM   41  N10 UNL     1       1.501   8.002  11.493  1.00  0.00    -0.345 N 
HETATM   42  C15 UNL     1       0.621   7.035  11.189  1.00  0.00     0.126 A 
ATOM     43  H10 UNL     1       1.367   9.001  11.331  1.00  0.00     0.167 HD
HETATM   44  C16 UNL     1       1.218   5.861  11.582  1.00  0.00     0.159 A 
HETATM   45  C19 UNL     1      -0.638   7.068  10.608  1.00  0.00     0.174 A 
HETATM   46  N11 UNL     1       0.544   4.721  11.387  1.00  0.00    -0.334 N 
HETATM   47  C17 UNL     1      -0.697   4.749  10.814  1.00  0.00     0.211 A 
ATOM     48  H11 UNL     1       0.956   3.831  11.666  1.00  0.00     0.168 HD
HETATM   49  N12 UNL     1      -1.279   5.899  10.430  1.00  0.00    -0.218 N 
HETATM   50  N13 UNL     1      -2.461   6.137   9.860  1.00  0.00    -0.123 N 
HETATM   51  C18 UNL     1      -2.595   7.464   9.663  1.00  0.00     0.692 A 
ATOM     52  H13 UNL     1      -3.152   5.429   9.612  1.00  0.00     0.206 HD
HETATM   53  N15 UNL     1      -1.456   8.018  10.133  1.00  0.00    -0.171 N 
ATOM     54  H15 UNL     1      -1.250   9.017  10.128  1.00  0.00     0.186 HD
BRANCH  51  55
HETATM   55  N14 UNL     1      -3.626   8.026   9.130  1.00  0.00    -0.233 N 
ATOM     56 2H14 UNL     1      -4.344   8.608   9.560  1.00  0.00     0.174 HD
ATOM     57 1H14 UNL     1      -3.878   7.961   8.144  1.00  0.00     0.174 HD
ENDBRANCH  51  55
ENDBRANCH  34  39
ENDBRANCH  33  34
ENDBRANCH  32  33
ENDBRANCH  30  31
ENDBRANCH   1  30
TORSDOF 20
ENDMDL
