MODEL 1
REMARK VINA RESULT: -9.001726642      0.000      0.000
REMARK  14 active torsions:
REMARK  status: ('A' for Active; 'I' for Inactive)
REMARK    1  A    between atoms: C2_2  and  O1_3 
REMARK    2  A    between atoms: C2_2  and  C3_5 
REMARK    3  A    between atoms: C3_5  and  O2_6 
REMARK    4  A    between atoms: O2_6  and  C4_7 
REMARK    5  A    between atoms: C7_10  and  N1_11 
REMARK    6  A    between atoms: C10_16  and  C11_17 
REMARK    7  A    between atoms: C11_17  and  N3_18 
REMARK    8  A    between atoms: C11_17  and  C20_52 
REMARK    9  A    between atoms: N3_18  and  N4_20 
REMARK   10  A    between atoms: N5_22  and  C12_24 
REMARK   11  A    between atoms: C13_27  and  N7_28 
REMARK   12  A    between atoms: N7_28  and  N8_30 
REMARK   13  A    between atoms: C18_38  and  N11_39 
REMARK       I    between atoms: N11_39  and  C19_41 
REMARK       I    between atoms: C19_41  and  N12_42 
REMARK       I    between atoms: C19_41  and  N13_46 
REMARK   14  A    between atoms: C20_52  and  N15_55 
ROOT
HETATM    1  N4  UNL     1       0.908   5.000   6.805  1.00  0.00    -0.228 N 
ATOM      2  H4  UNL     1       1.852   5.157   7.156  1.00  0.00     0.209 HD
HETATM    3  N5  UNL     1       0.727   5.092   5.565  1.00  0.00    -0.117 N 
ATOM      4  H5  UNL     1      -0.220   4.933   5.225  1.00  0.00     0.207 HD
ENDROOT
BRANCH   1   5
HETATM    5  N3  UNL     1      -0.078   4.700   7.734  1.00  0.00    -0.285 N 
ATOM      6  H3  UNL     1      -0.145   3.740   8.071  1.00  0.00     0.188 HD
BRANCH   5   7
HETATM    7  C11 UNL     1      -1.010   5.666   8.249  1.00  0.00     0.090 C 
BRANCH   7   8
HETATM    8  C10 UNL     1      -0.492   7.026   8.461  1.00  0.00     0.084 A 
HETATM    9  N1  UNL     1       0.292   7.585   9.374  1.00  0.00    -0.289 N 
HETATM   10  C8  UNL     1       0.425   8.910   9.077  1.00  0.00     0.190 A 
HETATM   11  N2  UNL     1      -0.256   9.213   7.993  1.00  0.00    -0.359 N 
HETATM   12  C9  UNL     1      -0.832   8.081   7.586  1.00  0.00     0.121 A 
ATOM     13  H2  UNL     1      -0.329  10.129   7.551  1.00  0.00     0.166 HD
BRANCH   9  14
HETATM   14  C7  UNL     1       0.910   6.949  10.492  1.00  0.00     0.128 A 
HETATM   15  C6  UNL     1       0.538   7.292  11.774  1.00  0.00     0.054 A 
HETATM   16  C5  UNL     1       1.080   6.685  12.888  1.00  0.00     0.061 A 
HETATM   17  C4  UNL     1       2.039   5.690  12.715  1.00  0.00     0.157 A 
HETATM   18  N17 UNL     1       2.371   5.389  11.449  1.00  0.00    -0.278 N 
HETATM   19  N16 UNL     1       1.837   5.983  10.424  1.00  0.00    -0.283 N 
ATOM     20  H17 UNL     1       3.070   4.665  11.285  1.00  0.00     0.189 HD
ATOM     21  H16 UNL     1       2.147   5.693   9.497  1.00  0.00     0.188 HD
BRANCH  17  22
HETATM   22  O2  UNL     1       2.615   5.048  13.801  1.00  0.00    -0.332 OA
BRANCH  22  23
HETATM   23  C3  UNL     1       3.742   4.236  13.774  1.00  0.00     0.208 C 
BRANCH  23  24
HETATM   24  C2  UNL     1       3.494   2.763  13.739  1.00  0.00     0.138 C 
HETATM   25  C1  UNL     1       3.779   2.302  12.302  1.00  0.00     0.041 C 
BRANCH  24  26
HETATM   26  O1  UNL     1       2.193   2.393  14.012  1.00  0.00    -0.394 OA
ATOM     27  H1  UNL     1       1.872   3.010  14.659  1.00  0.00     0.210 HD
ENDBRANCH  24  26
ENDBRANCH  23  24
ENDBRANCH  22  23
ENDBRANCH  17  22
ENDBRANCH   9  14
ENDBRANCH   7   8
BRANCH   7  28
HETATM   28  C20 UNL     1      -1.996   5.168   9.246  1.00  0.00     0.162 C 
HETATM   29  C21 UNL     1      -3.086   4.318   8.620  1.00  0.00     0.053 C 
HETATM   30  C22 UNL     1      -1.440   4.403  10.410  1.00  0.00     0.053 C 
BRANCH  28  31
HETATM   31  N15 UNL     1      -2.731   6.292   9.871  1.00  0.00    -0.065 N 
ATOM     32 3H15 UNL     1      -2.197   6.715  10.629  1.00  0.00     0.275 HD
ATOM     33 2H15 UNL     1      -2.785   7.099   9.250  1.00  0.00     0.275 HD
ATOM     34 1H15 UNL     1      -3.656   5.995  10.183  1.00  0.00     0.275 HD
ENDBRANCH  28  31
ENDBRANCH   7  28
ENDBRANCH   5   7
ENDBRANCH   1   5
BRANCH   3  35
HETATM   35  C12 UNL     1       1.699   5.392   4.610  1.00  0.00     0.701 A 
HETATM   36  N6  UNL     1       2.086   6.671   4.446  1.00  0.00    -0.174 N 
HETATM   37  C13 UNL     1       3.006   7.071   3.568  1.00  0.00     0.139 A 
ATOM     38  H6  UNL     1       1.647   7.380   5.033  1.00  0.00     0.186 HD
HETATM   39  C17 UNL     1       3.589   6.098   2.782  1.00  0.00     0.099 A 
HETATM   40  C18 UNL     1       3.223   4.769   2.914  1.00  0.00     0.123 A 
HETATM   41  N14 UNL     1       2.282   4.462   3.833  1.00  0.00    -0.175 N 
ATOM     42  H14 UNL     1       2.002   3.487   3.942  1.00  0.00     0.186 HD
BRANCH  37  43
HETATM   43  N7  UNL     1       3.378   8.436   3.435  1.00  0.00    -0.280 N 
ATOM     44  H7  UNL     1       4.175   8.655   2.837  1.00  0.00     0.189 HD
BRANCH  43  45
HETATM   45  N8  UNL     1       2.735   9.483   4.059  1.00  0.00    -0.262 N 
HETATM   46  C14 UNL     1       2.055  10.604   3.442  1.00  0.00     0.171 C 
HETATM   47  C15 UNL     1       2.186  11.677   4.505  1.00  0.00     0.144 C 
HETATM   48  N9  UNL     1       2.296  10.920   5.719  1.00  0.00    -0.362 N 
HETATM   49  C16 UNL     1       2.606   9.680   5.464  1.00  0.00     0.205 C 
ATOM     50  H9  UNL     1       2.151  11.301   6.654  1.00  0.00     0.162 HD
HETATM   51  N10 UNL     1       2.781   8.695   6.487  1.00  0.00    -0.062 NA
ENDBRANCH  43  45
ENDBRANCH  37  43
BRANCH  40  52
HETATM   52  N11 UNL     1       3.763   3.856   2.186  1.00  0.00    -0.327 N 
HETATM   53  C19 UNL     1       4.000   4.077   0.775  1.00  0.00     0.481 C 
HETATM   54  N12 UNL     1       4.856   2.983   0.302  1.00  0.00    -0.033 N 
HETATM   55  N13 UNL     1       2.757   3.974   0.029  1.00  0.00    -0.033 N 
ATOM     56 3H12 UNL     1       5.717   2.887   0.841  1.00  0.00     0.278 HD
ATOM     57 2H12 UNL     1       4.472   2.059   0.503  1.00  0.00     0.278 HD
ATOM     58 1H12 UNL     1       5.023   3.139  -0.692  1.00  0.00     0.278 HD
ATOM     59 3H13 UNL     1       2.285   3.086   0.199  1.00  0.00     0.278 HD
ATOM     60 2H13 UNL     1       2.041   4.600   0.396  1.00  0.00     0.278 HD
ATOM     61 1H13 UNL     1       2.924   4.130  -0.965  1.00  0.00     0.278 HD
ATOM     62  H11 UNL     1       4.027   2.966   2.607  1.00  0.00     0.164 HD
ENDBRANCH  40  52
ENDBRANCH   3  35
TORSDOF 14
ENDMDL
MODEL 2
REMARK VINA RESULT: -8.908932954      1.846      2.701
REMARK  14 active torsions:
REMARK  status: ('A' for Active; 'I' for Inactive)
REMARK    1  A    between atoms: C2_2  and  O1_3 
REMARK    2  A    between atoms: C2_2  and  C3_5 
REMARK    3  A    between atoms: C3_5  and  O2_6 
REMARK    4  A    between atoms: O2_6  and  C4_7 
REMARK    5  A    between atoms: C7_10  and  N1_11 
REMARK    6  A    between atoms: C10_16  and  C11_17 
REMARK    7  A    between atoms: C11_17  and  N3_18 
REMARK    8  A    between atoms: C11_17  and  C20_52 
REMARK    9  A    between atoms: N3_18  and  N4_20 
REMARK   10  A    between atoms: N5_22  and  C12_24 
REMARK   11  A    between atoms: C13_27  and  N7_28 
REMARK   12  A    between atoms: N7_28  and  N8_30 
REMARK   13  A    between atoms: C18_38  and  N11_39 
REMARK       I    between atoms: N11_39  and  C19_41 
REMARK       I    between atoms: C19_41  and  N12_42 
REMARK       I    between atoms: C19_41  and  N13_46 
REMARK   14  A    between atoms: C20_52  and  N15_55 
ROOT
HETATM    1  N4  UNL     1       0.673   4.757   6.677  1.00  0.00    -0.228 N 
ATOM      2  H4  UNL     1       1.511   5.335   6.619  1.00  0.00     0.209 HD
HETATM    3  N5  UNL     1       0.305   4.165   5.631  1.00  0.00    -0.117 N 
ATOM      4  H5  UNL     1      -0.533   3.589   5.700  1.00  0.00     0.207 HD
ENDROOT
BRANCH   1   5
HETATM    5  N3  UNL     1       0.029   4.684   7.903  1.00  0.00    -0.285 N 
ATOM      6  H3  UNL     1       0.252   3.901   8.517  1.00  0.00     0.188 HD
BRANCH   5   7
HETATM    7  C11 UNL     1      -0.934   5.650   8.358  1.00  0.00     0.090 C 
BRANCH   7   8
HETATM    8  C10 UNL     1      -0.435   7.015   8.578  1.00  0.00     0.084 A 
HETATM    9  N1  UNL     1       0.346   7.579   9.491  1.00  0.00    -0.289 N 
HETATM   10  C8  UNL     1       0.456   8.909   9.204  1.00  0.00     0.190 A 
HETATM   11  N2  UNL     1      -0.236   9.210   8.128  1.00  0.00    -0.359 N 
HETATM   12  C9  UNL     1      -0.798   8.073   7.715  1.00  0.00     0.121 A 
ATOM     13  H2  UNL     1      -0.326  10.129   7.695  1.00  0.00     0.166 HD
BRANCH   9  14
HETATM   14  C7  UNL     1       0.983   6.943  10.599  1.00  0.00     0.128 A 
HETATM   15  C6  UNL     1       0.599   7.253  11.886  1.00  0.00     0.054 A 
HETATM   16  C5  UNL     1       1.158   6.644  12.991  1.00  0.00     0.061 A 
HETATM   17  C4  UNL     1       2.146   5.681  12.802  1.00  0.00     0.157 A 
HETATM   18  N17 UNL     1       2.488   5.412  11.531  1.00  0.00    -0.278 N 
HETATM   19  N16 UNL     1       1.938   6.007  10.516  1.00  0.00    -0.283 N 
ATOM     20  H17 UNL     1       3.209   4.712  11.357  1.00  0.00     0.189 HD
ATOM     21  H16 UNL     1       2.257   5.741   9.584  1.00  0.00     0.188 HD
BRANCH  17  22
HETATM   22  O2  UNL     1       2.740   5.039  13.878  1.00  0.00    -0.332 OA
BRANCH  22  23
HETATM   23  C3  UNL     1       3.834   4.183  13.824  1.00  0.00     0.208 C 
BRANCH  23  24
HETATM   24  C2  UNL     1       3.528   2.723  13.765  1.00  0.00     0.138 C 
HETATM   25  C1  UNL     1       3.772   2.279  12.316  1.00  0.00     0.041 C 
BRANCH  24  26
HETATM   26  O1  UNL     1       2.217   2.398  14.052  1.00  0.00    -0.394 OA
ATOM     27  H1  UNL     1       1.961   2.950  14.781  1.00  0.00     0.210 HD
ENDBRANCH  24  26
ENDBRANCH  23  24
ENDBRANCH  22  23
ENDBRANCH  17  22
ENDBRANCH   9  14
ENDBRANCH   7   8
BRANCH   7  28
HETATM   28  C20 UNL     1      -1.966   5.157   9.310  1.00  0.00     0.162 C 
HETATM   29  C21 UNL     1      -3.046   4.335   8.633  1.00  0.00     0.053 C 
HETATM   30  C22 UNL     1      -1.468   4.368  10.485  1.00  0.00     0.053 C 
BRANCH  28  31
HETATM   31  N15 UNL     1      -2.704   6.287   9.922  1.00  0.00    -0.065 N 
ATOM     32 3H15 UNL     1      -2.465   7.175   9.482  1.00  0.00     0.275 HD
ATOM     33 2H15 UNL     1      -3.696   6.260   9.685  1.00  0.00     0.275 HD
ATOM     34 1H15 UNL     1      -2.559   6.314  10.931  1.00  0.00     0.275 HD
ENDBRANCH  28  31
ENDBRANCH   7  28
ENDBRANCH   5   7
ENDBRANCH   1   5
BRANCH   3  35
HETATM   35  C12 UNL     1       0.932   4.220   4.386  1.00  0.00     0.701 A 
HETATM   36  N6  UNL     1       2.155   4.775   4.291  1.00  0.00    -0.174 N 
HETATM   37  C13 UNL     1       2.847   4.879   3.156  1.00  0.00     0.139 A 
ATOM     38  H6  UNL     1       2.579   5.141   5.143  1.00  0.00     0.186 HD
HETATM   39  C17 UNL     1       2.257   4.380   2.013  1.00  0.00     0.099 A 
HETATM   40  C18 UNL     1       1.000   3.800   2.062  1.00  0.00     0.123 A 
HETATM   41  N14 UNL     1       0.378   3.741   3.259  1.00  0.00    -0.175 N 
ATOM     42  H14 UNL     1      -0.548   3.316   3.310  1.00  0.00     0.186 HD
BRANCH  37  43
HETATM   43  N7  UNL     1       4.136   5.475   3.111  1.00  0.00    -0.280 N 
ATOM     44  H7  UNL     1       4.822   5.177   3.805  1.00  0.00     0.189 HD
BRANCH  43  45
HETATM   45  N8  UNL     1       4.522   6.429   2.194  1.00  0.00    -0.262 N 
HETATM   46  C14 UNL     1       4.570   7.867   2.371  1.00  0.00     0.171 C 
HETATM   47  C15 UNL     1       4.377   8.366   0.952  1.00  0.00     0.144 C 
HETATM   48  N9  UNL     1       4.880   7.284   0.156  1.00  0.00    -0.362 N 
HETATM   49  C16 UNL     1       4.961   6.189   0.860  1.00  0.00     0.205 C 
ATOM     50  H9  UNL     1       5.138   7.360  -0.828  1.00  0.00     0.162 HD
HETATM   51  N10 UNL     1       5.432   4.951   0.322  1.00  0.00    -0.062 NA
ENDBRANCH  43  45
ENDBRANCH  37  43
BRANCH  40  52
HETATM   52  N11 UNL     1       0.444   3.332   1.000  1.00  0.00    -0.327 N 
HETATM   53  C19 UNL     1       0.956   3.664  -0.312  1.00  0.00     0.481 C 
HETATM   54  N12 UNL     1       0.292   2.775  -1.275  1.00  0.00    -0.033 N 
HETATM   55  N13 UNL     1       0.575   5.018  -0.680  1.00  0.00    -0.033 N 
ATOM     56 3H12 UNL     1       0.396   1.787  -1.043  1.00  0.00     0.278 HD
ATOM     57 2H12 UNL     1      -0.726   2.817  -1.220  1.00  0.00     0.278 HD
ATOM     58 1H12 UNL     1       0.653   3.009  -2.199  1.00  0.00     0.278 HD
ATOM     59 3H13 UNL     1      -0.434   5.158  -0.620  1.00  0.00     0.278 HD
ATOM     60 2H13 UNL     1       0.866   5.697   0.023  1.00  0.00     0.278 HD
ATOM     61 1H13 UNL     1       0.936   5.251  -1.604  1.00  0.00     0.278 HD
ATOM     62  H11 UNL     1      -0.368   2.721   1.084  1.00  0.00     0.164 HD
ENDBRANCH  40  52
ENDBRANCH   3  35
TORSDOF 14
ENDMDL
MODEL 3
REMARK VINA RESULT: -8.841227116      1.086      1.496
REMARK  14 active torsions:
REMARK  status: ('A' for Active; 'I' for Inactive)
REMARK    1  A    between atoms: C2_2  and  O1_3 
REMARK    2  A    between atoms: C2_2  and  C3_5 
REMARK    3  A    between atoms: C3_5  and  O2_6 
REMARK    4  A    between atoms: O2_6  and  C4_7 
REMARK    5  A    between atoms: C7_10  and  N1_11 
REMARK    6  A    between atoms: C10_16  and  C11_17 
REMARK    7  A    between atoms: C11_17  and  N3_18 
REMARK    8  A    between atoms: C11_17  and  C20_52 
REMARK    9  A    between atoms: N3_18  and  N4_20 
REMARK   10  A    between atoms: N5_22  and  C12_24 
REMARK   11  A    between atoms: C13_27  and  N7_28 
REMARK   12  A    between atoms: N7_28  and  N8_30 
REMARK   13  A    between atoms: C18_38  and  N11_39 
REMARK       I    between atoms: N11_39  and  C19_41 
REMARK       I    between atoms: C19_41  and  N12_42 
REMARK       I    between atoms: C19_41  and  N13_46 
REMARK   14  A    between atoms: C20_52  and  N15_55 
ROOT
HETATM    1  N4  UNL     1       1.171   5.112   6.778  1.00  0.00    -0.228 N 
ATOM      2  H4  UNL     1       2.145   4.973   7.046  1.00  0.00     0.209 HD
HETATM    3  N5  UNL     1       0.942   5.466   5.594  1.00  0.00    -0.117 N 
ATOM      4  H5  UNL     1      -0.035   5.601   5.335  1.00  0.00     0.207 HD
ENDROOT
BRANCH   1   5
HETATM    5  N3  UNL     1       0.203   4.896   7.748  1.00  0.00    -0.285 N 
ATOM      6  H3  UNL     1       0.190   3.992   8.220  1.00  0.00     0.188 HD
BRANCH   5   7
HETATM    7  C11 UNL     1      -0.782   5.873   8.125  1.00  0.00     0.090 C 
BRANCH   7   8
HETATM    8  C10 UNL     1      -0.283   7.227   8.410  1.00  0.00     0.084 A 
HETATM    9  N1  UNL     1       0.453   7.756   9.379  1.00  0.00    -0.289 N 
HETATM   10  C8  UNL     1       0.590   9.092   9.137  1.00  0.00     0.190 A 
HETATM   11  N2  UNL     1      -0.040   9.431   8.034  1.00  0.00    -0.359 N 
HETATM   12  C9  UNL     1      -0.589   8.312   7.559  1.00  0.00     0.121 A 
ATOM     13  H2  UNL     1      -0.098  10.362   7.623  1.00  0.00     0.166 HD
BRANCH   9  14
HETATM   14  C7  UNL     1       1.023   7.082  10.501  1.00  0.00     0.128 A 
HETATM   15  C6  UNL     1       0.546   7.331  11.770  1.00  0.00     0.054 A 
HETATM   16  C5  UNL     1       1.039   6.683  12.885  1.00  0.00     0.061 A 
HETATM   17  C4  UNL     1       2.054   5.744  12.724  1.00  0.00     0.157 A 
HETATM   18  N17 UNL     1       2.487   5.535  11.471  1.00  0.00    -0.278 N 
HETATM   19  N16 UNL     1       1.998   6.165  10.445  1.00  0.00    -0.283 N 
ATOM     20  H17 UNL     1       3.231   4.853  11.317  1.00  0.00     0.189 HD
ATOM     21  H16 UNL     1       2.385   5.944   9.528  1.00  0.00     0.188 HD
BRANCH  17  22
HETATM   22  O2  UNL     1       2.584   5.065  13.811  1.00  0.00    -0.332 OA
BRANCH  22  23
HETATM   23  C3  UNL     1       3.722   4.268  13.809  1.00  0.00     0.208 C 
BRANCH  23  24
HETATM   24  C2  UNL     1       3.495   2.793  13.747  1.00  0.00     0.138 C 
HETATM   25  C1  UNL     1       3.772   2.363  12.299  1.00  0.00     0.041 C 
BRANCH  24  26
HETATM   26  O1  UNL     1       2.202   2.398  14.026  1.00  0.00    -0.394 OA
ATOM     27  H1  UNL     1       1.737   3.182  14.291  1.00  0.00     0.210 HD
ENDBRANCH  24  26
ENDBRANCH  23  24
ENDBRANCH  22  23
ENDBRANCH  17  22
ENDBRANCH   9  14
ENDBRANCH   7   8
BRANCH   7  28
HETATM   28  C20 UNL     1      -1.907   5.387   8.969  1.00  0.00     0.162 C 
HETATM   29  C21 UNL     1      -2.934   4.596   8.181  1.00  0.00     0.053 C 
HETATM   30  C22 UNL     1      -1.534   4.571  10.172  1.00  0.00     0.053 C 
BRANCH  28  31
HETATM   31  N15 UNL     1      -2.678   6.522   9.528  1.00  0.00    -0.065 N 
ATOM     32 3H15 UNL     1      -2.270   6.861  10.399  1.00  0.00     0.275 HD
ATOM     33 2H15 UNL     1      -2.568   7.365   8.966  1.00  0.00     0.275 HD
ATOM     34 1H15 UNL     1      -3.660   6.273   9.645  1.00  0.00     0.275 HD
ENDBRANCH  28  31
ENDBRANCH   7  28
ENDBRANCH   5   7
ENDBRANCH   1   5
BRANCH   3  35
HETATM   35  C12 UNL     1       1.894   5.690   4.600  1.00  0.00     0.701 A 
HETATM   36  N6  UNL     1       2.321   6.946   4.371  1.00  0.00    -0.174 N 
HETATM   37  C13 UNL     1       3.228   7.276   3.451  1.00  0.00     0.139 A 
ATOM     38  H6  UNL     1       1.925   7.694   4.939  1.00  0.00     0.186 HD
HETATM   39  C17 UNL     1       3.753   6.250   2.692  1.00  0.00     0.099 A 
HETATM   40  C18 UNL     1       3.345   4.943   2.890  1.00  0.00     0.123 A 
HETATM   41  N14 UNL     1       2.421   4.708   3.847  1.00  0.00    -0.175 N 
ATOM     42  H14 UNL     1       2.110   3.750   4.005  1.00  0.00     0.186 HD
BRANCH  37  43
HETATM   43  N7  UNL     1       3.644   8.619   3.250  1.00  0.00    -0.280 N 
ATOM     44  H7  UNL     1       4.234   9.046   3.965  1.00  0.00     0.189 HD
BRANCH  43  45
HETATM   45  N8  UNL     1       3.305   9.385   2.155  1.00  0.00    -0.262 N 
HETATM   46  C14 UNL     1       3.574   9.108   0.758  1.00  0.00     0.171 C 
HETATM   47  C15 UNL     1       3.619  10.502   0.164  1.00  0.00     0.144 C 
HETATM   48  N9  UNL     1       2.785  11.261   1.050  1.00  0.00    -0.362 N 
HETATM   49  C16 UNL     1       2.609  10.627   2.176  1.00  0.00     0.205 C 
ATOM     50  H9  UNL     1       2.384  12.173   0.829  1.00  0.00     0.162 HD
HETATM   51  N10 UNL     1       1.817  11.149   3.247  1.00  0.00    -0.062 NA
ENDBRANCH  43  45
ENDBRANCH  37  43
BRANCH  40  52
HETATM   52  N11 UNL     1       3.830   3.981   2.186  1.00  0.00    -0.327 N 
HETATM   53  C19 UNL     1       4.082   4.153   0.771  1.00  0.00     0.481 C 
HETATM   54  N12 UNL     1       4.873   2.998   0.328  1.00  0.00    -0.033 N 
HETATM   55  N13 UNL     1       2.837   4.105   0.023  1.00  0.00    -0.033 N 
ATOM     56 3H12 UNL     1       5.725   2.864   0.872  1.00  0.00     0.278 HD
ATOM     57 2H12 UNL     1       4.433   2.104   0.550  1.00  0.00     0.278 HD
ATOM     58 1H12 UNL     1       5.050   3.119  -0.669  1.00  0.00     0.278 HD
ATOM     59 3H13 UNL     1       2.312   3.251   0.214  1.00  0.00     0.278 HD
ATOM     60 2H13 UNL     1       2.159   4.782   0.373  1.00  0.00     0.278 HD
ATOM     61 1H13 UNL     1       3.015   4.226  -0.973  1.00  0.00     0.278 HD
ATOM     62  H11 UNL     1       4.039   3.087   2.630  1.00  0.00     0.164 HD
ENDBRANCH  40  52
ENDBRANCH   3  35
TORSDOF 14
ENDMDL
MODEL 4
REMARK VINA RESULT: -8.831128612      2.619      4.549
REMARK  14 active torsions:
REMARK  status: ('A' for Active; 'I' for Inactive)
REMARK    1  A    between atoms: C2_2  and  O1_3 
REMARK    2  A    between atoms: C2_2  and  C3_5 
REMARK    3  A    between atoms: C3_5  and  O2_6 
REMARK    4  A    between atoms: O2_6  and  C4_7 
REMARK    5  A    between atoms: C7_10  and  N1_11 
REMARK    6  A    between atoms: C10_16  and  C11_17 
REMARK    7  A    between atoms: C11_17  and  N3_18 
REMARK    8  A    between atoms: C11_17  and  C20_52 
REMARK    9  A    between atoms: N3_18  and  N4_20 
REMARK   10  A    between atoms: N5_22  and  C12_24 
REMARK   11  A    between atoms: C13_27  and  N7_28 
REMARK   12  A    between atoms: N7_28  and  N8_30 
REMARK   13  A    between atoms: C18_38  and  N11_39 
REMARK       I    between atoms: N11_39  and  C19_41 
REMARK       I    between atoms: C19_41  and  N12_42 
REMARK       I    between atoms: C19_41  and  N13_46 
REMARK   14  A    between atoms: C20_52  and  N15_55 
ROOT
HETATM    1  N4  UNL     1       0.838   4.552   6.558  1.00  0.00    -0.228 N 
ATOM      2  H4  UNL     1       1.769   4.199   6.775  1.00  0.00     0.209 HD
HETATM    3  N5  UNL     1       0.693   5.177   5.478  1.00  0.00    -0.117 N 
ATOM      4  H5  UNL     1      -0.242   5.526   5.270  1.00  0.00     0.207 HD
ENDROOT
BRANCH   1   5
HETATM    5  N3  UNL     1      -0.171   4.306   7.479  1.00  0.00    -0.285 N 
ATOM      6  H3  UNL     1      -0.576   3.370   7.508  1.00  0.00     0.188 HD
BRANCH   5   7
HETATM    7  C11 UNL     1      -0.677   5.293   8.393  1.00  0.00     0.090 C 
BRANCH   7   8
HETATM    8  C10 UNL     1      -0.063   5.322   9.728  1.00  0.00     0.084 A 
HETATM    9  N1  UNL     1       0.540   6.259  10.449  1.00  0.00    -0.289 N 
HETATM   10  C8  UNL     1       0.936   5.706  11.632  1.00  0.00     0.190 A 
HETATM   11  N2  UNL     1       0.599   4.436  11.687  1.00  0.00    -0.359 N 
HETATM   12  C9  UNL     1      -0.016   4.164  10.536  1.00  0.00     0.121 A 
ATOM     13  H2  UNL     1       0.774   3.789  12.455  1.00  0.00     0.166 HD
BRANCH   9  14
HETATM   14  C7  UNL     1       0.761   7.622  10.088  1.00  0.00     0.128 A 
HETATM   15  C6  UNL     1       1.967   8.005   9.542  1.00  0.00     0.054 A 
HETATM   16  C5  UNL     1       2.220   9.302   9.146  1.00  0.00     0.061 A 
HETATM   17  C4  UNL     1       1.222  10.262   9.302  1.00  0.00     0.157 A 
HETATM   18  N17 UNL     1       0.065   9.843   9.838  1.00  0.00    -0.278 N 
HETATM   19  N16 UNL     1      -0.136   8.611  10.200  1.00  0.00    -0.283 N 
ATOM     20  H17 UNL     1      -0.687  10.520   9.968  1.00  0.00     0.189 HD
ATOM     21  H16 UNL     1      -1.046   8.380  10.598  1.00  0.00     0.188 HD
BRANCH  17  22
HETATM   22  O2  UNL     1       1.425  11.579   8.920  1.00  0.00    -0.332 OA
BRANCH  22  23
HETATM   23  C3  UNL     1       0.440  12.496   8.573  1.00  0.00     0.208 C 
BRANCH  23  24
HETATM   24  C2  UNL     1       0.006  13.437   9.648  1.00  0.00     0.138 C 
HETATM   25  C1  UNL     1       1.261  14.190  10.111  1.00  0.00     0.041 C 
BRANCH  24  26
HETATM   26  O1  UNL     1      -0.513  12.826  10.772  1.00  0.00    -0.394 OA
ATOM     27  H1  UNL     1       0.227  12.455  11.238  1.00  0.00     0.210 HD
ENDBRANCH  24  26
ENDBRANCH  23  24
ENDBRANCH  22  23
ENDBRANCH  17  22
ENDBRANCH   9  14
ENDBRANCH   7   8
BRANCH   7  28
HETATM   28  C20 UNL     1      -2.137   5.570   8.325  1.00  0.00     0.162 C 
HETATM   29  C21 UNL     1      -2.446   7.000   7.922  1.00  0.00     0.053 C 
HETATM   30  C22 UNL     1      -2.948   4.667   7.443  1.00  0.00     0.053 C 
BRANCH  28  31
HETATM   31  N15 UNL     1      -2.765   5.429   9.660  1.00  0.00    -0.065 N 
ATOM     32 3H15 UNL     1      -3.777   5.325   9.590  1.00  0.00     0.275 HD
ATOM     33 2H15 UNL     1      -2.546   4.529  10.086  1.00  0.00     0.275 HD
ATOM     34 1H15 UNL     1      -2.508   6.206  10.268  1.00  0.00     0.275 HD
ENDBRANCH  28  31
ENDBRANCH   7  28
ENDBRANCH   5   7
ENDBRANCH   1   5
BRANCH   3  35
HETATM   35  C12 UNL     1       1.688   5.440   4.536  1.00  0.00     0.701 A 
HETATM   36  N6  UNL     1       2.095   6.708   4.347  1.00  0.00    -0.174 N 
HETATM   37  C13 UNL     1       3.038   7.074   3.478  1.00  0.00     0.139 A 
ATOM     38  H6  UNL     1       1.654   7.438   4.906  1.00  0.00     0.186 HD
HETATM   39  C17 UNL     1       3.624   6.073   2.731  1.00  0.00     0.099 A 
HETATM   40  C18 UNL     1       3.238   4.753   2.889  1.00  0.00     0.123 A 
HETATM   41  N14 UNL     1       2.274   4.482   3.796  1.00  0.00    -0.175 N 
ATOM     42  H14 UNL     1       1.979   3.514   3.924  1.00  0.00     0.186 HD
BRANCH  37  43
HETATM   43  N7  UNL     1       3.431   8.429   3.319  1.00  0.00    -0.280 N 
ATOM     44  H7  UNL     1       4.191   8.631   2.668  1.00  0.00     0.189 HD
BRANCH  43  45
HETATM   45  N8  UNL     1       2.856   9.491   3.983  1.00  0.00    -0.262 N 
HETATM   46  C14 UNL     1       2.787   9.714   5.414  1.00  0.00     0.171 C 
HETATM   47  C15 UNL     1       1.535  10.559   5.541  1.00  0.00     0.144 C 
HETATM   48  N9  UNL     1       1.452  11.212   4.267  1.00  0.00    -0.362 N 
HETATM   49  C16 UNL     1       2.200  10.606   3.387  1.00  0.00     0.205 C 
ATOM     50  H9  UNL     1       0.885  12.038   4.074  1.00  0.00     0.162 HD
HETATM   51  N10 UNL     1       2.311  11.041   2.029  1.00  0.00    -0.062 NA
ENDBRANCH  43  45
ENDBRANCH  37  43
BRANCH  40  52
HETATM   52  N11 UNL     1       3.780   3.815   2.196  1.00  0.00    -0.327 N 
HETATM   53  C19 UNL     1       4.024   3.986   0.780  1.00  0.00     0.481 C 
HETATM   54  N12 UNL     1       4.882   2.875   0.349  1.00  0.00    -0.033 N 
HETATM   55  N13 UNL     1       2.785   3.857   0.031  1.00  0.00    -0.033 N 
ATOM     56 3H12 UNL     1       5.740   2.798   0.895  1.00  0.00     0.278 HD
ATOM     57 2H12 UNL     1       4.495   1.959   0.580  1.00  0.00     0.278 HD
ATOM     58 1H12 UNL     1       5.053   2.996  -0.649  1.00  0.00     0.278 HD
ATOM     59 3H13 UNL     1       2.310   2.976   0.230  1.00  0.00     0.278 HD
ATOM     60 2H13 UNL     1       2.067   4.496   0.372  1.00  0.00     0.278 HD
ATOM     61 1H13 UNL     1       2.956   3.978  -0.967  1.00  0.00     0.278 HD
ATOM     62  H11 UNL     1       4.041   2.939   2.650  1.00  0.00     0.164 HD
ENDBRANCH  40  52
ENDBRANCH   3  35
TORSDOF 14
ENDMDL
MODEL 5
REMARK VINA RESULT: -8.675874447      1.460      4.126
REMARK  14 active torsions:
REMARK  status: ('A' for Active; 'I' for Inactive)
REMARK    1  A    between atoms: C2_2  and  O1_3 
REMARK    2  A    between atoms: C2_2  and  C3_5 
REMARK    3  A    between atoms: C3_5  and  O2_6 
REMARK    4  A    between atoms: O2_6  and  C4_7 
REMARK    5  A    between atoms: C7_10  and  N1_11 
REMARK    6  A    between atoms: C10_16  and  C11_17 
REMARK    7  A    between atoms: C11_17  and  N3_18 
REMARK    8  A    between atoms: C11_17  and  C20_52 
REMARK    9  A    between atoms: N3_18  and  N4_20 
REMARK   10  A    between atoms: N5_22  and  C12_24 
REMARK   11  A    between atoms: C13_27  and  N7_28 
REMARK   12  A    between atoms: N7_28  and  N8_30 
REMARK   13  A    between atoms: C18_38  and  N11_39 
REMARK       I    between atoms: N11_39  and  C19_41 
REMARK       I    between atoms: C19_41  and  N12_42 
REMARK       I    between atoms: C19_41  and  N13_46 
REMARK   14  A    between atoms: C20_52  and  N15_55 
ROOT
HETATM    1  N4  UNL     1       1.185   5.283   6.649  1.00  0.00    -0.228 N 
ATOM      2  H4  UNL     1       2.158   5.012   6.793  1.00  0.00     0.209 HD
HETATM    3  N5  UNL     1       0.897   5.857   5.570  1.00  0.00    -0.117 N 
ATOM      4  H5  UNL     1      -0.078   6.123   5.435  1.00  0.00     0.207 HD
ENDROOT
BRANCH   1   5
HETATM    5  N3  UNL     1       0.283   4.988   7.661  1.00  0.00    -0.285 N 
ATOM      6  H3  UNL     1       0.364   4.086   8.129  1.00  0.00     0.188 HD
BRANCH   5   7
HETATM    7  C11 UNL     1      -0.759   5.882   8.088  1.00  0.00     0.090 C 
BRANCH   7   8
HETATM    8  C10 UNL     1      -0.340   7.239   8.468  1.00  0.00     0.084 A 
HETATM    9  N1  UNL     1       0.338   7.746   9.490  1.00  0.00    -0.289 N 
HETATM   10  C8  UNL     1       0.413   9.099   9.330  1.00  0.00     0.190 A 
HETATM   11  N2  UNL     1      -0.201   9.471   8.229  1.00  0.00    -0.359 N 
HETATM   12  C9  UNL     1      -0.676   8.357   7.672  1.00  0.00     0.121 A 
ATOM     13  H2  UNL     1      -0.295  10.422   7.871  1.00  0.00     0.166 HD
BRANCH   9  14
HETATM   14  C7  UNL     1       0.908   7.036  10.589  1.00  0.00     0.128 A 
HETATM   15  C6  UNL     1       2.210   6.592  10.523  1.00  0.00     0.054 A 
HETATM   16  C5  UNL     1       2.820   5.930  11.570  1.00  0.00     0.061 A 
HETATM   17  C4  UNL     1       2.093   5.702  12.737  1.00  0.00     0.157 A 
HETATM   18  N17 UNL     1       0.829   6.152  12.755  1.00  0.00    -0.278 N 
HETATM   19  N16 UNL     1       0.290   6.771  11.748  1.00  0.00    -0.283 N 
ATOM     20  H17 UNL     1       0.268   6.001  13.594  1.00  0.00     0.189 HD
ATOM     21  H16 UNL     1      -0.678   7.080  11.848  1.00  0.00     0.188 HD
BRANCH  17  22
HETATM   22  O2  UNL     1       2.658   5.042  13.818  1.00  0.00    -0.332 OA
BRANCH  22  23
HETATM   23  C3  UNL     1       3.773   4.213  13.785  1.00  0.00     0.208 C 
BRANCH  23  24
HETATM   24  C2  UNL     1       3.503   2.747  13.694  1.00  0.00     0.138 C 
HETATM   25  C1  UNL     1       3.707   2.351  12.225  1.00  0.00     0.041 C 
BRANCH  24  26
HETATM   26  O1  UNL     1       2.213   2.379  14.018  1.00  0.00    -0.394 OA
ATOM     27  H1  UNL     1       2.146   2.449  14.962  1.00  0.00     0.210 HD
ENDBRANCH  24  26
ENDBRANCH  23  24
ENDBRANCH  22  23
ENDBRANCH  17  22
ENDBRANCH   9  14
ENDBRANCH   7   8
BRANCH   7  28
HETATM   28  C20 UNL     1      -1.863   5.280   8.883  1.00  0.00     0.162 C 
HETATM   29  C21 UNL     1      -2.927   4.632   8.016  1.00  0.00     0.053 C 
HETATM   30  C22 UNL     1      -1.464   4.281   9.930  1.00  0.00     0.053 C 
BRANCH  28  31
HETATM   31  N15 UNL     1      -2.600   6.319   9.639  1.00  0.00    -0.065 N 
ATOM     32 3H15 UNL     1      -2.685   6.078  10.626  1.00  0.00     0.275 HD
ATOM     33 2H15 UNL     1      -2.052   7.174   9.736  1.00  0.00     0.275 HD
ATOM     34 1H15 UNL     1      -3.510   6.502   9.216  1.00  0.00     0.275 HD
ENDBRANCH  28  31
ENDBRANCH   7  28
ENDBRANCH   5   7
ENDBRANCH   1   5
BRANCH   3  35
HETATM   35  C12 UNL     1       1.782   6.165   4.536  1.00  0.00     0.701 A 
HETATM   36  N6  UNL     1       1.873   5.337   3.480  1.00  0.00    -0.174 N 
HETATM   37  C13 UNL     1       2.680   5.534   2.437  1.00  0.00     0.139 A 
ATOM     38  H6  UNL     1       1.284   4.504   3.476  1.00  0.00     0.186 HD
HETATM   39  C17 UNL     1       3.469   6.665   2.459  1.00  0.00     0.099 A 
HETATM   40  C18 UNL     1       3.411   7.547   3.525  1.00  0.00     0.123 A 
HETATM   41  N14 UNL     1       2.561   7.262   4.535  1.00  0.00    -0.175 N 
ATOM     42  H14 UNL     1       2.507   7.902   5.327  1.00  0.00     0.186 HD
BRANCH  37  43
HETATM   43  N7  UNL     1       2.737   4.626   1.346  1.00  0.00    -0.280 N 
ATOM     44  H7  UNL     1       3.598   4.096   1.212  1.00  0.00     0.189 HD
BRANCH  43  45
HETATM   45  N8  UNL     1       1.706   4.412   0.456  1.00  0.00    -0.262 N 
HETATM   46  C14 UNL     1       0.500   3.634   0.661  1.00  0.00     0.171 C 
HETATM   47  C15 UNL     1       0.158   3.205  -0.752  1.00  0.00     0.144 C 
HETATM   48  N9  UNL     1       0.740   4.239  -1.557  1.00  0.00    -0.362 N 
HETATM   49  C16 UNL     1       1.616   4.920  -0.871  1.00  0.00     0.205 C 
ATOM     50  H9  UNL     1       0.502   4.418  -2.532  1.00  0.00     0.162 HD
HETATM   51  N10 UNL     1       2.354   6.015  -1.422  1.00  0.00    -0.062 NA
ENDBRANCH  43  45
ENDBRANCH  37  43
BRANCH  40  52
HETATM   52  N11 UNL     1       4.143   8.605   3.553  1.00  0.00    -0.327 N 
HETATM   53  C19 UNL     1       3.624   9.851   4.073  1.00  0.00     0.481 C 
HETATM   54  N12 UNL     1       4.762  10.769   4.219  1.00  0.00    -0.033 N 
HETATM   55  N13 UNL     1       2.725  10.469   3.112  1.00  0.00    -0.033 N 
ATOM     56 3H12 UNL     1       5.516  10.382   4.787  1.00  0.00     0.278 HD
ATOM     57 2H12 UNL     1       5.293  10.886   3.356  1.00  0.00     0.278 HD
ATOM     58 1H12 UNL     1       4.396  11.647   4.586  1.00  0.00     0.278 HD
ATOM     59 3H13 UNL     1       3.169  10.593   2.202  1.00  0.00     0.278 HD
ATOM     60 2H13 UNL     1       1.978   9.835   2.831  1.00  0.00     0.278 HD
ATOM     61 1H13 UNL     1       2.359  11.347   3.479  1.00  0.00     0.278 HD
ATOM     62  H11 UNL     1       5.101   8.564   3.204  1.00  0.00     0.164 HD
ENDBRANCH  40  52
ENDBRANCH   3  35
TORSDOF 14
ENDMDL
