MODEL 1
REMARK VINA RESULT: -9.078480046      0.000      0.000
REMARK  17 active torsions:
REMARK  status: ('A' for Active; 'I' for Inactive)
REMARK    1  A    between atoms: O1_2  and  C2_3 
REMARK    2  A    between atoms: C4_5  and  N1_6 
REMARK    3  A    between atoms: C5_11  and  C6_12 
REMARK    4  A    between atoms: C6_12  and  N4_13 
REMARK    5  A    between atoms: N4_13  and  C7_15 
REMARK    6  A    between atoms: C7_15  and  O2_16 
REMARK    7  A    between atoms: C7_15  and  C8_18 
REMARK    8  A    between atoms: C10_22  and  C11_23 
REMARK    9  A    between atoms: C11_23  and  N6_24 
REMARK   10  A    between atoms: N6_24  and  C12_26 
REMARK   11  A    between atoms: C16_33  and  N8_34 
REMARK   12  A    between atoms: C17_37  and  C18_38 
REMARK   13  A    between atoms: C18_38  and  N9_39 
REMARK   14  A    between atoms: C18_38  and  O5_43 
REMARK   15  A    between atoms: C18_38  and  C19_45 
REMARK       I    between atoms: C19_45  and  N10_47 
REMARK   16  A    between atoms: N10_47  and  N11_49 
REMARK   17  A    between atoms: C20_52  and  O7_53 
ROOT
HETATM    1  C2  UNL     1       3.162   7.248   3.458  1.00  0.00     0.104 A 
HETATM    2  C3  UNL     1       2.314   6.965   4.482  1.00  0.00     0.075 A 
HETATM    3  C4  UNL     1       1.567   5.799   4.528  1.00  0.00     0.113 A 
HETATM    4  C16 UNL     1       1.721   4.912   3.480  1.00  0.00     0.147 A 
HETATM    5  C17 UNL     1       2.561   5.126   2.400  1.00  0.00     0.085 A 
HETATM    6  C20 UNL     1       3.278   6.338   2.431  1.00  0.00     0.113 A 
ENDROOT
BRANCH   3   7
HETATM    7  N1  UNL     1       0.609   5.644   5.554  1.00  0.00    -0.178 N 
HETATM    8  N2  UNL     1       0.401   6.601   6.481  1.00  0.00    -0.219 N 
HETATM    9  N3  UNL     1      -0.583   6.290   7.270  1.00  0.00    -0.270 N 
ATOM     10  H2  UNL     1       0.946   7.461   6.553  1.00  0.00     0.210 HD
HETATM   11  C5  UNL     1      -1.061   5.074   6.858  1.00  0.00     0.131 A 
ATOM     12  H3  UNL     1      -0.933   6.847   8.050  1.00  0.00     0.190 HD
HETATM   13  N7  UNL     1      -0.302   4.735   5.829  1.00  0.00    -0.264 N 
ATOM     14  H7  UNL     1      -0.410   3.867   5.305  1.00  0.00     0.190 HD
BRANCH  11  15
HETATM   15  C6  UNL     1      -2.279   4.540   7.502  1.00  0.00     0.196 C 
BRANCH  15  16
HETATM   16  N4  UNL     1      -2.806   5.497   8.462  1.00  0.00    -0.386 N 
ATOM     17  H4  UNL     1      -3.217   6.385   8.177  1.00  0.00     0.156 HD
BRANCH  16  18
HETATM   18  C7  UNL     1      -2.708   5.108   9.822  1.00  0.00     0.256 C 
BRANCH  18  19
HETATM   19  O2  UNL     1      -3.799   4.245  10.118  1.00  0.00    -0.372 OA
ATOM     20  H2  UNL     1      -3.680   3.905  10.997  1.00  0.00     0.212 HD
ENDBRANCH  18  19
BRANCH  18  21
HETATM   21  C8  UNL     1      -1.483   4.502  10.317  1.00  0.00     0.047 A 
HETATM   22  C9  UNL     1      -1.383   3.149  10.682  1.00  0.00     0.107 A 
HETATM   23  N5  UNL     1      -0.228   2.718  11.024  1.00  0.00    -0.361 N 
HETATM   24  C10 UNL     1       0.829   3.508  11.032  1.00  0.00     0.068 A 
ATOM     25  H5  UNL     1      -0.121   1.741  11.296  1.00  0.00     0.165 HD
HETATM   26  S1  UNL     1       0.124   4.977  10.521  1.00  0.00    -0.074 SA
BRANCH  24  27
HETATM   27  C11 UNL     1       2.257   3.139  11.378  1.00  0.00     0.179 C 
BRANCH  27  28
HETATM   28  N6  UNL     1       2.291   3.049  12.790  1.00  0.00    -0.408 N 
ATOM     29  H6  UNL     1       1.665   2.409  13.279  1.00  0.00     0.154 HD
BRANCH  28  30
HETATM   30  C12 UNL     1       3.193   3.846  13.514  1.00  0.00     0.015 C 
HETATM   31  C13 UNL     1       2.672   5.195  13.958  1.00  0.00     0.037 C 
HETATM   32  C14 UNL     1       3.568   3.097  14.789  1.00  0.00     0.037 C 
HETATM   33  C15 UNL     1       4.491   4.007  12.719  1.00  0.00     0.037 C 
ENDBRANCH  28  30
ENDBRANCH  27  28
ENDBRANCH  24  27
ENDBRANCH  18  21
ENDBRANCH  16  18
ENDBRANCH  15  16
ENDBRANCH  11  15
ENDBRANCH   3   7
BRANCH   4  34
HETATM   34  N8  UNL     1       0.884   3.767   3.500  1.00  0.00    -0.112 N 
HETATM   35  O3  UNL     1       1.055   2.757   4.184  1.00  0.00    -0.532 OA
HETATM   36  O4  UNL     1      -0.242   3.787   2.669  1.00  0.00    -0.532 OA
ENDBRANCH   4  34
BRANCH   1  37
HETATM   37  O1  UNL     1       3.904   8.439   3.454  1.00  0.00    -0.353 OA
HETATM   38  C1  UNL     1       3.441   9.557   4.150  1.00  0.00     0.210 C 
ENDBRANCH   1  37
BRANCH   5  39
HETATM   39  C18 UNL     1       2.840   4.158   1.355  1.00  0.00     0.338 C 
BRANCH  39  40
HETATM   40  N9  UNL     1       4.220   3.758   1.227  1.00  0.00    -0.033 N 
ATOM     41  H93 UNL     1       4.791   4.560   0.959  1.00  0.00     0.279 HD
ATOM     42  H92 UNL     1       4.611   3.555   2.147  1.00  0.00     0.279 HD
ATOM     43  H91 UNL     1       4.397   2.978   0.594  1.00  0.00     0.279 HD
ENDBRANCH  39  40
BRANCH  39  44
HETATM   44  O5  UNL     1       2.343   2.850   1.923  1.00  0.00    -0.354 OA
ATOM     45  H5  UNL     1       1.917   2.425   1.188  1.00  0.00     0.213 HD
ENDBRANCH  39  44
BRANCH  39  46
HETATM   46  C19 UNL     1       2.125   4.195   0.105  1.00  0.00     0.304 C 
HETATM   47  O6  UNL     1       2.186   4.935  -0.814  1.00  0.00    -0.266 OA
HETATM   48  N10 UNL     1       1.104   3.099  -0.070  1.00  0.00    -0.272 N 
ATOM     49  H10 UNL     1       1.003   2.421   0.685  1.00  0.00     0.189 HD
BRANCH  48  50
HETATM   50  N11 UNL     1       0.312   2.950  -1.160  1.00  0.00    -0.342 N 
ATOM     51 2H11 UNL     1       0.034   3.805  -1.642  1.00  0.00     0.176 HD
ATOM     52 1H11 UNL     1      -0.017   2.054  -1.520  1.00  0.00     0.176 HD
ENDBRANCH  48  50
ENDBRANCH  39  46
ENDBRANCH   5  39
BRANCH   6  53
HETATM   53  O7  UNL     1       4.148   6.685   1.432  1.00  0.00    -0.357 OA
ATOM     54  H7  UNL     1       4.329   7.614   1.353  1.00  0.00     0.217 HD
ENDBRANCH   6  53
TORSDOF 17
ENDMDL
MODEL 2
REMARK VINA RESULT: -9.073792467      4.011      9.030
REMARK  17 active torsions:
REMARK  status: ('A' for Active; 'I' for Inactive)
REMARK    1  A    between atoms: O1_2  and  C2_3 
REMARK    2  A    between atoms: C4_5  and  N1_6 
REMARK    3  A    between atoms: C5_11  and  C6_12 
REMARK    4  A    between atoms: C6_12  and  N4_13 
REMARK    5  A    between atoms: N4_13  and  C7_15 
REMARK    6  A    between atoms: C7_15  and  O2_16 
REMARK    7  A    between atoms: C7_15  and  C8_18 
REMARK    8  A    between atoms: C10_22  and  C11_23 
REMARK    9  A    between atoms: C11_23  and  N6_24 
REMARK   10  A    between atoms: N6_24  and  C12_26 
REMARK   11  A    between atoms: C16_33  and  N8_34 
REMARK   12  A    between atoms: C17_37  and  C18_38 
REMARK   13  A    between atoms: C18_38  and  N9_39 
REMARK   14  A    between atoms: C18_38  and  O5_43 
REMARK   15  A    between atoms: C18_38  and  C19_45 
REMARK       I    between atoms: C19_45  and  N10_47 
REMARK   16  A    between atoms: N10_47  and  N11_49 
REMARK   17  A    between atoms: C20_52  and  O7_53 
ROOT
HETATM    1  C2  UNL     1       1.580   8.293   6.423  1.00  0.00     0.104 A 
HETATM    2  C3  UNL     1       1.525   7.158   5.677  1.00  0.00     0.075 A 
HETATM    3  C4  UNL     1       0.771   6.058   6.052  1.00  0.00     0.113 A 
HETATM    4  C16 UNL     1       0.055   6.158   7.231  1.00  0.00     0.147 A 
HETATM    5  C17 UNL     1       0.059   7.277   8.047  1.00  0.00     0.085 A 
HETATM    6  C20 UNL     1       0.857   8.345   7.594  1.00  0.00     0.113 A 
ENDROOT
BRANCH   3   7
HETATM    7  N1  UNL     1       0.876   4.870   5.295  1.00  0.00    -0.178 N 
HETATM    8  N2  UNL     1       1.172   3.687   5.869  1.00  0.00    -0.219 N 
HETATM    9  N3  UNL     1       1.128   2.718   5.006  1.00  0.00    -0.270 N 
ATOM     10  H2  UNL     1       1.402   3.568   6.856  1.00  0.00     0.210 HD
HETATM   11  C5  UNL     1       0.785   3.268   3.799  1.00  0.00     0.131 A 
ATOM     12  H3  UNL     1       1.315   1.733   5.192  1.00  0.00     0.190 HD
HETATM   13  N7  UNL     1       0.652   4.563   4.036  1.00  0.00    -0.264 N 
ATOM     14  H7  UNL     1       0.404   5.248   3.321  1.00  0.00     0.190 HD
BRANCH  11  15
HETATM   15  C6  UNL     1       0.529   2.364   2.659  1.00  0.00     0.196 C 
BRANCH  15  16
HETATM   16  N4  UNL     1       0.266   3.131   1.452  1.00  0.00    -0.386 N 
ATOM     17  H4  UNL     1      -0.537   3.753   1.365  1.00  0.00     0.156 HD
BRANCH  16  18
HETATM   18  C7  UNL     1       1.206   2.955   0.405  1.00  0.00     0.256 C 
BRANCH  18  19
HETATM   19  O2  UNL     1       0.517   3.066  -0.835  1.00  0.00    -0.372 OA
ATOM     20  H2  UNL     1       1.136   2.894  -1.535  1.00  0.00     0.212 HD
ENDBRANCH  18  19
BRANCH  18  21
HETATM   21  C8  UNL     1       2.399   3.782   0.354  1.00  0.00     0.047 A 
HETATM   22  C9  UNL     1       3.699   3.274   0.521  1.00  0.00     0.107 A 
HETATM   23  N5  UNL     1       4.671   4.093   0.371  1.00  0.00    -0.361 N 
HETATM   24  C10 UNL     1       4.466   5.361   0.072  1.00  0.00     0.068 A 
ATOM     25  H5  UNL     1       5.627   3.757   0.487  1.00  0.00     0.165 HD
HETATM   26  S1  UNL     1       2.759   5.394   0.003  1.00  0.00    -0.074 SA
BRANCH  24  27
HETATM   27  C11 UNL     1       5.506   6.436  -0.167  1.00  0.00     0.179 C 
BRANCH  27  28
HETATM   28  N6  UNL     1       5.773   6.992   1.107  1.00  0.00    -0.408 N 
ATOM     29  H6  UNL     1       6.361   6.492   1.773  1.00  0.00     0.154 HD
BRANCH  28  30
HETATM   30  C12 UNL     1       5.220   8.239   1.448  1.00  0.00     0.015 C 
HETATM   31  C13 UNL     1       4.504   8.969   0.334  1.00  0.00     0.037 C 
HETATM   32  C14 UNL     1       4.181   8.012   2.541  1.00  0.00     0.037 C 
HETATM   33  C15 UNL     1       6.300   9.128   2.066  1.00  0.00     0.037 C 
ENDBRANCH  28  30
ENDBRANCH  27  28
ENDBRANCH  24  27
ENDBRANCH  18  21
ENDBRANCH  16  18
ENDBRANCH  15  16
ENDBRANCH  11  15
ENDBRANCH   3   7
BRANCH   4  34
HETATM   34  N8  UNL     1      -0.640   4.993   7.642  1.00  0.00    -0.112 N 
HETATM   35  O3  UNL     1      -1.747   4.632   7.243  1.00  0.00    -0.532 OA
HETATM   36  O4  UNL     1      -0.008   4.176   8.587  1.00  0.00    -0.532 OA
ENDBRANCH   4  34
BRANCH   1  37
HETATM   37  O1  UNL     1       2.353   9.386   6.003  1.00  0.00    -0.353 OA
HETATM   38  C1  UNL     1       1.945  10.159   4.914  1.00  0.00     0.210 C 
ENDBRANCH   1  37
BRANCH   5  39
HETATM   39  C18 UNL     1      -0.780   7.459   9.217  1.00  0.00     0.338 C 
BRANCH  39  40
HETATM   40  N9  UNL     1      -0.433   6.657  10.366  1.00  0.00    -0.033 N 
ATOM     41  H93 UNL     1       0.231   7.161  10.954  1.00  0.00     0.279 HD
ATOM     42  H92 UNL     1      -1.229   6.596  11.001  1.00  0.00     0.279 HD
ATOM     43  H91 UNL     1      -0.078   5.723  10.161  1.00  0.00     0.279 HD
ENDBRANCH  39  40
BRANCH  39  44
HETATM   44  O5  UNL     1      -0.325   8.778   9.795  1.00  0.00    -0.354 OA
ATOM     45  H5  UNL     1      -0.743   8.814  10.647  1.00  0.00     0.213 HD
ENDBRANCH  39  44
BRANCH  39  46
HETATM   46  C19 UNL     1      -2.194   7.700   9.080  1.00  0.00     0.304 C 
HETATM   47  O6  UNL     1      -2.912   7.654   8.144  1.00  0.00    -0.266 OA
HETATM   48  N10 UNL     1      -2.893   8.091  10.358  1.00  0.00    -0.272 N 
ATOM     49  H10 UNL     1      -2.331   8.145  11.208  1.00  0.00     0.189 HD
BRANCH  48  50
HETATM   50  N11 UNL     1      -4.214   8.375  10.458  1.00  0.00    -0.342 N 
ATOM     51 2H11 UNL     1      -4.509   9.294  10.129  1.00  0.00     0.176 HD
ATOM     52 1H11 UNL     1      -4.918   7.740  10.833  1.00  0.00     0.176 HD
ENDBRANCH  48  50
ENDBRANCH  39  46
ENDBRANCH   5  39
BRANCH   6  53
HETATM   53  O7  UNL     1       0.957   9.517   8.296  1.00  0.00    -0.357 OA
ATOM     54  H7  UNL     1       0.132   9.936   8.510  1.00  0.00     0.217 HD
ENDBRANCH   6  53
TORSDOF 17
ENDMDL
MODEL 3
REMARK VINA RESULT: -8.988527319      4.282      7.491
REMARK  17 active torsions:
REMARK  status: ('A' for Active; 'I' for Inactive)
REMARK    1  A    between atoms: O1_2  and  C2_3 
REMARK    2  A    between atoms: C4_5  and  N1_6 
REMARK    3  A    between atoms: C5_11  and  C6_12 
REMARK    4  A    between atoms: C6_12  and  N4_13 
REMARK    5  A    between atoms: N4_13  and  C7_15 
REMARK    6  A    between atoms: C7_15  and  O2_16 
REMARK    7  A    between atoms: C7_15  and  C8_18 
REMARK    8  A    between atoms: C10_22  and  C11_23 
REMARK    9  A    between atoms: C11_23  and  N6_24 
REMARK   10  A    between atoms: N6_24  and  C12_26 
REMARK   11  A    between atoms: C16_33  and  N8_34 
REMARK   12  A    between atoms: C17_37  and  C18_38 
REMARK   13  A    between atoms: C18_38  and  N9_39 
REMARK   14  A    between atoms: C18_38  and  O5_43 
REMARK   15  A    between atoms: C18_38  and  C19_45 
REMARK       I    between atoms: C19_45  and  N10_47 
REMARK   16  A    between atoms: N10_47  and  N11_49 
REMARK   17  A    between atoms: C20_52  and  O7_53 
ROOT
HETATM    1  C2  UNL     1       0.658   6.727   6.815  1.00  0.00     0.104 A 
HETATM    2  C3  UNL     1       1.006   7.858   7.484  1.00  0.00     0.075 A 
HETATM    3  C4  UNL     1       0.658   8.075   8.807  1.00  0.00     0.113 A 
HETATM    4  C16 UNL     1      -0.065   7.080   9.439  1.00  0.00     0.147 A 
HETATM    5  C17 UNL     1      -0.459   5.902   8.828  1.00  0.00     0.085 A 
HETATM    6  C20 UNL     1      -0.069   5.766   7.482  1.00  0.00     0.113 A 
ENDROOT
BRANCH   3   7
HETATM    7  N1  UNL     1       0.938   9.332   9.388  1.00  0.00    -0.178 N 
HETATM    8  N2  UNL     1      -0.020  10.265   9.556  1.00  0.00    -0.219 N 
HETATM    9  N3  UNL     1       0.437  11.304  10.188  1.00  0.00    -0.270 N 
ATOM     10  H2  UNL     1      -0.981  10.168   9.228  1.00  0.00     0.210 HD
HETATM   11  C5  UNL     1       1.758  11.061  10.461  1.00  0.00     0.131 A 
ATOM     12  H3  UNL     1      -0.089  12.142  10.434  1.00  0.00     0.190 HD
HETATM   13  N7  UNL     1       2.001   9.865   9.951  1.00  0.00    -0.264 N 
ATOM     14  H7  UNL     1       2.911   9.406   9.991  1.00  0.00     0.190 HD
BRANCH  11  15
HETATM   15  C6  UNL     1       2.494  12.030  11.299  1.00  0.00     0.196 C 
BRANCH  15  16
HETATM   16  N4  UNL     1       3.815  11.517  11.624  1.00  0.00    -0.386 N 
ATOM     17  H4  UNL     1       4.546  11.406  10.922  1.00  0.00     0.156 HD
BRANCH  16  18
HETATM   18  C7  UNL     1       4.017  11.183  12.988  1.00  0.00     0.256 C 
BRANCH  18  19
HETATM   19  O2  UNL     1       3.356  12.157  13.787  1.00  0.00    -0.372 OA
ATOM     20  H2  UNL     1       3.001  12.823  13.211  1.00  0.00     0.212 HD
ENDBRANCH  18  19
BRANCH  18  21
HETATM   21  C8  UNL     1       3.661   9.860  13.470  1.00  0.00     0.047 A 
HETATM   22  C9  UNL     1       3.484   9.555  14.831  1.00  0.00     0.107 A 
HETATM   23  N5  UNL     1       3.090   8.372  15.119  1.00  0.00    -0.361 N 
HETATM   24  C10 UNL     1       2.858   7.474  14.182  1.00  0.00     0.068 A 
ATOM     25  H5  UNL     1       2.953   8.119  16.098  1.00  0.00     0.165 HD
HETATM   26  S1  UNL     1       3.233   8.378  12.783  1.00  0.00    -0.074 SA
BRANCH  24  27
HETATM   27  C11 UNL     1       2.359   6.055  14.364  1.00  0.00     0.179 C 
BRANCH  27  28
HETATM   28  N6  UNL     1       2.281   5.514  13.058  1.00  0.00    -0.408 N 
ATOM     29  H6  UNL     1       1.694   5.959  12.353  1.00  0.00     0.154 HD
BRANCH  28  30
HETATM   30  C12 UNL     1       3.018   4.360  12.741  1.00  0.00     0.015 C 
HETATM   31  C13 UNL     1       2.240   3.242  12.084  1.00  0.00     0.037 C 
HETATM   32  C14 UNL     1       4.110   4.754  11.751  1.00  0.00     0.037 C 
HETATM   33  C15 UNL     1       3.740   3.851  13.989  1.00  0.00     0.037 C 
ENDBRANCH  28  30
ENDBRANCH  27  28
ENDBRANCH  24  27
ENDBRANCH  18  21
ENDBRANCH  16  18
ENDBRANCH  15  16
ENDBRANCH  11  15
ENDBRANCH   3   7
BRANCH   4  34
HETATM   34  N8  UNL     1      -0.486   7.358  10.764  1.00  0.00    -0.112 N 
HETATM   35  O3  UNL     1       0.185   7.205  11.785  1.00  0.00    -0.532 OA
HETATM   36  O4  UNL     1      -1.785   7.854  10.927  1.00  0.00    -0.532 OA
ENDBRANCH   4  34
BRANCH   1  37
HETATM   37  O1  UNL     1       1.036   6.546   5.475  1.00  0.00    -0.353 OA
HETATM   38  C1  UNL     1       2.102   7.272   4.942  1.00  0.00     0.210 C 
ENDBRANCH   1  37
BRANCH   5  39
HETATM   39  C18 UNL     1      -1.102   4.788   9.501  1.00  0.00     0.338 C 
BRANCH  39  40
HETATM   40  N9  UNL     1      -0.304   3.593   9.633  1.00  0.00    -0.033 N 
ATOM     41  H93 UNL     1       0.634   3.835   9.954  1.00  0.00     0.279 HD
ATOM     42  H92 UNL     1      -0.631   3.041  10.426  1.00  0.00     0.279 HD
ATOM     43  H91 UNL     1      -0.246   3.006   8.800  1.00  0.00     0.279 HD
ENDBRANCH  39  40
BRANCH  39  44
HETATM   44  O5  UNL     1      -1.067   5.170  10.961  1.00  0.00    -0.354 OA
ATOM     45  H5  UNL     1      -0.341   4.670  11.314  1.00  0.00     0.213 HD
ENDBRANCH  39  44
BRANCH  39  46
HETATM   46  C19 UNL     1      -2.509   4.532   9.325  1.00  0.00     0.304 C 
HETATM   47  O6  UNL     1      -3.203   4.575   8.370  1.00  0.00    -0.266 OA
HETATM   48  N10 UNL     1      -3.242   4.147  10.585  1.00  0.00    -0.272 N 
ATOM     49  H10 UNL     1      -2.701   4.086  11.448  1.00  0.00     0.189 HD
BRANCH  48  50
HETATM   50  N11 UNL     1      -4.568   3.876  10.654  1.00  0.00    -0.342 N 
ATOM     51 2H11 UNL     1      -5.135   4.166   9.857  1.00  0.00     0.176 HD
ATOM     52 1H11 UNL     1      -5.025   3.409  11.437  1.00  0.00     0.176 HD
ENDBRANCH  48  50
ENDBRANCH  39  46
ENDBRANCH   5  39
BRANCH   6  53
HETATM   53  O7  UNL     1      -0.386   4.653   6.749  1.00  0.00    -0.357 OA
ATOM     54  H7  UNL     1       0.252   3.950   6.779  1.00  0.00     0.217 HD
ENDBRANCH   6  53
TORSDOF 17
ENDMDL
MODEL 4
REMARK VINA RESULT: -8.911724954      3.546      9.577
REMARK  17 active torsions:
REMARK  status: ('A' for Active; 'I' for Inactive)
REMARK    1  A    between atoms: O1_2  and  C2_3 
REMARK    2  A    between atoms: C4_5  and  N1_6 
REMARK    3  A    between atoms: C5_11  and  C6_12 
REMARK    4  A    between atoms: C6_12  and  N4_13 
REMARK    5  A    between atoms: N4_13  and  C7_15 
REMARK    6  A    between atoms: C7_15  and  O2_16 
REMARK    7  A    between atoms: C7_15  and  C8_18 
REMARK    8  A    between atoms: C10_22  and  C11_23 
REMARK    9  A    between atoms: C11_23  and  N6_24 
REMARK   10  A    between atoms: N6_24  and  C12_26 
REMARK   11  A    between atoms: C16_33  and  N8_34 
REMARK   12  A    between atoms: C17_37  and  C18_38 
REMARK   13  A    between atoms: C18_38  and  N9_39 
REMARK   14  A    between atoms: C18_38  and  O5_43 
REMARK   15  A    between atoms: C18_38  and  C19_45 
REMARK       I    between atoms: C19_45  and  N10_47 
REMARK   16  A    between atoms: N10_47  and  N11_49 
REMARK   17  A    between atoms: C20_52  and  O7_53 
ROOT
HETATM    1  C2  UNL     1       2.096   5.296   8.952  1.00  0.00     0.104 A 
HETATM    2  C3  UNL     1       1.961   5.095   7.614  1.00  0.00     0.075 A 
HETATM    3  C4  UNL     1       0.725   4.965   7.004  1.00  0.00     0.113 A 
HETATM    4  C16 UNL     1      -0.391   5.056   7.815  1.00  0.00     0.147 A 
HETATM    5  C17 UNL     1      -0.339   5.258   9.184  1.00  0.00     0.085 A 
HETATM    6  C20 UNL     1       0.957   5.373   9.723  1.00  0.00     0.113 A 
ENDROOT
BRANCH   3   7
HETATM    7  N1  UNL     1       0.674   4.621   5.635  1.00  0.00    -0.178 N 
HETATM    8  N2  UNL     1       1.210   5.412   4.684  1.00  0.00    -0.219 N 
HETATM    9  N3  UNL     1       1.130   4.862   3.510  1.00  0.00    -0.270 N 
ATOM     10  H2  UNL     1       1.625   6.327   4.864  1.00  0.00     0.210 HD
HETATM   11  C5  UNL     1       0.518   3.647   3.674  1.00  0.00     0.131 A 
ATOM     12  H3  UNL     1       1.461   5.260   2.631  1.00  0.00     0.190 HD
HETATM   13  N7  UNL     1       0.264   3.562   4.970  1.00  0.00    -0.264 N 
ATOM     14  H7  UNL     1      -0.199   2.764   5.406  1.00  0.00     0.190 HD
BRANCH  11  15
HETATM   15  C6  UNL     1       0.420   2.744   2.510  1.00  0.00     0.196 C 
BRANCH  15  16
HETATM   16  N4  UNL     1       0.187   3.507   1.294  1.00  0.00    -0.386 N 
ATOM     17  H4  UNL     1      -0.581   4.172   1.206  1.00  0.00     0.156 HD
BRANCH  16  18
HETATM   18  C7  UNL     1       1.103   3.262   0.240  1.00  0.00     0.256 C 
BRANCH  18  19
HETATM   19  O2  UNL     1       0.441   3.517  -0.993  1.00  0.00    -0.372 OA
ATOM     20  H2  UNL     1       0.456   4.453  -1.151  1.00  0.00     0.212 HD
ENDBRANCH  18  19
BRANCH  18  21
HETATM   21  C8  UNL     1       2.391   3.934   0.228  1.00  0.00     0.047 A 
HETATM   22  C9  UNL     1       3.595   3.305   0.589  1.00  0.00     0.107 A 
HETATM   23  N5  UNL     1       4.672   3.982   0.457  1.00  0.00    -0.361 N 
HETATM   24  C10 UNL     1       4.659   5.219  -0.000  1.00  0.00     0.068 A 
ATOM     25  H5  UNL     1       5.563   3.555   0.711  1.00  0.00     0.165 HD
HETATM   26  S1  UNL     1       2.984   5.439  -0.257  1.00  0.00    -0.074 SA
BRANCH  24  27
HETATM   27  C11 UNL     1       5.845   6.129  -0.242  1.00  0.00     0.179 C 
BRANCH  27  28
HETATM   28  N6  UNL     1       5.866   7.021   0.857  1.00  0.00    -0.408 N 
ATOM     29  H6  UNL     1       5.945   6.662   1.808  1.00  0.00     0.154 HD
BRANCH  28  30
HETATM   30  C12 UNL     1       5.776   8.405   0.628  1.00  0.00     0.015 C 
HETATM   31  C13 UNL     1       5.990   8.852  -0.801  1.00  0.00     0.037 C 
HETATM   32  C14 UNL     1       4.368   8.856   1.006  1.00  0.00     0.037 C 
HETATM   33  C15 UNL     1       6.727   9.145   1.571  1.00  0.00     0.037 C 
ENDBRANCH  28  30
ENDBRANCH  27  28
ENDBRANCH  24  27
ENDBRANCH  18  21
ENDBRANCH  16  18
ENDBRANCH  15  16
ENDBRANCH  11  15
ENDBRANCH   3   7
BRANCH   4  34
HETATM   34  N8  UNL     1      -1.642   4.834   7.187  1.00  0.00    -0.112 N 
HETATM   35  O3  UNL     1      -2.025   3.774   6.690  1.00  0.00    -0.532 OA
HETATM   36  O4  UNL     1      -2.526   5.917   7.129  1.00  0.00    -0.532 OA
ENDBRANCH   4  34
BRANCH   1  37
HETATM   37  O1  UNL     1       3.369   5.427   9.529  1.00  0.00    -0.353 OA
HETATM   38  C1  UNL     1       4.195   4.311   9.670  1.00  0.00     0.210 C 
ENDBRANCH   1  37
BRANCH   5  39
HETATM   39  C18 UNL     1      -1.490   5.487  10.038  1.00  0.00     0.338 C 
BRANCH  39  40
HETATM   40  N9  UNL     1      -2.607   4.597   9.833  1.00  0.00    -0.033 N 
ATOM     41  H93 UNL     1      -2.844   4.558   8.842  1.00  0.00     0.279 HD
ATOM     42  H92 UNL     1      -2.316   3.631   9.988  1.00  0.00     0.279 HD
ATOM     43  H91 UNL     1      -3.441   4.801  10.383  1.00  0.00     0.279 HD
ENDBRANCH  39  40
BRANCH  39  44
HETATM   44  O5  UNL     1      -1.074   4.922  11.376  1.00  0.00    -0.354 OA
ATOM     45  H5  UNL     1      -1.857   4.990  11.909  1.00  0.00     0.213 HD
ENDBRANCH  39  44
BRANCH  39  46
HETATM   46  C19 UNL     1      -1.871   6.823  10.419  1.00  0.00     0.304 C 
HETATM   47  O6  UNL     1      -1.293   7.668  11.009  1.00  0.00    -0.266 OA
HETATM   48  N10 UNL     1      -3.264   7.224  10.003  1.00  0.00    -0.272 N 
ATOM     49  H10 UNL     1      -3.818   6.542   9.485  1.00  0.00     0.189 HD
BRANCH  48  50
HETATM   50  N11 UNL     1      -3.831   8.426  10.266  1.00  0.00    -0.342 N 
ATOM     51 2H11 UNL     1      -4.813   8.416  10.542  1.00  0.00     0.176 HD
ATOM     52 1H11 UNL     1      -3.347   9.322  10.208  1.00  0.00     0.176 HD
ENDBRANCH  48  50
ENDBRANCH  39  46
ENDBRANCH   5  39
BRANCH   6  53
HETATM   53  O7  UNL     1       1.165   5.577  11.061  1.00  0.00    -0.357 OA
ATOM     54  H7  UNL     1       0.893   6.424  11.392  1.00  0.00     0.217 HD
ENDBRANCH   6  53
TORSDOF 17
ENDMDL
MODEL 5
REMARK VINA RESULT: -8.899762589      1.828      2.208
REMARK  17 active torsions:
REMARK  status: ('A' for Active; 'I' for Inactive)
REMARK    1  A    between atoms: O1_2  and  C2_3 
REMARK    2  A    between atoms: C4_5  and  N1_6 
REMARK    3  A    between atoms: C5_11  and  C6_12 
REMARK    4  A    between atoms: C6_12  and  N4_13 
REMARK    5  A    between atoms: N4_13  and  C7_15 
REMARK    6  A    between atoms: C7_15  and  O2_16 
REMARK    7  A    between atoms: C7_15  and  C8_18 
REMARK    8  A    between atoms: C10_22  and  C11_23 
REMARK    9  A    between atoms: C11_23  and  N6_24 
REMARK   10  A    between atoms: N6_24  and  C12_26 
REMARK   11  A    between atoms: C16_33  and  N8_34 
REMARK   12  A    between atoms: C17_37  and  C18_38 
REMARK   13  A    between atoms: C18_38  and  N9_39 
REMARK   14  A    between atoms: C18_38  and  O5_43 
REMARK   15  A    between atoms: C18_38  and  C19_45 
REMARK       I    between atoms: C19_45  and  N10_47 
REMARK   16  A    between atoms: N10_47  and  N11_49 
REMARK   17  A    between atoms: C20_52  and  O7_53 
ROOT
HETATM    1  C2  UNL     1       2.398   7.175   4.450  1.00  0.00     0.104 A 
HETATM    2  C3  UNL     1       1.727   6.734   5.547  1.00  0.00     0.075 A 
HETATM    3  C4  UNL     1       1.080   5.509   5.579  1.00  0.00     0.113 A 
HETATM    4  C16 UNL     1       1.145   4.733   4.437  1.00  0.00     0.147 A 
HETATM    5  C17 UNL     1       1.804   5.111   3.279  1.00  0.00     0.085 A 
HETATM    6  C20 UNL     1       2.430   6.371   3.331  1.00  0.00     0.113 A 
ENDROOT
BRANCH   3   7
HETATM    7  N1  UNL     1       0.292   5.185   6.705  1.00  0.00    -0.178 N 
HETATM    8  N2  UNL     1       0.717   4.313   7.641  1.00  0.00    -0.219 N 
HETATM    9  N3  UNL     1      -0.121   4.233   8.629  1.00  0.00    -0.270 N 
ATOM     10  H2  UNL     1       1.587   3.783   7.580  1.00  0.00     0.210 HD
HETATM   11  C5  UNL     1      -1.155   5.089   8.353  1.00  0.00     0.131 A 
ATOM     12  H3  UNL     1      -0.028   3.643   9.456  1.00  0.00     0.190 HD
HETATM   13  N7  UNL     1      -0.852   5.627   7.182  1.00  0.00    -0.264 N 
ATOM     14  H7  UNL     1      -1.440   6.309   6.702  1.00  0.00     0.190 HD
BRANCH  11  15
HETATM   15  C6  UNL     1      -2.193   5.299   9.383  1.00  0.00     0.196 C 
BRANCH  15  16
HETATM   16  N4  UNL     1      -2.716   6.653   9.306  1.00  0.00    -0.386 N 
ATOM     17  H4  UNL     1      -3.589   6.874   8.827  1.00  0.00     0.156 HD
BRANCH  16  18
HETATM   18  C7  UNL     1      -1.929   7.644   9.945  1.00  0.00     0.256 C 
BRANCH  18  19
HETATM   19  O2  UNL     1      -2.711   8.238  10.975  1.00  0.00    -0.372 OA
ATOM     20  H2  UNL     1      -2.825   7.599  11.668  1.00  0.00     0.212 HD
ENDBRANCH  18  19
BRANCH  18  21
HETATM   21  C8  UNL     1      -0.626   7.298  10.486  1.00  0.00     0.047 A 
HETATM   22  C9  UNL     1       0.576   7.863  10.028  1.00  0.00     0.107 A 
HETATM   23  N5  UNL     1       1.649   7.536  10.643  1.00  0.00    -0.361 N 
HETATM   24  C10 UNL     1       1.632   6.704  11.667  1.00  0.00     0.068 A 
ATOM     25  H5  UNL     1       2.539   7.928  10.335  1.00  0.00     0.165 HD
HETATM   26  S1  UNL     1      -0.038   6.355  11.758  1.00  0.00    -0.074 SA
BRANCH  24  27
HETATM   27  C11 UNL     1       2.805   6.251  12.510  1.00  0.00     0.179 C 
BRANCH  27  28
HETATM   28  N6  UNL     1       2.375   5.061  13.144  1.00  0.00    -0.408 N 
ATOM     29  H6  UNL     1       1.604   5.084  13.812  1.00  0.00     0.154 HD
BRANCH  28  30
HETATM   30  C12 UNL     1       3.018   3.846  12.848  1.00  0.00     0.015 C 
HETATM   31  C13 UNL     1       3.023   2.816  13.955  1.00  0.00     0.037 C 
HETATM   32  C14 UNL     1       2.289   3.201  11.673  1.00  0.00     0.037 C 
HETATM   33  C15 UNL     1       4.442   4.121  12.364  1.00  0.00     0.037 C 
ENDBRANCH  28  30
ENDBRANCH  27  28
ENDBRANCH  24  27
ENDBRANCH  18  21
ENDBRANCH  16  18
ENDBRANCH  15  16
ENDBRANCH  11  15
ENDBRANCH   3   7
BRANCH   4  34
HETATM   34  N8  UNL     1       0.404   3.525   4.458  1.00  0.00    -0.112 N 
HETATM   35  O3  UNL     1       0.718   2.492   5.052  1.00  0.00    -0.532 OA
HETATM   36  O4  UNL     1      -0.798   3.503   3.741  1.00  0.00    -0.532 OA
ENDBRANCH   4  34
BRANCH   1  37
HETATM   37  O1  UNL     1       3.044   8.420   4.462  1.00  0.00    -0.353 OA
HETATM   38  C1  UNL     1       2.303   9.596   4.594  1.00  0.00     0.210 C 
ENDBRANCH   1  37
BRANCH   5  39
HETATM   39  C18 UNL     1       1.999   4.265   2.116  1.00  0.00     0.338 C 
BRANCH  39  40
HETATM   40  N9  UNL     1       3.369   4.075   1.705  1.00  0.00    -0.033 N 
ATOM     41  H93 UNL     1       3.913   4.914   1.906  1.00  0.00     0.279 HD
ATOM     42  H92 UNL     1       3.830   3.407   2.324  1.00  0.00     0.279 HD
ATOM     43  H91 UNL     1       3.504   3.797   0.732  1.00  0.00     0.279 HD
ENDBRANCH  39  40
BRANCH  39  44
HETATM   44  O5  UNL     1       1.790   2.864   2.641  1.00  0.00    -0.354 OA
ATOM     45  H5  UNL     1       2.218   2.310   1.999  1.00  0.00     0.213 HD
ENDBRANCH  39  44
BRANCH  39  46
HETATM   46  C19 UNL     1       1.060   4.284   1.024  1.00  0.00     0.304 C 
HETATM   47  O6  UNL     1       0.149   4.996   0.783  1.00  0.00    -0.266 OA
HETATM   48  N10 UNL     1       1.261   3.195   0.000  1.00  0.00    -0.272 N 
ATOM     49  H10 UNL     1       2.035   2.546   0.145  1.00  0.00     0.189 HD
BRANCH  48  50
HETATM   50  N11 UNL     1       0.489   3.018  -1.098  1.00  0.00    -0.342 N 
ATOM     51 2H11 UNL     1      -0.468   3.368  -1.045  1.00  0.00     0.176 HD
ATOM     52 1H11 UNL     1       0.797   2.565  -1.959  1.00  0.00     0.176 HD
ENDBRANCH  48  50
ENDBRANCH  39  46
ENDBRANCH   5  39
BRANCH   6  53
HETATM   53  O7  UNL     1       3.121   6.877   2.263  1.00  0.00    -0.357 OA
ATOM     54  H7  UNL     1       3.840   6.340   1.951  1.00  0.00     0.217 HD
ENDBRANCH   6  53
TORSDOF 17
ENDMDL
