MODEL 1
REMARK VINA RESULT: -10.068769731      0.000      0.000
REMARK  17 active torsions:
REMARK  status: ('A' for Active; 'I' for Inactive)
REMARK    1  A    between atoms: C3_4  and  C4_5 
REMARK    2  A    between atoms: N2_7  and  C6_8 
REMARK    3  A    between atoms: C7_12  and  C8_13 
REMARK    4  A    between atoms: C8_13  and  N5_14 
REMARK    5  A    between atoms: C8_13  and  C15_29 
REMARK    6  A    between atoms: N5_14  and  C9_16 
REMARK    7  A    between atoms: C9_16  and  C10_17 
REMARK    8  A    between atoms: C10_17  and  C11_18 
REMARK    9  A    between atoms: C11_18  and  N6_19 
REMARK   10  A    between atoms: C12_21  and  C13_22 
REMARK   11  A    between atoms: C13_22  and  N7_23 
REMARK   12  A    between atoms: N7_23  and  C14_26 
REMARK   13  A    between atoms: C14_26  and  O1_27 
REMARK   14  A    between atoms: C15_29  and  O2_30 
REMARK   15  A    between atoms: N8_32  and  O3_34 
REMARK   16  A    between atoms: C19_44  and  N11_45 
REMARK   17  A    between atoms: C21_49  and  N12_50 
ROOT
HETATM    1  C4  UNL     1       1.130   4.664   4.096  1.00  0.00     0.026 A 
HETATM    2  C5  UNL     1       0.296   4.103   5.081  1.00  0.00     0.116 A 
HETATM    3  N2  UNL     1       0.345   4.798   6.235  1.00  0.00    -0.282 N 
HETATM    4  C16 UNL     1       1.208   5.792   5.993  1.00  0.00     0.101 A 
HETATM    5  C17 UNL     1       1.419   6.744   6.922  1.00  0.00     0.136 C 
HETATM    6  N9  UNL     1       2.626   7.520   6.934  1.00  0.00    -0.324 N 
ATOM      7  H9  UNL     1       3.436   7.488   7.552  1.00  0.00     0.169 HD
HETATM    8  C18 UNL     1       2.334   8.359   5.795  1.00  0.00     0.153 C 
HETATM    9  N10 UNL     1       2.723   8.038   4.576  1.00  0.00    -0.325 N 
ATOM     10  H10 UNL     1       3.085   8.753   3.945  1.00  0.00     0.169 HD
HETATM   11  C19 UNL     1       2.627   6.655   4.143  1.00  0.00     0.114 C 
HETATM   12  C20 UNL     1       1.719   5.731   4.657  1.00  0.00     0.053 A 
HETATM   13  C21 UNL     1       1.401   9.427   5.920  1.00  0.00     0.145 C 
HETATM   14  N13 UNL     1       0.294   9.504   6.906  1.00  0.00    -0.336 N 
ATOM     15  H13 UNL     1      -0.151  10.410   7.055  1.00  0.00     0.168 HD
HETATM   16  C22 UNL     1      -0.193   8.380   7.667  1.00  0.00     0.183 C 
HETATM   17  N14 UNL     1       0.309   7.098   7.689  1.00  0.00    -0.337 N 
ATOM     18  H14 UNL     1      -0.138   6.395   8.277  1.00  0.00     0.168 HD
ENDROOT
BRANCH   3  19
HETATM   19  C6  UNL     1      -0.358   4.645   7.462  1.00  0.00     0.244 C 
HETATM   20  N3  UNL     1       0.097   4.085   8.529  1.00  0.00    -0.266 N 
HETATM   21  N4  UNL     1      -0.906   4.133   9.532  1.00  0.00    -0.103 NA
ATOM     22  H3  UNL     1       1.024   3.674   8.635  1.00  0.00     0.186 HD
HETATM   23  C7  UNL     1      -1.808   5.146   9.145  1.00  0.00     0.275 C 
HETATM   24  O4  UNL     1      -1.645   5.084   7.700  1.00  0.00    -0.294 OA
BRANCH  23  25
HETATM   25  C8  UNL     1      -1.543   6.544   9.554  1.00  0.00     0.201 C 
BRANCH  25  26
HETATM   26  N5  UNL     1      -0.984   6.780  10.829  1.00  0.00    -0.407 N 
ATOM     27  H5  UNL     1      -1.570   6.761  11.665  1.00  0.00     0.154 HD
BRANCH  26  28
HETATM   28  C9  UNL     1       0.401   7.044  10.927  1.00  0.00     0.116 C 
BRANCH  28  29
HETATM   29  C10 UNL     1       0.952   6.835  12.328  1.00  0.00     0.039 C 
BRANCH  29  30
HETATM   30  C11 UNL     1       1.909   5.644  12.340  1.00  0.00     0.120 C 
BRANCH  30  31
HETATM   31  N6  UNL     1       1.236   4.479  11.871  1.00  0.00    -0.401 N 
HETATM   32  C12 UNL     1       1.813   3.382  11.598  1.00  0.00     0.082 C 
ATOM     33  H6  UNL     1       0.224   4.530  11.747  1.00  0.00     0.158 HD
BRANCH  32  34
HETATM   34  C13 UNL     1       3.280   3.208  11.745  1.00  0.00     0.278 C 
BRANCH  34  35
HETATM   35  N7  UNL     1       3.527   2.071  12.636  1.00  0.00    -0.050 N 
ATOM     36  H72 UNL     1       2.949   1.259  12.419  1.00  0.00     0.280 HD
ATOM     37  H71 UNL     1       4.434   1.630  12.483  1.00  0.00     0.280 HD
BRANCH  35  38
HETATM   38  C14 UNL     1       3.348   2.554  14.001  1.00  0.00     0.396 C 
BRANCH  38  39
HETATM   39  O1  UNL     1       2.564   1.662  14.746  1.00  0.00    -0.375 OA
ATOM     40  H1  UNL     1       2.397   2.005  15.616  1.00  0.00     0.211 HD
ENDBRANCH  38  39
ENDBRANCH  35  38
ENDBRANCH  34  35
ENDBRANCH  32  34
ENDBRANCH  30  31
ENDBRANCH  29  30
ENDBRANCH  28  29
ENDBRANCH  26  28
ENDBRANCH  25  26
BRANCH  25  41
HETATM   41  C15 UNL     1      -2.825   7.296   9.374  1.00  0.00     0.162 C 
HETATM   42  N8  UNL     1      -3.334   7.900  10.370  1.00  0.00    -0.249 N 
ATOM     43  H8  UNL     1      -2.845   7.849  11.264  1.00  0.00     0.196 HD
BRANCH  41  44
HETATM   44  O2  UNL     1      -3.427   7.323   8.146  1.00  0.00    -0.346 OA
ATOM     45  H2  UNL     1      -4.375   7.292   8.087  1.00  0.00     0.219 HD
ENDBRANCH  41  44
BRANCH  42  46
HETATM   46  O3  UNL     1      -4.508   8.620  10.311  1.00  0.00    -0.288 OA
ATOM     47  H3  UNL     1      -4.908   9.040  11.064  1.00  0.00     0.244 HD
ENDBRANCH  42  46
ENDBRANCH  25  41
ENDBRANCH  23  25
ENDBRANCH   3  19
BRANCH   1  48
HETATM   48  C3  UNL     1       1.286   4.141   2.741  1.00  0.00     0.079 A 
HETATM   49  C2  UNL     1       0.537   4.346   1.592  1.00  0.00     0.143 A 
HETATM   50  N1  UNL     1       0.971   3.538   0.610  1.00  0.00    -0.291 N 
HETATM   51  C1  UNL     1       0.423   3.477  -0.735  1.00  0.00     0.178 C 
HETATM   52  N16 UNL     1       1.951   2.855   1.119  1.00  0.00    -0.241 N 
HETATM   53  N15 UNL     1       2.177   3.172   2.373  1.00  0.00    -0.284 N 
ATOM     54  H16 UNL     1       2.484   2.154   0.605  1.00  0.00     0.208 HD
ATOM     55  H15 UNL     1       2.895   2.763   2.971  1.00  0.00     0.188 HD
ENDBRANCH   1  48
BRANCH  11  56
HETATM   56  N11 UNL     1       3.409   6.283   3.279  1.00  0.00    -0.385 N 
ATOM     57 2H11 UNL     1       3.476   6.828   2.419  1.00  0.00     0.157 HD
ATOM     58 1H11 UNL     1       3.945   5.435   3.467  1.00  0.00     0.157 HD
ENDBRANCH  11  56
BRANCH  13  59
HETATM   59  N12 UNL     1       1.553  10.320   5.037  1.00  0.00    -0.382 N 
ATOM     60 2H12 UNL     1       2.424  10.399   4.512  1.00  0.00     0.157 HD
ATOM     61 1H12 UNL     1       0.753  10.949   4.965  1.00  0.00     0.157 HD
ENDBRANCH  13  59
TORSDOF 17
ENDMDL
MODEL 2
REMARK VINA RESULT: -9.925332319      2.012      2.945
REMARK  17 active torsions:
REMARK  status: ('A' for Active; 'I' for Inactive)
REMARK    1  A    between atoms: C3_4  and  C4_5 
REMARK    2  A    between atoms: N2_7  and  C6_8 
REMARK    3  A    between atoms: C7_12  and  C8_13 
REMARK    4  A    between atoms: C8_13  and  N5_14 
REMARK    5  A    between atoms: C8_13  and  C15_29 
REMARK    6  A    between atoms: N5_14  and  C9_16 
REMARK    7  A    between atoms: C9_16  and  C10_17 
REMARK    8  A    between atoms: C10_17  and  C11_18 
REMARK    9  A    between atoms: C11_18  and  N6_19 
REMARK   10  A    between atoms: C12_21  and  C13_22 
REMARK   11  A    between atoms: C13_22  and  N7_23 
REMARK   12  A    between atoms: N7_23  and  C14_26 
REMARK   13  A    between atoms: C14_26  and  O1_27 
REMARK   14  A    between atoms: C15_29  and  O2_30 
REMARK   15  A    between atoms: N8_32  and  O3_34 
REMARK   16  A    between atoms: C19_44  and  N11_45 
REMARK   17  A    between atoms: C21_49  and  N12_50 
ROOT
HETATM    1  C4  UNL     1       0.995   5.003   4.660  1.00  0.00     0.026 A 
HETATM    2  C5  UNL     1       0.077   4.860   5.716  1.00  0.00     0.116 A 
HETATM    3  N2  UNL     1       0.197   5.850   6.624  1.00  0.00    -0.282 N 
HETATM    4  C16 UNL     1       1.189   6.618   6.155  1.00  0.00     0.101 A 
HETATM    5  C17 UNL     1       1.507   7.766   6.781  1.00  0.00     0.136 C 
HETATM    6  N9  UNL     1       2.806   8.359   6.637  1.00  0.00    -0.324 N 
ATOM      7  H9  UNL     1       3.593   8.411   7.283  1.00  0.00     0.169 HD
HETATM    8  C18 UNL     1       2.647   8.858   5.291  1.00  0.00     0.153 C 
HETATM    9  N10 UNL     1       3.012   8.152   4.239  1.00  0.00    -0.325 N 
ATOM     10  H10 UNL     1       3.477   8.602   3.451  1.00  0.00     0.169 HD
HETATM   11  C19 UNL     1       2.742   6.725   4.217  1.00  0.00     0.114 C 
HETATM   12  C20 UNL     1       1.711   6.108   4.923  1.00  0.00     0.053 A 
HETATM   13  C21 UNL     1       1.862  10.021   5.053  1.00  0.00     0.145 C 
HETATM   14  N13 UNL     1       0.757  10.516   5.913  1.00  0.00    -0.336 N 
ATOM     15  H13 UNL     1       0.434  11.474   5.770  1.00  0.00     0.168 HD
HETATM   16  C22 UNL     1       0.113   9.732   6.936  1.00  0.00     0.183 C 
HETATM   17  N14 UNL     1       0.441   8.461   7.352  1.00  0.00    -0.337 N 
ATOM     18  H14 UNL     1      -0.106   8.020   8.092  1.00  0.00     0.168 HD
ENDROOT
BRANCH   3  19
HETATM   19  C6  UNL     1      -0.542   6.149   7.801  1.00  0.00     0.244 C 
HETATM   20  N3  UNL     1      -1.794   6.447   7.852  1.00  0.00    -0.266 N 
HETATM   21  N4  UNL     1      -2.154   6.674   9.206  1.00  0.00    -0.103 NA
ATOM     22  H3  UNL     1      -2.423   6.509   7.051  1.00  0.00     0.186 HD
HETATM   23  C7  UNL     1      -1.159   6.057   9.992  1.00  0.00     0.275 C 
HETATM   24  O4  UNL     1      -0.028   6.158   9.082  1.00  0.00    -0.294 OA
BRANCH  23  25
HETATM   25  C8  UNL     1      -1.304   4.627  10.349  1.00  0.00     0.201 C 
BRANCH  25  26
HETATM   26  N5  UNL     1      -0.313   3.719   9.920  1.00  0.00    -0.407 N 
ATOM     27  H5  UNL     1      -0.289   3.395   8.953  1.00  0.00     0.154 HD
BRANCH  26  28
HETATM   28  C9  UNL     1       0.647   3.268  10.854  1.00  0.00     0.116 C 
BRANCH  28  29
HETATM   29  C10 UNL     1       2.003   3.936  10.689  1.00  0.00     0.039 C 
BRANCH  29  30
HETATM   30  C11 UNL     1       2.471   4.503  12.028  1.00  0.00     0.120 C 
BRANCH  30  31
HETATM   31  N6  UNL     1       1.449   5.320  12.590  1.00  0.00    -0.401 N 
HETATM   32  C12 UNL     1       1.428   6.588  12.520  1.00  0.00     0.082 C 
ATOM     33  H6  UNL     1       0.684   4.857  13.082  1.00  0.00     0.158 HD
BRANCH  32  34
HETATM   34  C13 UNL     1       2.495   7.354  11.827  1.00  0.00     0.278 C 
BRANCH  34  35
HETATM   35  N7  UNL     1       1.988   7.778  10.519  1.00  0.00    -0.050 N 
ATOM     36  H72 UNL     1       2.708   7.794   9.796  1.00  0.00     0.280 HD
ATOM     37  H71 UNL     1       1.379   7.087  10.082  1.00  0.00     0.280 HD
BRANCH  35  38
HETATM   38  C14 UNL     1       1.342   9.071  10.712  1.00  0.00     0.396 C 
BRANCH  38  39
HETATM   39  O1  UNL     1       0.010   9.032  10.277  1.00  0.00    -0.375 OA
ATOM     40  H1  UNL     1      -0.216   9.827   9.808  1.00  0.00     0.211 HD
ENDBRANCH  38  39
ENDBRANCH  35  38
ENDBRANCH  34  35
ENDBRANCH  32  34
ENDBRANCH  30  31
ENDBRANCH  29  30
ENDBRANCH  28  29
ENDBRANCH  26  28
ENDBRANCH  25  26
BRANCH  25  41
HETATM   41  C15 UNL     1      -2.665   4.205   9.890  1.00  0.00     0.162 C 
HETATM   42  N8  UNL     1      -3.597   4.083  10.746  1.00  0.00    -0.249 N 
ATOM     43  H8  UNL     1      -3.381   4.280  11.723  1.00  0.00     0.196 HD
BRANCH  41  44
HETATM   44  O2  UNL     1      -2.886   3.957   8.563  1.00  0.00    -0.346 OA
ATOM     45  H2  UNL     1      -3.658   3.470   8.298  1.00  0.00     0.219 HD
ENDBRANCH  41  44
BRANCH  42  46
HETATM   46  O3  UNL     1      -4.883   3.701  10.430  1.00  0.00    -0.288 OA
ATOM     47  H3  UNL     1      -5.578   3.602  11.070  1.00  0.00     0.244 HD
ENDBRANCH  42  46
ENDBRANCH  25  41
ENDBRANCH  23  25
ENDBRANCH   3  19
BRANCH   1  48
HETATM   48  C3  UNL     1       1.105   4.093   3.523  1.00  0.00     0.079 A 
HETATM   49  C2  UNL     1       0.972   4.315   2.160  1.00  0.00     0.143 A 
HETATM   50  N1  UNL     1       1.010   3.146   1.498  1.00  0.00    -0.291 N 
HETATM   51  C1  UNL     1       0.900   2.990   0.057  1.00  0.00     0.178 C 
HETATM   52  N16 UNL     1       1.161   2.230   2.405  1.00  0.00    -0.241 N 
HETATM   53  N15 UNL     1       1.222   2.735   3.616  1.00  0.00    -0.284 N 
ATOM     54  H16 UNL     1       1.225   1.232   2.201  1.00  0.00     0.208 HD
ATOM     55  H15 UNL     1       1.337   2.203   4.478  1.00  0.00     0.188 HD
ENDBRANCH   1  48
BRANCH  11  56
HETATM   56  N11 UNL     1       3.483   6.024   3.540  1.00  0.00    -0.385 N 
ATOM     57 2H11 UNL     1       4.452   6.319   3.420  1.00  0.00     0.157 HD
ATOM     58 1H11 UNL     1       3.080   5.184   3.124  1.00  0.00     0.157 HD
ENDBRANCH  11  56
BRANCH  13  59
HETATM   59  N12 UNL     1       2.147  10.592   3.960  1.00  0.00    -0.382 N 
ATOM     60 2H12 UNL     1       2.490  10.060   3.161  1.00  0.00     0.157 HD
ATOM     61 1H12 UNL     1       2.046  11.607   4.004  1.00  0.00     0.157 HD
ENDBRANCH  13  59
TORSDOF 17
ENDMDL
MODEL 3
REMARK VINA RESULT: -9.788238561      1.737      2.124
REMARK  17 active torsions:
REMARK  status: ('A' for Active; 'I' for Inactive)
REMARK    1  A    between atoms: C3_4  and  C4_5 
REMARK    2  A    between atoms: N2_7  and  C6_8 
REMARK    3  A    between atoms: C7_12  and  C8_13 
REMARK    4  A    between atoms: C8_13  and  N5_14 
REMARK    5  A    between atoms: C8_13  and  C15_29 
REMARK    6  A    between atoms: N5_14  and  C9_16 
REMARK    7  A    between atoms: C9_16  and  C10_17 
REMARK    8  A    between atoms: C10_17  and  C11_18 
REMARK    9  A    between atoms: C11_18  and  N6_19 
REMARK   10  A    between atoms: C12_21  and  C13_22 
REMARK   11  A    between atoms: C13_22  and  N7_23 
REMARK   12  A    between atoms: N7_23  and  C14_26 
REMARK   13  A    between atoms: C14_26  and  O1_27 
REMARK   14  A    between atoms: C15_29  and  O2_30 
REMARK   15  A    between atoms: N8_32  and  O3_34 
REMARK   16  A    between atoms: C19_44  and  N11_45 
REMARK   17  A    between atoms: C21_49  and  N12_50 
ROOT
HETATM    1  C4  UNL     1       1.192   4.691   4.156  1.00  0.00     0.026 A 
HETATM    2  C5  UNL     1       0.390   4.130   5.166  1.00  0.00     0.116 A 
HETATM    3  N2  UNL     1       0.447   4.844   6.308  1.00  0.00    -0.282 N 
HETATM    4  C16 UNL     1       1.285   5.852   6.033  1.00  0.00     0.101 A 
HETATM    5  C17 UNL     1       1.494   6.823   6.941  1.00  0.00     0.136 C 
HETATM    6  N9  UNL     1       2.684   7.624   6.916  1.00  0.00    -0.324 N 
ATOM      7  H9  UNL     1       3.507   7.619   7.519  1.00  0.00     0.169 HD
HETATM    8  C18 UNL     1       2.352   8.437   5.770  1.00  0.00     0.153 C 
HETATM    9  N10 UNL     1       2.723   8.105   4.549  1.00  0.00    -0.325 N 
ATOM     10  H10 UNL     1       3.058   8.817   3.899  1.00  0.00     0.169 HD
HETATM   11  C19 UNL     1       2.648   6.713   4.141  1.00  0.00     0.114 C 
HETATM   12  C20 UNL     1       1.770   5.779   4.688  1.00  0.00     0.053 A 
HETATM   13  C21 UNL     1       1.399   9.488   5.897  1.00  0.00     0.145 C 
HETATM   14  N13 UNL     1       0.311   9.558   6.904  1.00  0.00    -0.336 N 
ATOM     15  H13 UNL     1      -0.150  10.457   7.047  1.00  0.00     0.168 HD
HETATM   16  C22 UNL     1      -0.137   8.438   7.693  1.00  0.00     0.183 C 
HETATM   17  N14 UNL     1       0.393   7.167   7.726  1.00  0.00    -0.337 N 
ATOM     18  H14 UNL     1      -0.028   6.464   8.334  1.00  0.00     0.168 HD
ENDROOT
BRANCH   3  19
HETATM   19  C6  UNL     1      -0.228   4.697   7.551  1.00  0.00     0.244 C 
HETATM   20  N3  UNL     1       0.267   4.182   8.623  1.00  0.00    -0.266 N 
HETATM   21  N4  UNL     1      -0.719   4.219   9.643  1.00  0.00    -0.103 NA
ATOM     22  H3  UNL     1       1.211   3.809   8.722  1.00  0.00     0.186 HD
HETATM   23  C7  UNL     1      -1.665   5.187   9.248  1.00  0.00     0.275 C 
HETATM   24  O4  UNL     1      -1.526   5.094   7.802  1.00  0.00    -0.294 OA
BRANCH  23  25
HETATM   25  C8  UNL     1      -1.446   6.604   9.617  1.00  0.00     0.201 C 
BRANCH  25  26
HETATM   26  N5  UNL     1      -0.889   6.895  10.881  1.00  0.00    -0.407 N 
ATOM     27  H5  UNL     1      -1.365   6.606  11.737  1.00  0.00     0.154 HD
BRANCH  26  28
HETATM   28  C9  UNL     1       0.338   7.593  10.941  1.00  0.00     0.116 C 
BRANCH  28  29
HETATM   29  C10 UNL     1       1.534   6.682  11.167  1.00  0.00     0.039 C 
BRANCH  29  30
HETATM   30  C11 UNL     1       1.242   5.712  12.310  1.00  0.00     0.120 C 
BRANCH  30  31
HETATM   31  N6  UNL     1       2.386   5.597  13.150  1.00  0.00    -0.401 N 
HETATM   32  C12 UNL     1       2.575   6.288  14.198  1.00  0.00     0.082 C 
ATOM     33  H6  UNL     1       3.100   4.914  12.893  1.00  0.00     0.158 HD
BRANCH  32  34
HETATM   34  C13 UNL     1       1.595   7.307  14.654  1.00  0.00     0.278 C 
BRANCH  34  35
HETATM   35  N7  UNL     1       1.578   7.311  16.120  1.00  0.00    -0.050 N 
ATOM     36  H72 UNL     1       0.798   7.842  16.510  1.00  0.00     0.280 HD
ATOM     37  H71 UNL     1       1.333   6.406  16.520  1.00  0.00     0.280 HD
BRANCH  35  38
HETATM   38  C14 UNL     1       2.880   7.799  16.560  1.00  0.00     0.396 C 
BRANCH  38  39
HETATM   39  O1  UNL     1       2.843   9.181  16.788  1.00  0.00    -0.375 OA
ATOM     40  H1  UNL     1       2.077   9.570  16.382  1.00  0.00     0.211 HD
ENDBRANCH  38  39
ENDBRANCH  35  38
ENDBRANCH  34  35
ENDBRANCH  32  34
ENDBRANCH  30  31
ENDBRANCH  29  30
ENDBRANCH  28  29
ENDBRANCH  26  28
ENDBRANCH  25  26
BRANCH  25  41
HETATM   41  C15 UNL     1      -2.753   7.307   9.423  1.00  0.00     0.162 C 
HETATM   42  N8  UNL     1      -3.283   7.912  10.407  1.00  0.00    -0.249 N 
ATOM     43  H8  UNL     1      -2.793   7.896  11.302  1.00  0.00     0.196 HD
BRANCH  41  44
HETATM   44  O2  UNL     1      -3.357   7.289   8.195  1.00  0.00    -0.346 OA
ATOM     45  H2  UNL     1      -4.283   7.487   8.124  1.00  0.00     0.219 HD
ENDBRANCH  41  44
BRANCH  42  46
HETATM   46  O3  UNL     1      -4.482   8.589  10.336  1.00  0.00    -0.288 OA
ATOM     47  H3  UNL     1      -4.674   9.378  10.830  1.00  0.00     0.244 HD
ENDBRANCH  42  46
ENDBRANCH  25  41
ENDBRANCH  23  25
ENDBRANCH   3  19
BRANCH   1  48
HETATM   48  C3  UNL     1       1.332   4.149   2.807  1.00  0.00     0.079 A 
HETATM   49  C2  UNL     1       0.566   4.334   1.665  1.00  0.00     0.143 A 
HETATM   50  N1  UNL     1       0.991   3.514   0.689  1.00  0.00    -0.291 N 
HETATM   51  C1  UNL     1       0.425   3.430  -0.647  1.00  0.00     0.178 C 
HETATM   52  N16 UNL     1       1.980   2.842   1.195  1.00  0.00    -0.241 N 
HETATM   53  N15 UNL     1       2.222   3.178   2.441  1.00  0.00    -0.284 N 
ATOM     54  H16 UNL     1       2.509   2.136   0.684  1.00  0.00     0.208 HD
ATOM     55  H15 UNL     1       2.950   2.781   3.035  1.00  0.00     0.188 HD
ENDBRANCH   1  48
BRANCH  11  56
HETATM   56  N11 UNL     1       3.420   6.343   3.266  1.00  0.00    -0.385 N 
ATOM     57 2H11 UNL     1       3.051   5.778   2.501  1.00  0.00     0.157 HD
ATOM     58 1H11 UNL     1       4.399   6.614   3.361  1.00  0.00     0.157 HD
ENDBRANCH  11  56
BRANCH  13  59
HETATM   59  N12 UNL     1       1.515  10.369   4.997  1.00  0.00    -0.382 N 
ATOM     60 2H12 UNL     1       2.291  11.031   5.003  1.00  0.00     0.157 HD
ATOM     61 1H12 UNL     1       0.739  10.364   4.334  1.00  0.00     0.157 HD
ENDBRANCH  13  59
TORSDOF 17
ENDMDL
MODEL 4
REMARK VINA RESULT: -9.753865202      2.128      2.790
REMARK  17 active torsions:
REMARK  status: ('A' for Active; 'I' for Inactive)
REMARK    1  A    between atoms: C3_4  and  C4_5 
REMARK    2  A    between atoms: N2_7  and  C6_8 
REMARK    3  A    between atoms: C7_12  and  C8_13 
REMARK    4  A    between atoms: C8_13  and  N5_14 
REMARK    5  A    between atoms: C8_13  and  C15_29 
REMARK    6  A    between atoms: N5_14  and  C9_16 
REMARK    7  A    between atoms: C9_16  and  C10_17 
REMARK    8  A    between atoms: C10_17  and  C11_18 
REMARK    9  A    between atoms: C11_18  and  N6_19 
REMARK   10  A    between atoms: C12_21  and  C13_22 
REMARK   11  A    between atoms: C13_22  and  N7_23 
REMARK   12  A    between atoms: N7_23  and  C14_26 
REMARK   13  A    between atoms: C14_26  and  O1_27 
REMARK   14  A    between atoms: C15_29  and  O2_30 
REMARK   15  A    between atoms: N8_32  and  O3_34 
REMARK   16  A    between atoms: C19_44  and  N11_45 
REMARK   17  A    between atoms: C21_49  and  N12_50 
ROOT
HETATM    1  C4  UNL     1       1.050   5.040   4.646  1.00  0.00     0.026 A 
HETATM    2  C5  UNL     1       0.140   4.896   5.709  1.00  0.00     0.116 A 
HETATM    3  N2  UNL     1       0.269   5.883   6.618  1.00  0.00    -0.282 N 
HETATM    4  C16 UNL     1       1.259   6.649   6.144  1.00  0.00     0.101 A 
HETATM    5  C17 UNL     1       1.584   7.795   6.771  1.00  0.00     0.136 C 
HETATM    6  N9  UNL     1       2.883   8.386   6.619  1.00  0.00    -0.324 N 
ATOM      7  H9  UNL     1       3.676   8.435   7.259  1.00  0.00     0.169 HD
HETATM    8  C18 UNL     1       2.715   8.890   5.276  1.00  0.00     0.153 C 
HETATM    9  N10 UNL     1       3.070   8.185   4.219  1.00  0.00    -0.325 N 
ATOM     10  H10 UNL     1       3.530   8.637   3.428  1.00  0.00     0.169 HD
HETATM   11  C19 UNL     1       2.797   6.759   4.195  1.00  0.00     0.114 C 
HETATM   12  C20 UNL     1       1.770   6.143   4.906  1.00  0.00     0.053 A 
HETATM   13  C21 UNL     1       1.930  10.055   5.047  1.00  0.00     0.145 C 
HETATM   14  N13 UNL     1       0.833  10.550   5.916  1.00  0.00    -0.336 N 
ATOM     15  H13 UNL     1       0.511  11.508   5.779  1.00  0.00     0.168 HD
HETATM   16  C22 UNL     1       0.195   9.764   6.942  1.00  0.00     0.183 C 
HETATM   17  N14 UNL     1       0.523   8.491   7.353  1.00  0.00    -0.337 N 
ATOM     18  H14 UNL     1      -0.018   8.049   8.095  1.00  0.00     0.168 HD
ENDROOT
BRANCH   3  19
HETATM   19  C6  UNL     1      -0.460   6.179   7.802  1.00  0.00     0.244 C 
HETATM   20  N3  UNL     1      -1.711   6.484   7.863  1.00  0.00    -0.266 N 
HETATM   21  N4  UNL     1      -2.060   6.706   9.220  1.00  0.00    -0.103 NA
ATOM     22  H3  UNL     1      -2.345   6.553   7.067  1.00  0.00     0.186 HD
HETATM   23  C7  UNL     1      -1.063   6.080   9.996  1.00  0.00     0.275 C 
HETATM   24  O4  UNL     1       0.063   6.180   9.079  1.00  0.00    -0.294 OA
BRANCH  23  25
HETATM   25  C8  UNL     1      -1.214   4.650  10.348  1.00  0.00     0.201 C 
BRANCH  25  26
HETATM   26  N5  UNL     1      -0.222   3.741   9.920  1.00  0.00    -0.407 N 
ATOM     27  H5  UNL     1      -0.180   3.438   8.946  1.00  0.00     0.154 HD
BRANCH  26  28
HETATM   28  C9  UNL     1       0.712   3.258  10.865  1.00  0.00     0.116 C 
BRANCH  28  29
HETATM   29  C10 UNL     1       1.999   4.067  10.900  1.00  0.00     0.039 C 
BRANCH  29  30
HETATM   30  C11 UNL     1       2.141   4.762  12.253  1.00  0.00     0.120 C 
BRANCH  30  31
HETATM   31  N6  UNL     1       1.623   6.086  12.172  1.00  0.00    -0.401 N 
HETATM   32  C12 UNL     1       1.522   6.875  13.161  1.00  0.00     0.082 C 
ATOM     33  H6  UNL     1       1.312   6.422  11.259  1.00  0.00     0.158 HD
BRANCH  32  34
HETATM   34  C13 UNL     1       1.944   6.480  14.528  1.00  0.00     0.278 C 
BRANCH  34  35
HETATM   35  N7  UNL     1       1.587   7.557  15.455  1.00  0.00    -0.050 N 
ATOM     36  H72 UNL     1       1.233   8.390  14.985  1.00  0.00     0.280 HD
ATOM     37  H71 UNL     1       0.753   7.353  16.005  1.00  0.00     0.280 HD
BRANCH  35  38
HETATM   38  C14 UNL     1       2.764   7.819  16.277  1.00  0.00     0.396 C 
BRANCH  38  39
HETATM   39  O1  UNL     1       2.713   9.109  16.822  1.00  0.00    -0.375 OA
ATOM     40  H1  UNL     1       2.539   9.075  17.756  1.00  0.00     0.211 HD
ENDBRANCH  38  39
ENDBRANCH  35  38
ENDBRANCH  34  35
ENDBRANCH  32  34
ENDBRANCH  30  31
ENDBRANCH  29  30
ENDBRANCH  28  29
ENDBRANCH  26  28
ENDBRANCH  25  26
BRANCH  25  41
HETATM   41  C15 UNL     1      -2.573   4.232   9.880  1.00  0.00     0.162 C 
HETATM   42  N8  UNL     1      -3.510   4.110  10.731  1.00  0.00    -0.249 N 
ATOM     43  H8  UNL     1      -3.299   4.304  11.710  1.00  0.00     0.196 HD
BRANCH  41  44
HETATM   44  O2  UNL     1      -2.787   3.988   8.552  1.00  0.00    -0.346 OA
ATOM     45  H2  UNL     1      -2.046   3.921   7.961  1.00  0.00     0.219 HD
ENDBRANCH  41  44
BRANCH  42  46
HETATM   46  O3  UNL     1      -4.795   3.732  10.406  1.00  0.00    -0.288 OA
ATOM     47  H3  UNL     1      -5.567   4.027  10.876  1.00  0.00     0.244 HD
ENDBRANCH  42  46
ENDBRANCH  25  41
ENDBRANCH  23  25
ENDBRANCH   3  19
BRANCH   1  48
HETATM   48  C3  UNL     1       1.149   4.133   3.506  1.00  0.00     0.079 A 
HETATM   49  C2  UNL     1       0.987   4.355   2.146  1.00  0.00     0.143 A 
HETATM   50  N1  UNL     1       1.027   3.188   1.481  1.00  0.00    -0.291 N 
HETATM   51  C1  UNL     1       0.892   3.032   0.042  1.00  0.00     0.178 C 
HETATM   52  N16 UNL     1       1.207   2.272   2.384  1.00  0.00    -0.241 N 
HETATM   53  N15 UNL     1       1.285   2.776   3.594  1.00  0.00    -0.284 N 
ATOM     54  H16 UNL     1       1.280   1.276   2.177  1.00  0.00     0.208 HD
ATOM     55  H15 UNL     1       1.424   2.244   4.453  1.00  0.00     0.188 HD
ENDBRANCH   1  48
BRANCH  11  56
HETATM   56  N11 UNL     1       3.531   6.059   3.510  1.00  0.00    -0.385 N 
ATOM     57 2H11 UNL     1       3.409   5.046   3.547  1.00  0.00     0.157 HD
ATOM     58 1H11 UNL     1       4.236   6.533   2.946  1.00  0.00     0.157 HD
ENDBRANCH  11  56
BRANCH  13  59
HETATM   59  N12 UNL     1       2.208  10.629   3.954  1.00  0.00    -0.382 N 
ATOM     60 2H12 UNL     1       3.092  10.454   3.476  1.00  0.00     0.157 HD
ATOM     61 1H12 UNL     1       1.493  11.295   3.661  1.00  0.00     0.157 HD
ENDBRANCH  13  59
TORSDOF 17
ENDMDL
MODEL 5
REMARK VINA RESULT: -9.748659519      1.384      1.559
REMARK  17 active torsions:
REMARK  status: ('A' for Active; 'I' for Inactive)
REMARK    1  A    between atoms: C3_4  and  C4_5 
REMARK    2  A    between atoms: N2_7  and  C6_8 
REMARK    3  A    between atoms: C7_12  and  C8_13 
REMARK    4  A    between atoms: C8_13  and  N5_14 
REMARK    5  A    between atoms: C8_13  and  C15_29 
REMARK    6  A    between atoms: N5_14  and  C9_16 
REMARK    7  A    between atoms: C9_16  and  C10_17 
REMARK    8  A    between atoms: C10_17  and  C11_18 
REMARK    9  A    between atoms: C11_18  and  N6_19 
REMARK   10  A    between atoms: C12_21  and  C13_22 
REMARK   11  A    between atoms: C13_22  and  N7_23 
REMARK   12  A    between atoms: N7_23  and  C14_26 
REMARK   13  A    between atoms: C14_26  and  O1_27 
REMARK   14  A    between atoms: C15_29  and  O2_30 
REMARK   15  A    between atoms: N8_32  and  O3_34 
REMARK   16  A    between atoms: C19_44  and  N11_45 
REMARK   17  A    between atoms: C21_49  and  N12_50 
ROOT
HETATM    1  C4  UNL     1       1.181   4.656   4.135  1.00  0.00     0.026 A 
HETATM    2  C5  UNL     1       0.373   4.089   5.138  1.00  0.00     0.116 A 
HETATM    3  N2  UNL     1       0.439   4.786   6.290  1.00  0.00    -0.282 N 
HETATM    4  C16 UNL     1       1.288   5.788   6.028  1.00  0.00     0.101 A 
HETATM    5  C17 UNL     1       1.508   6.744   6.950  1.00  0.00     0.136 C 
HETATM    6  N9  UNL     1       2.708   7.532   6.935  1.00  0.00    -0.324 N 
ATOM      7  H9  UNL     1       3.531   7.509   7.537  1.00  0.00     0.169 HD
HETATM    8  C18 UNL     1       2.384   8.365   5.802  1.00  0.00     0.153 C 
HETATM    9  N10 UNL     1       2.750   8.047   4.576  1.00  0.00    -0.325 N 
ATOM     10  H10 UNL     1       3.092   8.764   3.936  1.00  0.00     0.169 HD
HETATM   11  C19 UNL     1       2.659   6.662   4.147  1.00  0.00     0.114 C 
HETATM   12  C20 UNL     1       1.771   5.730   4.682  1.00  0.00     0.053 A 
HETATM   13  C21 UNL     1       1.443   9.424   5.945  1.00  0.00     0.145 C 
HETATM   14  N13 UNL     1       0.356   9.492   6.954  1.00  0.00    -0.336 N 
ATOM     15  H13 UNL     1      -0.094  10.394   7.110  1.00  0.00     0.168 HD
HETATM   16  C22 UNL     1      -0.104   8.366   7.727  1.00  0.00     0.183 C 
HETATM   17  N14 UNL     1       0.412   7.089   7.741  1.00  0.00    -0.337 N 
ATOM     18  H14 UNL     1      -0.016   6.382   8.339  1.00  0.00     0.168 HD
ENDROOT
BRANCH   3  19
HETATM   19  C6  UNL     1      -0.236   4.629   7.531  1.00  0.00     0.244 C 
HETATM   20  N3  UNL     1       0.258   4.105   8.599  1.00  0.00    -0.266 N 
HETATM   21  N4  UNL     1      -0.728   4.133   9.619  1.00  0.00    -0.103 NA
ATOM     22  H3  UNL     1       1.202   3.731   8.696  1.00  0.00     0.186 HD
HETATM   23  C7  UNL     1      -1.674   5.105   9.232  1.00  0.00     0.275 C 
HETATM   24  O4  UNL     1      -1.534   5.024   7.786  1.00  0.00    -0.294 OA
BRANCH  23  25
HETATM   25  C8  UNL     1      -1.455   6.519   9.613  1.00  0.00     0.201 C 
BRANCH  25  26
HETATM   26  N5  UNL     1      -0.921   6.800  10.889  1.00  0.00    -0.407 N 
ATOM     27  H5  UNL     1      -1.538   6.978  11.682  1.00  0.00     0.154 HD
BRANCH  26  28
HETATM   28  C9  UNL     1       0.483   6.830  11.048  1.00  0.00     0.116 C 
BRANCH  28  29
HETATM   29  C10 UNL     1       0.928   6.576  12.480  1.00  0.00     0.039 C 
BRANCH  29  30
HETATM   30  C11 UNL     1       2.080   5.573  12.498  1.00  0.00     0.120 C 
BRANCH  30  31
HETATM   31  N6  UNL     1       1.664   4.348  11.904  1.00  0.00    -0.401 N 
HETATM   32  C12 UNL     1       2.449   3.522  11.344  1.00  0.00     0.082 C 
ATOM     33  H6  UNL     1       0.670   4.118  11.931  1.00  0.00     0.158 HD
BRANCH  32  34
HETATM   34  C13 UNL     1       3.911   3.766  11.253  1.00  0.00     0.278 C 
BRANCH  34  35
HETATM   35  N7  UNL     1       4.324   3.600   9.856  1.00  0.00    -0.050 N 
ATOM     36  H72 UNL     1       5.322   3.419   9.752  1.00  0.00     0.280 HD
ATOM     37  H71 UNL     1       3.989   2.731   9.440  1.00  0.00     0.280 HD
BRANCH  35  38
HETATM   38  C14 UNL     1       3.879   4.788   9.137  1.00  0.00     0.396 C 
BRANCH  38  39
HETATM   39  O1  UNL     1       4.155   4.674   7.768  1.00  0.00    -0.375 OA
ATOM     40  H1  UNL     1       3.397   4.917   7.248  1.00  0.00     0.211 HD
ENDBRANCH  38  39
ENDBRANCH  35  38
ENDBRANCH  34  35
ENDBRANCH  32  34
ENDBRANCH  30  31
ENDBRANCH  29  30
ENDBRANCH  28  29
ENDBRANCH  26  28
ENDBRANCH  25  26
BRANCH  25  41
HETATM   41  C15 UNL     1      -2.755   7.230   9.397  1.00  0.00     0.162 C 
HETATM   42  N8  UNL     1      -3.279   7.868  10.364  1.00  0.00    -0.249 N 
ATOM     43  H8  UNL     1      -2.789   7.872  11.259  1.00  0.00     0.196 HD
BRANCH  41  44
HETATM   44  O2  UNL     1      -3.357   7.183   8.170  1.00  0.00    -0.346 OA
ATOM     45  H2  UNL     1      -2.836   7.304   7.386  1.00  0.00     0.219 HD
ENDBRANCH  41  44
BRANCH  42  46
HETATM   46  O3  UNL     1      -4.470   8.555  10.272  1.00  0.00    -0.288 OA
ATOM     47  H3  UNL     1      -4.557   9.413   9.872  1.00  0.00     0.244 HD
ENDBRANCH  42  46
ENDBRANCH  25  41
ENDBRANCH  23  25
ENDBRANCH   3  19
BRANCH   1  48
HETATM   48  C3  UNL     1       1.313   4.131   2.778  1.00  0.00     0.079 A 
HETATM   49  C2  UNL     1       0.543   4.335   1.642  1.00  0.00     0.143 A 
HETATM   50  N1  UNL     1       0.961   3.526   0.653  1.00  0.00    -0.291 N 
HETATM   51  C1  UNL     1       0.389   3.463  -0.681  1.00  0.00     0.178 C 
HETATM   52  N16 UNL     1       1.950   2.845   1.146  1.00  0.00    -0.241 N 
HETATM   53  N15 UNL     1       2.198   3.163   2.396  1.00  0.00    -0.284 N 
ATOM     54  H16 UNL     1       2.475   2.144   0.623  1.00  0.00     0.208 HD
ATOM     55  H15 UNL     1       2.928   2.756   2.981  1.00  0.00     0.188 HD
ENDBRANCH   1  48
BRANCH  11  56
HETATM   56  N11 UNL     1       3.426   6.295   3.267  1.00  0.00    -0.385 N 
ATOM     57 2H11 UNL     1       3.783   6.993   2.614  1.00  0.00     0.157 HD
ATOM     58 1H11 UNL     1       3.656   5.302   3.232  1.00  0.00     0.157 HD
ENDBRANCH  11  56
BRANCH  13  59
HETATM   59  N12 UNL     1       1.567  10.317   5.057  1.00  0.00    -0.382 N 
ATOM     60 2H12 UNL     1       1.440  10.099   4.069  1.00  0.00     0.157 HD
ATOM     61 1H12 UNL     1       1.853  11.220   5.438  1.00  0.00     0.157 HD
ENDBRANCH  13  59
TORSDOF 17
ENDMDL
