MODEL 1
REMARK VINA RESULT: -7.386546520      0.000      0.000
REMARK  7 active torsions:
REMARK  status: ('A' for Active; 'I' for Inactive)
REMARK    1  A    between atoms: C1_2  and  C2_4 
REMARK    2  A    between atoms: N2_7  and  C5_8 
REMARK    3  A    between atoms: C5_8  and  C6_9 
REMARK    4  A    between atoms: C9_12  and  C10_13 
REMARK    5  A    between atoms: C10_13  and  C11_14 
REMARK    6  A    between atoms: C11_14  and  N3_15 
REMARK    7  A    between atoms: N3_15  and  C12_17 
ROOT
HETATM    1  C6  UNL     1      28.179   0.296  51.417  1.00  0.00     0.014 C 
HETATM    2  C7  UNL     1      28.605  -0.221  52.775  1.00  0.00     0.007 C 
HETATM    3  C8  UNL     1      29.594  -1.341  52.650  1.00  0.00     0.005 C 
HETATM    4  C9  UNL     1      28.968  -2.562  52.004  1.00  0.00    -0.013 C 
HETATM    5  C19 UNL     1      27.910  -2.181  51.004  1.00  0.00     0.005 C 
HETATM    6  C20 UNL     1      28.066  -0.823  50.408  1.00  0.00     0.007 C 
ENDROOT
BRANCH   4   7
HETATM    7  C10 UNL     1      28.231  -3.296  53.130  1.00  0.00     0.024 C 
BRANCH   7   8
HETATM    8  C11 UNL     1      26.800  -3.496  52.713  1.00  0.00     0.122 C 
BRANCH   8   9
HETATM    9  N3  UNL     1      25.951  -2.933  53.766  1.00  0.00    -0.370 N 
ATOM     10  H3  UNL     1      25.721  -3.440  54.620  1.00  0.00     0.161 HD
BRANCH   9  11
HETATM   11  C12 UNL     1      25.511  -1.720  53.519  1.00  0.00     0.145 A 
HETATM   12  N4  UNL     1      25.048  -1.237  52.367  1.00  0.00    -0.336 N 
HETATM   13  C13 UNL     1      24.651   0.006  52.314  1.00  0.00     0.054 A 
ATOM     14  H4  UNL     1      25.005  -1.829  51.537  1.00  0.00     0.168 HD
HETATM   15  C14 UNL     1      24.133   0.685  51.188  1.00  0.00     0.073 A 
HETATM   16  C18 UNL     1      24.734   0.750  53.465  1.00  0.00     0.035 A 
HETATM   17  C15 UNL     1      23.755   1.999  51.295  1.00  0.00     0.118 A 
HETATM   18  F1  UNL     1      23.252   2.631  50.184  1.00  0.00    -0.206 F 
HETATM   19  C16 UNL     1      23.834   2.754  52.441  1.00  0.00     0.044 A 
HETATM   20  C17 UNL     1      24.338   2.097  53.542  1.00  0.00     0.024 A 
HETATM   21  S1  UNL     1      25.384  -0.384  54.570  1.00  0.00    -0.052 SA
ENDBRANCH   9  11
ENDBRANCH   8   9
ENDBRANCH   7   8
ENDBRANCH   4   7
BRANCH   1  22
HETATM   22  C5  UNL     1      29.312   1.187  50.922  1.00  0.00     0.277 C 
BRANCH  22  23
HETATM   23  N2  UNL     1      29.265   2.440  51.607  1.00  0.00     0.088 N 
HETATM   24  C4  UNL     1      29.844   3.520  50.828  1.00  0.00     0.273 C 
HETATM   25  C3  UNL     1      29.085   3.696  49.507  1.00  0.00     0.044 C 
HETATM   26  C2  UNL     1      27.620   3.714  49.843  1.00  0.00     0.078 C 
HETATM   27  C22 UNL     1      27.330   3.913  51.299  1.00  0.00     0.044 C 
HETATM   28  C21 UNL     1      27.967   2.793  52.116  1.00  0.00     0.273 C 
BRANCH  26  29
HETATM   29  C1  UNL     1      26.975   4.801  49.061  1.00  0.00     0.235 C 
HETATM   30  N1  UNL     1      25.560   4.885  49.138  1.00  0.00    -0.062 NA
HETATM   31  O1  UNL     1      27.686   5.591  48.375  1.00  0.00    -0.277 OA
ENDBRANCH  26  29
ENDBRANCH  22  23
ENDBRANCH   1  22
TORSDOF 7
ENDMDL
MODEL 2
REMARK VINA RESULT: -7.183201075      2.985      4.506
REMARK  7 active torsions:
REMARK  status: ('A' for Active; 'I' for Inactive)
REMARK    1  A    between atoms: C1_2  and  C2_4 
REMARK    2  A    between atoms: N2_7  and  C5_8 
REMARK    3  A    between atoms: C5_8  and  C6_9 
REMARK    4  A    between atoms: C9_12  and  C10_13 
REMARK    5  A    between atoms: C10_13  and  C11_14 
REMARK    6  A    between atoms: C11_14  and  N3_15 
REMARK    7  A    between atoms: N3_15  and  C12_17 
ROOT
HETATM    1  C6  UNL     1      28.499  -0.186  52.287  1.00  0.00     0.014 C 
HETATM    2  C7  UNL     1      27.767   0.017  53.597  1.00  0.00     0.007 C 
HETATM    3  C8  UNL     1      27.292  -1.286  54.168  1.00  0.00     0.005 C 
HETATM    4  C9  UNL     1      26.236  -1.923  53.286  1.00  0.00    -0.013 C 
HETATM    5  C19 UNL     1      26.463  -1.609  51.832  1.00  0.00     0.005 C 
HETATM    6  C20 UNL     1      27.873  -1.290  51.467  1.00  0.00     0.007 C 
ENDROOT
BRANCH   4   7
HETATM    7  C10 UNL     1      24.915  -1.241  53.659  1.00  0.00     0.024 C 
BRANCH   7   8
HETATM    8  C11 UNL     1      24.275  -0.720  52.402  1.00  0.00     0.122 C 
BRANCH   8   9
HETATM    9  N3  UNL     1      23.808   0.641  52.678  1.00  0.00    -0.370 N 
ATOM     10  H3  UNL     1      23.102   0.850  53.383  1.00  0.00     0.161 HD
BRANCH   9  11
HETATM   11  C12 UNL     1      24.373   1.570  51.941  1.00  0.00     0.145 A 
HETATM   12  N4  UNL     1      25.665   1.706  51.644  1.00  0.00    -0.336 N 
HETATM   13  C13 UNL     1      26.041   2.703  50.889  1.00  0.00     0.054 A 
ATOM     14  H4  UNL     1      26.350   1.040  52.001  1.00  0.00     0.168 HD
HETATM   15  C14 UNL     1      27.357   3.002  50.471  1.00  0.00     0.073 A 
HETATM   16  C18 UNL     1      25.069   3.563  50.440  1.00  0.00     0.035 A 
HETATM   17  C15 UNL     1      27.591   4.092  49.672  1.00  0.00     0.118 A 
HETATM   18  F1  UNL     1      28.880   4.354  49.279  1.00  0.00    -0.206 F 
HETATM   19  C16 UNL     1      26.627   4.960  49.216  1.00  0.00     0.044 A 
HETATM   20  C17 UNL     1      25.342   4.673  49.620  1.00  0.00     0.024 A 
HETATM   21  S1  UNL     1      23.656   2.888  51.132  1.00  0.00    -0.052 SA
ENDBRANCH   9  11
ENDBRANCH   8   9
ENDBRANCH   7   8
ENDBRANCH   4   7
BRANCH   1  22
HETATM   22  C5  UNL     1      29.896  -0.680  52.648  1.00  0.00     0.277 C 
BRANCH  22  23
HETATM   23  N2  UNL     1      30.871   0.194  52.075  1.00  0.00     0.088 N 
HETATM   24  C4  UNL     1      32.025  -0.522  51.564  1.00  0.00     0.273 C 
HETATM   25  C3  UNL     1      31.602  -1.509  50.470  1.00  0.00     0.044 C 
HETATM   26  C2  UNL     1      30.706  -0.759  49.525  1.00  0.00     0.078 C 
HETATM   27  C22 UNL     1      30.758   0.729  49.686  1.00  0.00     0.044 C 
HETATM   28  C21 UNL     1      30.348   1.116  51.103  1.00  0.00     0.273 C 
BRANCH  26  29
HETATM   29  C1  UNL     1      31.088  -1.116  48.134  1.00  0.00     0.235 C 
HETATM   30  N1  UNL     1      30.319  -0.532  47.094  1.00  0.00    -0.062 NA
HETATM   31  O1  UNL     1      32.057  -1.905  47.930  1.00  0.00    -0.277 OA
ENDBRANCH  26  29
ENDBRANCH  22  23
ENDBRANCH   1  22
TORSDOF 7
ENDMDL
MODEL 3
REMARK VINA RESULT: -7.129983053      2.374      3.274
REMARK  7 active torsions:
REMARK  status: ('A' for Active; 'I' for Inactive)
REMARK    1  A    between atoms: C1_2  and  C2_4 
REMARK    2  A    between atoms: N2_7  and  C5_8 
REMARK    3  A    between atoms: C5_8  and  C6_9 
REMARK    4  A    between atoms: C9_12  and  C10_13 
REMARK    5  A    between atoms: C10_13  and  C11_14 
REMARK    6  A    between atoms: C11_14  and  N3_15 
REMARK    7  A    between atoms: N3_15  and  C12_17 
ROOT
HETATM    1  C6  UNL     1      29.580  -1.691  52.524  1.00  0.00     0.014 C 
HETATM    2  C7  UNL     1      29.419  -2.294  53.904  1.00  0.00     0.007 C 
HETATM    3  C8  UNL     1      29.340  -3.791  53.842  1.00  0.00     0.005 C 
HETATM    4  C9  UNL     1      28.086  -4.249  53.123  1.00  0.00    -0.013 C 
HETATM    5  C19 UNL     1      27.679  -3.282  52.044  1.00  0.00     0.005 C 
HETATM    6  C20 UNL     1      28.788  -2.454  51.489  1.00  0.00     0.007 C 
ENDROOT
BRANCH   4   7
HETATM    7  C10 UNL     1      26.966  -4.201  54.168  1.00  0.00     0.024 C 
BRANCH   7   8
HETATM    8  C11 UNL     1      25.859  -3.329  53.644  1.00  0.00     0.122 C 
BRANCH   8   9
HETATM    9  N3  UNL     1      25.825  -2.117  54.467  1.00  0.00    -0.370 N 
ATOM     10  H3  UNL     1      25.891  -2.139  55.484  1.00  0.00     0.161 HD
BRANCH   9  11
HETATM   11  C12 UNL     1      25.702  -1.000  53.787  1.00  0.00     0.145 A 
HETATM   12  N4  UNL     1      24.777  -0.695  52.876  1.00  0.00    -0.336 N 
HETATM   13  C13 UNL     1      24.817   0.476  52.300  1.00  0.00     0.054 A 
ATOM     14  H4  UNL     1      24.049  -1.366  52.633  1.00  0.00     0.168 HD
HETATM   15  C14 UNL     1      23.926   0.973  51.322  1.00  0.00     0.073 A 
HETATM   16  C18 UNL     1      25.822   1.335  52.673  1.00  0.00     0.035 A 
HETATM   17  C15 UNL     1      24.102   2.234  50.812  1.00  0.00     0.118 A 
HETATM   18  F1  UNL     1      23.218   2.689  49.865  1.00  0.00    -0.206 F 
HETATM   19  C16 UNL     1      25.105   3.102  51.177  1.00  0.00     0.044 A 
HETATM   20  C17 UNL     1      25.976   2.624  52.131  1.00  0.00     0.024 A 
HETATM   21  S1  UNL     1      26.663   0.406  53.839  1.00  0.00    -0.052 SA
ENDBRANCH   9  11
ENDBRANCH   8   9
ENDBRANCH   7   8
ENDBRANCH   4   7
BRANCH   1  22
HETATM   22  C5  UNL     1      31.045  -1.876  52.144  1.00  0.00     0.277 C 
BRANCH  22  23
HETATM   23  N2  UNL     1      31.633  -0.600  51.883  1.00  0.00     0.088 N 
HETATM   24  C4  UNL     1      32.539  -0.628  50.750  1.00  0.00     0.273 C 
HETATM   25  C3  UNL     1      31.795  -1.053  49.479  1.00  0.00     0.044 C 
HETATM   26  C2  UNL     1      30.536  -0.234  49.413  1.00  0.00     0.078 C 
HETATM   27  C22 UNL     1      30.527   0.946  50.336  1.00  0.00     0.044 C 
HETATM   28  C21 UNL     1      30.690   0.481  51.779  1.00  0.00     0.273 C 
BRANCH  26  29
HETATM   29  C1  UNL     1      30.355   0.235  48.014  1.00  0.00     0.235 C 
HETATM   30  N1  UNL     1      30.314  -0.766  47.009  1.00  0.00    -0.062 NA
HETATM   31  O1  UNL     1      30.247   1.473  47.774  1.00  0.00    -0.277 OA
ENDBRANCH  26  29
ENDBRANCH  22  23
ENDBRANCH   1  22
TORSDOF 7
ENDMDL
MODEL 4
REMARK VINA RESULT: -7.102997705      2.591      4.848
REMARK  7 active torsions:
REMARK  status: ('A' for Active; 'I' for Inactive)
REMARK    1  A    between atoms: C1_2  and  C2_4 
REMARK    2  A    between atoms: N2_7  and  C5_8 
REMARK    3  A    between atoms: C5_8  and  C6_9 
REMARK    4  A    between atoms: C9_12  and  C10_13 
REMARK    5  A    between atoms: C10_13  and  C11_14 
REMARK    6  A    between atoms: C11_14  and  N3_15 
REMARK    7  A    between atoms: N3_15  and  C12_17 
ROOT
HETATM    1  C6  UNL     1      25.240   1.772  52.524  1.00  0.00     0.014 C 
HETATM    2  C7  UNL     1      26.218   0.616  52.489  1.00  0.00     0.007 C 
HETATM    3  C8  UNL     1      25.590  -0.617  51.910  1.00  0.00     0.005 C 
HETATM    4  C9  UNL     1      24.478  -1.140  52.799  1.00  0.00    -0.013 C 
HETATM    5  C19 UNL     1      23.771  -0.024  53.519  1.00  0.00     0.005 C 
HETATM    6  C20 UNL     1      23.840   1.305  52.847  1.00  0.00     0.007 C 
ENDROOT
BRANCH   4   7
HETATM    7  C10 UNL     1      25.171  -1.965  53.889  1.00  0.00     0.024 C 
BRANCH   7   8
HETATM    8  C11 UNL     1      26.032  -3.005  53.227  1.00  0.00     0.122 C 
BRANCH   8   9
HETATM    9  N3  UNL     1      27.305  -3.050  53.951  1.00  0.00    -0.370 N 
ATOM     10  H3  UNL     1      27.384  -3.395  54.907  1.00  0.00     0.161 HD
BRANCH   9  11
HETATM   11  C12 UNL     1      28.336  -2.608  53.268  1.00  0.00     0.145 A 
HETATM   12  N4  UNL     1      28.386  -2.294  51.974  1.00  0.00    -0.336 N 
HETATM   13  C13 UNL     1      29.511  -1.868  51.467  1.00  0.00     0.054 A 
ATOM     14  H4  UNL     1      27.556  -2.385  51.387  1.00  0.00     0.168 HD
HETATM   15  C14 UNL     1      29.750  -1.489  50.127  1.00  0.00     0.073 A 
HETATM   16  C18 UNL     1      30.591  -1.766  52.310  1.00  0.00     0.035 A 
HETATM   17  C15 UNL     1      30.996  -1.057  49.749  1.00  0.00     0.118 A 
HETATM   18  F1  UNL     1      31.196  -0.692  48.440  1.00  0.00    -0.206 F 
HETATM   19  C16 UNL     1      32.083  -0.952  50.583  1.00  0.00     0.044 A 
HETATM   20  C17 UNL     1      31.857  -1.320  51.891  1.00  0.00     0.024 A 
HETATM   21  S1  UNL     1      29.925  -2.294  53.797  1.00  0.00    -0.052 SA
ENDBRANCH   9  11
ENDBRANCH   8   9
ENDBRANCH   7   8
ENDBRANCH   4   7
BRANCH   1  22
HETATM   22  C5  UNL     1      25.175   2.322  51.104  1.00  0.00     0.277 C 
BRANCH  22  23
HETATM   23  N2  UNL     1      25.321   3.743  51.138  1.00  0.00     0.088 N 
HETATM   24  C4  UNL     1      26.498   4.162  51.876  1.00  0.00     0.273 C 
HETATM   25  C3  UNL     1      27.767   3.591  51.232  1.00  0.00     0.044 C 
HETATM   26  C2  UNL     1      27.670   3.863  49.757  1.00  0.00     0.078 C 
HETATM   27  C22 UNL     1      26.620   4.866  49.389  1.00  0.00     0.044 C 
HETATM   28  C21 UNL     1      25.250   4.381  49.850  1.00  0.00     0.273 C 
BRANCH  26  29
HETATM   29  C1  UNL     1      28.994   4.341  49.281  1.00  0.00     0.235 C 
HETATM   30  N1  UNL     1      29.038   4.896  47.975  1.00  0.00    -0.062 NA
HETATM   31  O1  UNL     1      30.007   4.243  50.033  1.00  0.00    -0.277 OA
ENDBRANCH  26  29
ENDBRANCH  22  23
ENDBRANCH   1  22
TORSDOF 7
ENDMDL
MODEL 5
REMARK VINA RESULT: -6.978461338      2.612      3.646
REMARK  7 active torsions:
REMARK  status: ('A' for Active; 'I' for Inactive)
REMARK    1  A    between atoms: C1_2  and  C2_4 
REMARK    2  A    between atoms: N2_7  and  C5_8 
REMARK    3  A    between atoms: C5_8  and  C6_9 
REMARK    4  A    between atoms: C9_12  and  C10_13 
REMARK    5  A    between atoms: C10_13  and  C11_14 
REMARK    6  A    between atoms: C11_14  and  N3_15 
REMARK    7  A    between atoms: N3_15  and  C12_17 
ROOT
HETATM    1  C6  UNL     1      29.524  -1.656  52.466  1.00  0.00     0.014 C 
HETATM    2  C7  UNL     1      29.326  -2.114  53.896  1.00  0.00     0.007 C 
HETATM    3  C8  UNL     1      29.210  -3.607  53.983  1.00  0.00     0.005 C 
HETATM    4  C9  UNL     1      27.954  -4.104  53.292  1.00  0.00    -0.013 C 
HETATM    5  C19 UNL     1      27.589  -3.241  52.115  1.00  0.00     0.005 C 
HETATM    6  C20 UNL     1      28.727  -2.500  51.499  1.00  0.00     0.007 C 
ENDROOT
BRANCH   4   7
HETATM    7  C10 UNL     1      26.821  -3.924  54.308  1.00  0.00     0.024 C 
BRANCH   7   8
HETATM    8  C11 UNL     1      25.739  -3.094  53.675  1.00  0.00     0.122 C 
BRANCH   8   9
HETATM    9  N3  UNL     1      25.517  -1.929  54.535  1.00  0.00    -0.370 N 
ATOM     10  H3  UNL     1      24.999  -1.981  55.412  1.00  0.00     0.161 HD
BRANCH   9  11
HETATM   11  C12 UNL     1      26.040  -0.812  54.084  1.00  0.00     0.145 A 
HETATM   12  N4  UNL     1      26.102  -0.389  52.821  1.00  0.00    -0.336 N 
HETATM   13  C13 UNL     1      26.666   0.760  52.564  1.00  0.00     0.054 A 
ATOM     14  H4  UNL     1      25.713  -0.955  52.066  1.00  0.00     0.168 HD
HETATM   15  C14 UNL     1      26.818   1.367  51.296  1.00  0.00     0.073 A 
HETATM   16  C18 UNL     1      27.168   1.475  53.624  1.00  0.00     0.035 A 
HETATM   17  C15 UNL     1      27.436   2.587  51.191  1.00  0.00     0.118 A 
HETATM   18  F1  UNL     1      27.567   3.152  49.946  1.00  0.00    -0.206 F 
HETATM   19  C16 UNL     1      27.943   3.310  52.245  1.00  0.00     0.044 A 
HETATM   20  C17 UNL     1      27.797   2.724  53.483  1.00  0.00     0.024 A 
HETATM   21  S1  UNL     1      26.801   0.448  54.944  1.00  0.00    -0.052 SA
ENDBRANCH   9  11
ENDBRANCH   8   9
ENDBRANCH   7   8
ENDBRANCH   4   7
BRANCH   1  22
HETATM   22  C5  UNL     1      30.988  -1.915  52.131  1.00  0.00     0.277 C 
BRANCH  22  23
HETATM   23  N2  UNL     1      31.638  -0.672  51.856  1.00  0.00     0.088 N 
HETATM   24  C4  UNL     1      32.519  -0.751  50.705  1.00  0.00     0.273 C 
HETATM   25  C3  UNL     1      31.728  -1.138  49.449  1.00  0.00     0.044 C 
HETATM   26  C2  UNL     1      30.514  -0.253  49.407  1.00  0.00     0.078 C 
HETATM   27  C22 UNL     1      30.586   0.928  50.326  1.00  0.00     0.044 C 
HETATM   28  C21 UNL     1      30.753   0.458  51.767  1.00  0.00     0.273 C 
BRANCH  26  29
HETATM   29  C1  UNL     1      30.330   0.223  48.010  1.00  0.00     0.235 C 
HETATM   30  N1  UNL     1      30.252  -0.775  47.004  1.00  0.00    -0.062 NA
HETATM   31  O1  UNL     1      30.251   1.464  47.773  1.00  0.00    -0.277 OA
ENDBRANCH  26  29
ENDBRANCH  22  23
ENDBRANCH   1  22
TORSDOF 7
ENDMDL
