MODEL 1
REMARK VINA RESULT: -7.265262238      0.000      0.000
REMARK  6 active torsions:
REMARK  status: ('A' for Active; 'I' for Inactive)
REMARK       I    between atoms: C1_2  and  N1_3 
REMARK       I    between atoms: C1_2  and  N2_12 
REMARK    1  A    between atoms: N1_3  and  C2_5 
REMARK    2  A    between atoms: N2_12  and  C8_13 
REMARK    3  A    between atoms: N2_12  and  C19_27 
REMARK    4  A    between atoms: C8_13  and  C9_14 
REMARK    5  A    between atoms: C12_17  and  N3_18 
REMARK    6  A    between atoms: C19_27  and  C20_28 
ROOT
HETATM    1  O1  UNL     1      28.437   0.344  49.824  1.00  0.00    -0.247 OA
HETATM    2  C1  UNL     1      28.927   0.751  50.899  1.00  0.00     0.323 C 
HETATM    3  N1  UNL     1      28.606   2.015  51.408  1.00  0.00    -0.309 N 
ATOM      4  H1  UNL     1      29.025   2.295  52.295  1.00  0.00     0.170 HD
HETATM    5  N2  UNL     1      29.812  -0.110  51.577  1.00  0.00    -0.327 N 
ENDROOT
BRANCH   5   6
HETATM    6  C8  UNL     1      30.064  -1.418  50.987  1.00  0.00     0.166 C 
BRANCH   6   7
HETATM    7  C9  UNL     1      29.245  -2.417  51.697  1.00  0.00    -0.040 A 
HETATM    8  C10 UNL     1      29.782  -3.098  52.780  1.00  0.00     0.011 A 
HETATM    9  C11 UNL     1      28.990  -4.024  53.419  1.00  0.00     0.030 A 
HETATM   10  C12 UNL     1      27.708  -4.303  53.041  1.00  0.00     0.030 A 
HETATM   11  C17 UNL     1      27.196  -3.600  51.946  1.00  0.00     0.030 A 
HETATM   12  C18 UNL     1      27.961  -2.663  51.279  1.00  0.00     0.011 A 
BRANCH  10  13
HETATM   13  N3  UNL     1      26.836  -5.236  53.638  1.00  0.00    -0.378 N 
HETATM   14  C13 UNL     1      26.508  -5.174  55.038  1.00  0.00     0.142 C 
HETATM   15  C14 UNL     1      25.022  -4.911  55.222  1.00  0.00     0.133 C 
HETATM   16  N4  UNL     1      24.332  -5.665  54.218  1.00  0.00    -0.418 N 
HETATM   17  C15 UNL     1      25.038  -6.818  53.731  1.00  0.00     0.133 C 
ATOM     18  H4  UNL     1      23.408  -5.403  53.874  1.00  0.00     0.153 HD
HETATM   19  C16 UNL     1      26.209  -6.312  52.882  1.00  0.00     0.142 C 
ENDBRANCH  10  13
ENDBRANCH   6   7
ENDBRANCH   5   6
BRANCH   5  20
HETATM   20  C19 UNL     1      30.453   0.316  52.787  1.00  0.00     0.159 C 
BRANCH  20  21
HETATM   21  C20 UNL     1      31.814  -0.232  53.016  1.00  0.00     0.139 C 
HETATM   22  C21 UNL     1      32.306   0.154  54.414  1.00  0.00     0.035 C 
HETATM   23  C22 UNL     1      33.788  -0.153  54.276  1.00  0.00     0.029 C 
HETATM   24  C23 UNL     1      33.958  -0.281  52.790  1.00  0.00     0.168 C 
HETATM   25  O2  UNL     1      32.817   0.314  52.231  1.00  0.00    -0.384 OA
ENDBRANCH  20  21
ENDBRANCH   5  20
BRANCH   3  26
HETATM   26  C2  UNL     1      27.734   2.931  50.767  1.00  0.00     0.036 A 
HETATM   27  C3  UNL     1      26.421   3.007  51.207  1.00  0.00     0.032 A 
HETATM   28  C4  UNL     1      25.534   3.900  50.645  1.00  0.00     0.044 A 
HETATM   29  C5  UNL     1      25.958   4.733  49.626  1.00  0.00     0.116 A 
HETATM   30  F1  UNL     1      25.091   5.617  49.066  1.00  0.00    -0.206 F 
HETATM   31  C6  UNL     1      27.260   4.656  49.195  1.00  0.00     0.044 A 
HETATM   32  C7  UNL     1      28.171   3.745  49.766  1.00  0.00     0.032 A 
ENDBRANCH   3  26
TORSDOF 6
ENDMDL
MODEL 2
REMARK VINA RESULT: -7.148995520      0.847      1.061
REMARK  6 active torsions:
REMARK  status: ('A' for Active; 'I' for Inactive)
REMARK       I    between atoms: C1_2  and  N1_3 
REMARK       I    between atoms: C1_2  and  N2_12 
REMARK    1  A    between atoms: N1_3  and  C2_5 
REMARK    2  A    between atoms: N2_12  and  C8_13 
REMARK    3  A    between atoms: N2_12  and  C19_27 
REMARK    4  A    between atoms: C8_13  and  C9_14 
REMARK    5  A    between atoms: C12_17  and  N3_18 
REMARK    6  A    between atoms: C19_27  and  C20_28 
ROOT
HETATM    1  O1  UNL     1      28.618   0.342  50.040  1.00  0.00    -0.247 OA
HETATM    2  C1  UNL     1      29.049   0.756  51.138  1.00  0.00     0.323 C 
HETATM    3  N1  UNL     1      28.655   1.998  51.649  1.00  0.00    -0.309 N 
ATOM      4  H1  UNL     1      29.028   2.283  52.554  1.00  0.00     0.170 HD
HETATM    5  N2  UNL     1      29.945  -0.076  51.838  1.00  0.00    -0.327 N 
ENDROOT
BRANCH   5   6
HETATM    6  C8  UNL     1      30.275  -1.364  51.244  1.00  0.00     0.166 C 
BRANCH   6   7
HETATM    7  C9  UNL     1      29.473  -2.406  51.908  1.00  0.00    -0.040 A 
HETATM    8  C10 UNL     1      30.020  -3.120  52.965  1.00  0.00     0.011 A 
HETATM    9  C11 UNL     1      29.243  -4.087  53.563  1.00  0.00     0.030 A 
HETATM   10  C12 UNL     1      27.968  -4.374  53.169  1.00  0.00     0.030 A 
HETATM   11  C17 UNL     1      27.446  -3.637  52.102  1.00  0.00     0.030 A 
HETATM   12  C18 UNL     1      28.195  -2.658  51.476  1.00  0.00     0.011 A 
BRANCH  10  13
HETATM   13  N3  UNL     1      27.111  -5.347  53.724  1.00  0.00    -0.378 N 
HETATM   14  C13 UNL     1      25.695  -5.335  53.473  1.00  0.00     0.142 C 
HETATM   15  C14 UNL     1      25.279  -6.592  52.725  1.00  0.00     0.133 C 
HETATM   16  N4  UNL     1      26.040  -7.678  53.267  1.00  0.00    -0.418 N 
HETATM   17  C15 UNL     1      26.498  -7.485  54.615  1.00  0.00     0.133 C 
ATOM     18  H4  UNL     1      26.240  -8.525  52.736  1.00  0.00     0.153 HD
HETATM   19  C16 UNL     1      27.601  -6.422  54.575  1.00  0.00     0.142 C 
ENDBRANCH  10  13
ENDBRANCH   6   7
ENDBRANCH   5   6
BRANCH   5  20
HETATM   20  C19 UNL     1      30.521   0.361  53.077  1.00  0.00     0.159 C 
BRANCH  20  21
HETATM   21  C20 UNL     1      31.867  -0.185  53.383  1.00  0.00     0.139 C 
HETATM   22  C21 UNL     1      31.970  -0.522  54.873  1.00  0.00     0.035 C 
HETATM   23  C22 UNL     1      33.475  -0.675  55.016  1.00  0.00     0.029 C 
HETATM   24  C23 UNL     1      33.987  -0.049  53.752  1.00  0.00     0.168 C 
HETATM   25  O2  UNL     1      32.918   0.708  53.250  1.00  0.00    -0.384 OA
ENDBRANCH  20  21
ENDBRANCH   5  20
BRANCH   3  26
HETATM   26  C2  UNL     1      27.769   2.884  50.986  1.00  0.00     0.036 A 
HETATM   27  C3  UNL     1      26.446   2.925  51.402  1.00  0.00     0.032 A 
HETATM   28  C4  UNL     1      25.544   3.788  50.818  1.00  0.00     0.044 A 
HETATM   29  C5  UNL     1      25.962   4.626  49.801  1.00  0.00     0.116 A 
HETATM   30  F1  UNL     1      25.080   5.481  49.219  1.00  0.00    -0.206 F 
HETATM   31  C6  UNL     1      27.273   4.583  49.393  1.00  0.00     0.044 A 
HETATM   32  C7  UNL     1      28.200   3.703  49.987  1.00  0.00     0.032 A 
ENDBRANCH   3  26
TORSDOF 6
ENDMDL
MODEL 3
REMARK VINA RESULT: -6.945926558      1.423      1.776
REMARK  6 active torsions:
REMARK  status: ('A' for Active; 'I' for Inactive)
REMARK       I    between atoms: C1_2  and  N1_3 
REMARK       I    between atoms: C1_2  and  N2_12 
REMARK    1  A    between atoms: N1_3  and  C2_5 
REMARK    2  A    between atoms: N2_12  and  C8_13 
REMARK    3  A    between atoms: N2_12  and  C19_27 
REMARK    4  A    between atoms: C8_13  and  C9_14 
REMARK    5  A    between atoms: C12_17  and  N3_18 
REMARK    6  A    between atoms: C19_27  and  C20_28 
ROOT
HETATM    1  O1  UNL     1      27.562  -0.116  50.396  1.00  0.00    -0.247 OA
HETATM    2  C1  UNL     1      28.003   0.474  51.405  1.00  0.00     0.323 C 
HETATM    3  N1  UNL     1      27.340   1.584  51.942  1.00  0.00    -0.309 N 
ATOM      4  H1  UNL     1      27.737   2.023  52.774  1.00  0.00     0.170 HD
HETATM    5  N2  UNL     1      29.190  -0.021  51.980  1.00  0.00    -0.327 N 
ENDROOT
BRANCH   5   6
HETATM    6  C8  UNL     1      29.793  -1.199  51.372  1.00  0.00     0.166 C 
BRANCH   6   7
HETATM    7  C9  UNL     1      29.150  -2.399  51.935  1.00  0.00    -0.040 A 
HETATM    8  C10 UNL     1      29.713  -3.022  53.041  1.00  0.00     0.011 A 
HETATM    9  C11 UNL     1      29.086  -4.141  53.541  1.00  0.00     0.030 A 
HETATM   10  C12 UNL     1      27.945  -4.664  53.006  1.00  0.00     0.030 A 
HETATM   11  C17 UNL     1      27.403  -4.013  51.893  1.00  0.00     0.030 A 
HETATM   12  C18 UNL     1      28.002  -2.888  51.362  1.00  0.00     0.011 A 
BRANCH  10  13
HETATM   13  N3  UNL     1      27.246  -5.803  53.455  1.00  0.00    -0.378 N 
HETATM   14  C13 UNL     1      25.811  -5.817  53.557  1.00  0.00     0.142 C 
HETATM   15  C14 UNL     1      25.222  -6.849  52.609  1.00  0.00     0.133 C 
HETATM   16  N4  UNL     1      26.089  -7.990  52.635  1.00  0.00    -0.418 N 
HETATM   17  C15 UNL     1      26.862  -8.138  53.837  1.00  0.00     0.133 C 
ATOM     18  H4  UNL     1      26.152  -8.648  51.859  1.00  0.00     0.153 HD
HETATM   19  C16 UNL     1      27.926  -7.034  53.835  1.00  0.00     0.142 C 
ENDBRANCH  10  13
ENDBRANCH   6   7
ENDBRANCH   5   6
BRANCH   5  20
HETATM   20  C19 UNL     1      29.781   0.641  53.106  1.00  0.00     0.159 C 
BRANCH  20  21
HETATM   21  C20 UNL     1      31.124   0.149  53.504  1.00  0.00     0.139 C 
HETATM   22  C21 UNL     1      31.384   0.468  54.979  1.00  0.00     0.035 C 
HETATM   23  C22 UNL     1      32.886   0.246  55.046  1.00  0.00     0.029 C 
HETATM   24  C23 UNL     1      33.277   0.223  53.598  1.00  0.00     0.168 C 
HETATM   25  O2  UNL     1      32.197   0.795  52.910  1.00  0.00    -0.384 OA
ENDBRANCH  20  21
ENDBRANCH   5  20
BRANCH   3  26
HETATM   26  C2  UNL     1      26.152   2.138  51.402  1.00  0.00     0.036 A 
HETATM   27  C3  UNL     1      24.975   1.413  51.522  1.00  0.00     0.032 A 
HETATM   28  C4  UNL     1      23.783   1.911  51.045  1.00  0.00     0.044 A 
HETATM   29  C5  UNL     1      23.756   3.151  50.436  1.00  0.00     0.116 A 
HETATM   30  F1  UNL     1      22.584   3.651  49.962  1.00  0.00    -0.206 F 
HETATM   31  C6  UNL     1      24.923   3.867  50.320  1.00  0.00     0.044 A 
HETATM   32  C7  UNL     1      26.146   3.362  50.807  1.00  0.00     0.032 A 
ENDBRANCH   3  26
TORSDOF 6
ENDMDL
MODEL 4
REMARK VINA RESULT: -6.919571304      3.081      6.000
REMARK  6 active torsions:
REMARK  status: ('A' for Active; 'I' for Inactive)
REMARK       I    between atoms: C1_2  and  N1_3 
REMARK       I    between atoms: C1_2  and  N2_12 
REMARK    1  A    between atoms: N1_3  and  C2_5 
REMARK    2  A    between atoms: N2_12  and  C8_13 
REMARK    3  A    between atoms: N2_12  and  C19_27 
REMARK    4  A    between atoms: C8_13  and  C9_14 
REMARK    5  A    between atoms: C12_17  and  N3_18 
REMARK    6  A    between atoms: C19_27  and  C20_28 
ROOT
HETATM    1  O1  UNL     1      27.947   2.550  51.385  1.00  0.00    -0.247 OA
HETATM    2  C1  UNL     1      27.698   1.363  51.083  1.00  0.00     0.323 C 
HETATM    3  N1  UNL     1      26.422   0.819  51.275  1.00  0.00    -0.309 N 
ATOM      4  H1  UNL     1      26.269  -0.151  51.001  1.00  0.00     0.170 HD
HETATM    5  N2  UNL     1      28.749   0.596  50.542  1.00  0.00    -0.327 N 
ENDROOT
BRANCH   5   6
HETATM    6  C8  UNL     1      30.034   1.254  50.350  1.00  0.00     0.166 C 
BRANCH   6   7
HETATM    7  C9  UNL     1      30.997   0.691  51.314  1.00  0.00    -0.040 A 
HETATM    8  C10 UNL     1      32.043  -0.096  50.854  1.00  0.00     0.011 A 
HETATM    9  C11 UNL     1      32.924  -0.606  51.780  1.00  0.00     0.030 A 
HETATM   10  C12 UNL     1      32.819  -0.376  53.122  1.00  0.00     0.030 A 
HETATM   11  C17 UNL     1      31.754   0.421  53.553  1.00  0.00     0.030 A 
HETATM   12  C18 UNL     1      30.849   0.951  52.653  1.00  0.00     0.011 A 
BRANCH  10  13
HETATM   13  N3  UNL     1      33.674  -0.862  54.132  1.00  0.00    -0.378 N 
HETATM   14  C13 UNL     1      34.576   0.007  54.840  1.00  0.00     0.142 C 
HETATM   15  C14 UNL     1      34.217   0.054  56.316  1.00  0.00     0.133 C 
HETATM   16  N4  UNL     1      33.834  -1.272  56.701  1.00  0.00    -0.418 N 
HETATM   17  C15 UNL     1      34.388  -2.323  55.892  1.00  0.00     0.133 C 
ATOM     18  H4  UNL     1      33.215  -1.457  57.489  1.00  0.00     0.153 HD
HETATM   19  C16 UNL     1      33.694  -2.264  54.527  1.00  0.00     0.142 C 
ENDBRANCH  10  13
ENDBRANCH   6   7
ENDBRANCH   5   6
BRANCH   5  20
HETATM   20  C19 UNL     1      28.547  -0.788  50.225  1.00  0.00     0.159 C 
BRANCH  20  21
HETATM   21  C20 UNL     1      28.173  -1.658  51.368  1.00  0.00     0.139 C 
HETATM   22  C21 UNL     1      29.414  -2.374  51.910  1.00  0.00     0.035 C 
HETATM   23  C22 UNL     1      28.759  -3.450  52.760  1.00  0.00     0.029 C 
HETATM   24  C23 UNL     1      27.337  -3.423  52.281  1.00  0.00     0.168 C 
HETATM   25  O2  UNL     1      27.368  -2.741  51.056  1.00  0.00    -0.384 OA
ENDBRANCH  20  21
ENDBRANCH   5  20
BRANCH   3  26
HETATM   26  C2  UNL     1      25.329   1.534  51.826  1.00  0.00     0.036 A 
HETATM   27  C3  UNL     1      24.441   2.152  50.957  1.00  0.00     0.032 A 
HETATM   28  C4  UNL     1      23.343   2.835  51.431  1.00  0.00     0.044 A 
HETATM   29  C5  UNL     1      23.120   2.909  52.793  1.00  0.00     0.116 A 
HETATM   30  F1  UNL     1      22.039   3.580  53.270  1.00  0.00    -0.206 F 
HETATM   31  C6  UNL     1      24.001   2.295  53.650  1.00  0.00     0.044 A 
HETATM   32  C7  UNL     1      25.126   1.595  53.171  1.00  0.00     0.032 A 
ENDBRANCH   3  26
TORSDOF 6
ENDMDL
MODEL 5
REMARK VINA RESULT: -6.877781411      1.240      1.673
REMARK  6 active torsions:
REMARK  status: ('A' for Active; 'I' for Inactive)
REMARK       I    between atoms: C1_2  and  N1_3 
REMARK       I    between atoms: C1_2  and  N2_12 
REMARK    1  A    between atoms: N1_3  and  C2_5 
REMARK    2  A    between atoms: N2_12  and  C8_13 
REMARK    3  A    between atoms: N2_12  and  C19_27 
REMARK    4  A    between atoms: C8_13  and  C9_14 
REMARK    5  A    between atoms: C12_17  and  N3_18 
REMARK    6  A    between atoms: C19_27  and  C20_28 
ROOT
HETATM    1  O1  UNL     1      28.633   0.537  49.753  1.00  0.00    -0.247 OA
HETATM    2  C1  UNL     1      29.218   0.999  50.756  1.00  0.00     0.323 C 
HETATM    3  N1  UNL     1      28.914   2.275  51.248  1.00  0.00    -0.309 N 
ATOM      4  H1  UNL     1      29.413   2.600  52.076  1.00  0.00     0.170 HD
HETATM    5  N2  UNL     1      30.192   0.188  51.371  1.00  0.00    -0.327 N 
ENDROOT
BRANCH   5   6
HETATM    6  C8  UNL     1      30.420  -1.136  50.809  1.00  0.00     0.166 C 
BRANCH   6   7
HETATM    7  C9  UNL     1      29.574  -2.103  51.531  1.00  0.00    -0.040 A 
HETATM    8  C10 UNL     1      30.088  -2.771  52.633  1.00  0.00     0.011 A 
HETATM    9  C11 UNL     1      29.271  -3.668  53.284  1.00  0.00     0.030 A 
HETATM   10  C12 UNL     1      27.988  -3.931  52.899  1.00  0.00     0.030 A 
HETATM   11  C17 UNL     1      27.501  -3.242  51.784  1.00  0.00     0.030 A 
HETATM   12  C18 UNL     1      28.290  -2.333  51.105  1.00  0.00     0.011 A 
BRANCH  10  13
HETATM   13  N3  UNL     1      27.092  -4.834  53.507  1.00  0.00    -0.378 N 
HETATM   14  C13 UNL     1      26.837  -4.806  54.923  1.00  0.00     0.142 C 
HETATM   15  C14 UNL     1      25.380  -4.465  55.192  1.00  0.00     0.133 C 
HETATM   16  N4  UNL     1      24.598  -5.139  54.198  1.00  0.00    -0.418 N 
HETATM   17  C15 UNL     1      25.210  -6.312  53.636  1.00  0.00     0.133 C 
ATOM     18  H4  UNL     1      23.676  -4.812  53.912  1.00  0.00     0.153 HD
HETATM   19  C16 UNL     1      26.366  -5.842  52.746  1.00  0.00     0.142 C 
ENDBRANCH  10  13
ENDBRANCH   6   7
ENDBRANCH   5   6
BRANCH   5  20
HETATM   20  C19 UNL     1      30.940   0.678  52.492  1.00  0.00     0.159 C 
BRANCH  20  21
HETATM   21  C20 UNL     1      30.176   0.816  53.758  1.00  0.00     0.139 C 
HETATM   22  C21 UNL     1      30.826  -0.028  54.858  1.00  0.00     0.035 C 
HETATM   23  C22 UNL     1      29.707  -0.046  55.886  1.00  0.00     0.029 C 
HETATM   24  C23 UNL     1      28.526   0.427  55.090  1.00  0.00     0.168 C 
HETATM   25  O2  UNL     1      28.898   0.280  53.746  1.00  0.00    -0.384 OA
ENDBRANCH  20  21
ENDBRANCH   5  20
BRANCH   3  26
HETATM   26  C2  UNL     1      27.956   3.142  50.665  1.00  0.00     0.036 A 
HETATM   27  C3  UNL     1      26.687   3.190  51.223  1.00  0.00     0.032 A 
HETATM   28  C4  UNL     1      25.722   4.036  50.722  1.00  0.00     0.044 A 
HETATM   29  C5  UNL     1      26.021   4.851  49.646  1.00  0.00     0.116 A 
HETATM   30  F1  UNL     1      25.076   5.689  49.145  1.00  0.00    -0.206 F 
HETATM   31  C6  UNL     1      27.279   4.802  49.097  1.00  0.00     0.044 A 
HETATM   32  C7  UNL     1      28.270   3.938  49.606  1.00  0.00     0.032 A 
ENDBRANCH   3  26
TORSDOF 6
ENDMDL
