MODEL 1
REMARK VINA RESULT: -7.094105031      0.000      0.000
REMARK  8 active torsions:
REMARK  status: ('A' for Active; 'I' for Inactive)
REMARK    1  A    between atoms: C2_2  and  C3_3 
REMARK    2  A    between atoms: C3_3  and  O1_4 
REMARK    3  A    between atoms: C3_3  and  C4_6 
REMARK    4  A    between atoms: C5_7  and  C6_8 
REMARK    5  A    between atoms: C7_9  and  C8_10 
REMARK    6  A    between atoms: C13_16  and  O2_17 
REMARK    7  A    between atoms: O2_17  and  C14_18 
REMARK    8  A    between atoms: C16_21  and  O4_22 
ROOT
HETATM    1  C8  UNL     1      27.422  -1.997  51.434  1.00  0.00     0.027 C 
HETATM    2  C9  UNL     1      27.955  -3.289  52.018  1.00  0.00     0.066 C 
HETATM    3 BR1  UNL     1      26.799  -4.063  53.319  1.00  0.00    -0.090 Br
HETATM    4  C10 UNL     1      29.284  -2.847  52.575  1.00  0.00     0.021 C 
HETATM    5  C11 UNL     1      29.823  -1.971  51.464  1.00  0.00    -0.006 C 
HETATM    6  C12 UNL     1      30.639  -0.858  52.028  1.00  0.00     0.040 C 
HETATM    7  C13 UNL     1      30.857   0.297  51.114  1.00  0.00     0.161 C 
HETATM    8  C16 UNL     1      30.042   0.222  49.837  1.00  0.00     0.150 C 
HETATM    9  C18 UNL     1      28.623  -0.105  50.294  1.00  0.00     0.040 C 
HETATM   10  C19 UNL     1      28.648  -1.560  50.659  1.00  0.00     0.001 C 
ENDROOT
BRANCH   1  11
HETATM   11  C7  UNL     1      27.087  -0.985  52.462  1.00  0.00    -0.021 C 
HETATM   12  C6  UNL     1      25.960  -0.358  52.560  1.00  0.00    -0.004 C 
BRANCH  12  13
HETATM   13  C5  UNL     1      24.832  -0.541  51.673  1.00  0.00    -0.001 C 
HETATM   14  C4  UNL     1      24.055   0.464  51.287  1.00  0.00     0.008 C 
BRANCH  14  15
HETATM   15  C3  UNL     1      24.355   1.826  51.784  1.00  0.00     0.163 C 
BRANCH  15  16
HETATM   16  C2  UNL     1      24.181   2.835  50.706  1.00  0.00    -0.002 C 
HETATM   17  C1  UNL     1      22.968   3.244  50.330  1.00  0.00     0.010 C 
ENDBRANCH  15  16
BRANCH  15  18
HETATM   18  O1  UNL     1      23.453   2.172  52.816  1.00  0.00    -0.388 OA
ATOM     19  H1  UNL     1      23.877   1.950  53.636  1.00  0.00     0.210 HD
ENDBRANCH  15  18
ENDBRANCH  14  15
ENDBRANCH  12  13
ENDBRANCH   1  11
BRANCH   8  20
HETATM   20  O4  UNL     1      30.454  -0.840  49.044  1.00  0.00    -0.388 OA
HETATM   21  C17 UNL     1      30.362  -0.569  47.686  1.00  0.00     0.202 C 
ENDBRANCH   8  20
BRANCH   7  22
HETATM   22  O2  UNL     1      32.215   0.552  50.838  1.00  0.00    -0.314 OA
BRANCH  22  23
HETATM   23  C14 UNL     1      33.250  -0.273  51.257  1.00  0.00     0.255 C 
HETATM   24  C15 UNL     1      33.585  -1.520  50.528  1.00  0.00     0.126 C 
HETATM   25  O3  UNL     1      33.921   0.039  52.274  1.00  0.00    -0.266 OA
ENDBRANCH  22  23
ENDBRANCH   7  22
TORSDOF 8
ENDMDL
MODEL 2
REMARK VINA RESULT: -6.734289566      2.106      2.484
REMARK  8 active torsions:
REMARK  status: ('A' for Active; 'I' for Inactive)
REMARK    1  A    between atoms: C2_2  and  C3_3 
REMARK    2  A    between atoms: C3_3  and  O1_4 
REMARK    3  A    between atoms: C3_3  and  C4_6 
REMARK    4  A    between atoms: C5_7  and  C6_8 
REMARK    5  A    between atoms: C7_9  and  C8_10 
REMARK    6  A    between atoms: C13_16  and  O2_17 
REMARK    7  A    between atoms: O2_17  and  C14_18 
REMARK    8  A    between atoms: C16_21  and  O4_22 
ROOT
HETATM    1  C8  UNL     1      26.783  -0.031  51.396  1.00  0.00     0.027 C 
HETATM    2  C9  UNL     1      26.159  -1.369  51.733  1.00  0.00     0.066 C 
HETATM    3 BR1  UNL     1      24.604  -1.225  52.824  1.00  0.00    -0.090 Br
HETATM    4  C10 UNL     1      27.305  -2.081  52.403  1.00  0.00     0.021 C 
HETATM    5  C11 UNL     1      28.471  -1.736  51.500  1.00  0.00    -0.006 C 
HETATM    6  C12 UNL     1      29.727  -1.620  52.293  1.00  0.00     0.040 C 
HETATM    7  C13 UNL     1      30.832  -0.875  51.628  1.00  0.00     0.161 C 
HETATM    8  C16 UNL     1      30.415  -0.196  50.338  1.00  0.00     0.150 C 
HETATM    9  C18 UNL     1      29.124   0.542  50.681  1.00  0.00     0.040 C 
HETATM   10  C19 UNL     1      28.067  -0.519  50.757  1.00  0.00     0.001 C 
ENDROOT
BRANCH   1  11
HETATM   11  C7  UNL     1      27.093   0.787  52.591  1.00  0.00    -0.021 C 
HETATM   12  C6  UNL     1      26.505   1.892  52.918  1.00  0.00    -0.004 C 
BRANCH  12  13
HETATM   13  C5  UNL     1      25.440   2.517  52.164  1.00  0.00    -0.001 C 
HETATM   14  C4  UNL     1      25.637   3.585  51.400  1.00  0.00     0.008 C 
BRANCH  14  15
HETATM   15  C3  UNL     1      27.000   4.158  51.317  1.00  0.00     0.163 C 
BRANCH  15  16
HETATM   16  C2  UNL     1      27.532   4.063  49.931  1.00  0.00    -0.002 C 
HETATM   17  C1  UNL     1      27.063   4.842  48.955  1.00  0.00     0.010 C 
ENDBRANCH  15  16
BRANCH  15  18
HETATM   18  O1  UNL     1      26.966   5.532  51.646  1.00  0.00    -0.388 OA
ATOM     19  H1  UNL     1      26.310   5.634  52.325  1.00  0.00     0.210 HD
ENDBRANCH  15  18
ENDBRANCH  14  15
ENDBRANCH  12  13
ENDBRANCH   1  11
BRANCH   8  20
HETATM   20  O4  UNL     1      30.086  -1.130  49.366  1.00  0.00    -0.388 OA
HETATM   21  C17 UNL     1      30.620  -0.828  48.122  1.00  0.00     0.202 C 
ENDBRANCH   8  20
BRANCH   7  22
HETATM   22  O2  UNL     1      32.001  -1.641  51.447  1.00  0.00    -0.314 OA
BRANCH  22  23
HETATM   23  C14 UNL     1      33.186  -1.123  50.946  1.00  0.00     0.255 C 
HETATM   24  C15 UNL     1      33.966  -1.845  49.910  1.00  0.00     0.126 C 
HETATM   25  O3  UNL     1      33.613  -0.020  51.374  1.00  0.00    -0.266 OA
ENDBRANCH  22  23
ENDBRANCH   7  22
TORSDOF 8
ENDMDL
MODEL 3
REMARK VINA RESULT: -6.466175992      0.915      1.024
REMARK  8 active torsions:
REMARK  status: ('A' for Active; 'I' for Inactive)
REMARK    1  A    between atoms: C2_2  and  C3_3 
REMARK    2  A    between atoms: C3_3  and  O1_4 
REMARK    3  A    between atoms: C3_3  and  C4_6 
REMARK    4  A    between atoms: C5_7  and  C6_8 
REMARK    5  A    between atoms: C7_9  and  C8_10 
REMARK    6  A    between atoms: C13_16  and  O2_17 
REMARK    7  A    between atoms: O2_17  and  C14_18 
REMARK    8  A    between atoms: C16_21  and  O4_22 
ROOT
HETATM    1  C8  UNL     1      27.446  -1.891  51.410  1.00  0.00     0.027 C 
HETATM    2  C9  UNL     1      27.954  -3.225  51.916  1.00  0.00     0.066 C 
HETATM    3 BR1  UNL     1      26.803  -4.035  53.199  1.00  0.00    -0.090 Br
HETATM    4  C10 UNL     1      29.305  -2.848  52.467  1.00  0.00     0.021 C 
HETATM    5  C11 UNL     1      29.847  -1.931  51.391  1.00  0.00    -0.006 C 
HETATM    6  C12 UNL     1      30.705  -0.871  51.994  1.00  0.00     0.040 C 
HETATM    7  C13 UNL     1      30.937   0.324  51.136  1.00  0.00     0.161 C 
HETATM    8  C16 UNL     1      30.095   0.337  49.874  1.00  0.00     0.150 C 
HETATM    9  C18 UNL     1      28.677   0.024  50.343  1.00  0.00     0.040 C 
HETATM   10  C19 UNL     1      28.669  -1.448  50.633  1.00  0.00     0.001 C 
ENDROOT
BRANCH   1  11
HETATM   11  C7  UNL     1      27.159  -0.925  52.496  1.00  0.00    -0.021 C 
HETATM   12  C6  UNL     1      26.123  -0.153  52.560  1.00  0.00    -0.004 C 
BRANCH  12  13
HETATM   13  C5  UNL     1      25.065  -0.105  51.575  1.00  0.00    -0.001 C 
HETATM   14  C4  UNL     1      23.920   0.534  51.786  1.00  0.00     0.008 C 
BRANCH  14  15
HETATM   15  C3  UNL     1      23.720   1.224  53.080  1.00  0.00     0.163 C 
BRANCH  15  16
HETATM   16  C2  UNL     1      23.220   2.609  52.872  1.00  0.00    -0.002 C 
HETATM   17  C1  UNL     1      22.406   3.192  53.753  1.00  0.00     0.010 C 
ENDBRANCH  15  16
BRANCH  15  18
HETATM   18  O1  UNL     1      22.738   0.547  53.840  1.00  0.00    -0.388 OA
ATOM     19  H1  UNL     1      21.898   0.910  53.586  1.00  0.00     0.210 HD
ENDBRANCH  15  18
ENDBRANCH  14  15
ENDBRANCH  12  13
ENDBRANCH   1  11
BRANCH   8  20
HETATM   20  O4  UNL     1      30.461  -0.694  49.020  1.00  0.00    -0.388 OA
HETATM   21  C17 UNL     1      30.296  -0.371  47.680  1.00  0.00     0.202 C 
ENDBRANCH   8  20
BRANCH   7  22
HETATM   22  O2  UNL     1      32.296   0.555  50.845  1.00  0.00    -0.314 OA
BRANCH  22  23
HETATM   23  C14 UNL     1      33.320  -0.292  51.243  1.00  0.00     0.255 C 
HETATM   24  C15 UNL     1      33.634  -1.530  50.489  1.00  0.00     0.126 C 
HETATM   25  O3  UNL     1      34.000  -0.009  52.263  1.00  0.00    -0.266 OA
ENDBRANCH  22  23
ENDBRANCH   7  22
TORSDOF 8
ENDMDL
MODEL 4
REMARK VINA RESULT: -6.403676369      0.953      1.212
REMARK  8 active torsions:
REMARK  status: ('A' for Active; 'I' for Inactive)
REMARK    1  A    between atoms: C2_2  and  C3_3 
REMARK    2  A    between atoms: C3_3  and  O1_4 
REMARK    3  A    between atoms: C3_3  and  C4_6 
REMARK    4  A    between atoms: C5_7  and  C6_8 
REMARK    5  A    between atoms: C7_9  and  C8_10 
REMARK    6  A    between atoms: C13_16  and  O2_17 
REMARK    7  A    between atoms: O2_17  and  C14_18 
REMARK    8  A    between atoms: C16_21  and  O4_22 
ROOT
HETATM    1  C8  UNL     1      27.012  -2.089  51.501  1.00  0.00     0.027 C 
HETATM    2  C9  UNL     1      27.518  -3.440  51.962  1.00  0.00     0.066 C 
HETATM    3 BR1  UNL     1      26.373  -4.283  53.229  1.00  0.00    -0.090 Br
HETATM    4  C10 UNL     1      28.875  -3.086  52.513  1.00  0.00     0.021 C 
HETATM    5  C11 UNL     1      29.413  -2.139  51.462  1.00  0.00    -0.006 C 
HETATM    6  C12 UNL     1      30.280  -1.102  52.090  1.00  0.00     0.040 C 
HETATM    7  C13 UNL     1      30.511   0.118  51.266  1.00  0.00     0.161 C 
HETATM    8  C16 UNL     1      29.660   0.173  50.012  1.00  0.00     0.150 C 
HETATM    9  C18 UNL     1      28.244  -0.148  50.483  1.00  0.00     0.040 C 
HETATM   10  C19 UNL     1      28.231  -1.627  50.728  1.00  0.00     0.001 C 
ENDROOT
BRANCH   1  11
HETATM   11  C7  UNL     1      26.738  -1.154  52.618  1.00  0.00    -0.021 C 
HETATM   12  C6  UNL     1      25.696  -0.396  52.724  1.00  0.00    -0.004 C 
BRANCH  12  13
HETATM   13  C5  UNL     1      24.618  -0.332  51.761  1.00  0.00    -0.001 C 
HETATM   14  C4  UNL     1      24.081   0.816  51.364  1.00  0.00     0.008 C 
BRANCH  14  15
HETATM   15  C3  UNL     1      24.608   2.079  51.928  1.00  0.00     0.163 C 
BRANCH  15  16
HETATM   16  C2  UNL     1      25.703   2.624  51.081  1.00  0.00    -0.002 C 
HETATM   17  C1  UNL     1      26.818   3.114  51.622  1.00  0.00     0.010 C 
ENDBRANCH  15  16
BRANCH  15  18
HETATM   18  O1  UNL     1      23.588   3.058  51.952  1.00  0.00    -0.388 OA
ATOM     19  H1  UNL     1      22.828   2.651  52.351  1.00  0.00     0.210 HD
ENDBRANCH  15  18
ENDBRANCH  14  15
ENDBRANCH  12  13
ENDBRANCH   1  11
BRANCH   8  20
HETATM   20  O4  UNL     1      30.015  -0.833  49.125  1.00  0.00    -0.388 OA
HETATM   21  C17 UNL     1      30.306  -0.356  47.855  1.00  0.00     0.202 C 
ENDBRANCH   8  20
BRANCH   7  22
HETATM   22  O2  UNL     1      31.869   0.352  50.973  1.00  0.00    -0.314 OA
BRANCH  22  23
HETATM   23  C14 UNL     1      32.909  -0.390  51.513  1.00  0.00     0.255 C 
HETATM   24  C15 UNL     1      33.311  -0.233  52.932  1.00  0.00     0.126 C 
HETATM   25  O3  UNL     1      33.527  -1.213  50.791  1.00  0.00    -0.266 OA
ENDBRANCH  22  23
ENDBRANCH   7  22
TORSDOF 8
ENDMDL
MODEL 5
REMARK VINA RESULT: -6.335254607      2.582      3.722
REMARK  8 active torsions:
REMARK  status: ('A' for Active; 'I' for Inactive)
REMARK    1  A    between atoms: C2_2  and  C3_3 
REMARK    2  A    between atoms: C3_3  and  O1_4 
REMARK    3  A    between atoms: C3_3  and  C4_6 
REMARK    4  A    between atoms: C5_7  and  C6_8 
REMARK    5  A    between atoms: C7_9  and  C8_10 
REMARK    6  A    between atoms: C13_16  and  O2_17 
REMARK    7  A    between atoms: O2_17  and  C14_18 
REMARK    8  A    between atoms: C16_21  and  O4_22 
ROOT
HETATM    1  C8  UNL     1      27.732   1.400  53.648  1.00  0.00     0.027 C 
HETATM    2  C9  UNL     1      28.718   1.292  54.793  1.00  0.00     0.066 C 
HETATM    3 BR1  UNL     1      28.705   2.808  55.947  1.00  0.00    -0.090 Br
HETATM    4  C10 UNL     1      30.019   1.101  54.059  1.00  0.00     0.021 C 
HETATM    5  C11 UNL     1      29.640   0.101  52.987  1.00  0.00    -0.006 C 
HETATM    6  C12 UNL     1      30.427   0.345  51.745  1.00  0.00     0.040 C 
HETATM    7  C13 UNL     1      29.863  -0.257  50.505  1.00  0.00     0.161 C 
HETATM    8  C16 UNL     1      28.479  -0.849  50.695  1.00  0.00     0.150 C 
HETATM    9  C18 UNL     1      27.685   0.232  51.422  1.00  0.00     0.040 C 
HETATM   10  C19 UNL     1      28.168   0.194  52.842  1.00  0.00     0.001 C 
ENDROOT
BRANCH   1  11
HETATM   11  C7  UNL     1      27.901   2.633  52.845  1.00  0.00    -0.021 C 
HETATM   12  C6  UNL     1      27.014   3.563  52.700  1.00  0.00    -0.004 C 
BRANCH  12  13
HETATM   13  C5  UNL     1      25.698   3.551  53.301  1.00  0.00    -0.001 C 
HETATM   14  C4  UNL     1      24.601   3.252  52.614  1.00  0.00     0.008 C 
BRANCH  14  15
HETATM   15  C3  UNL     1      24.731   2.917  51.178  1.00  0.00     0.163 C 
BRANCH  15  16
HETATM   16  C2  UNL     1      23.987   1.671  50.854  1.00  0.00    -0.002 C 
HETATM   17  C1  UNL     1      24.068   0.593  51.636  1.00  0.00     0.010 C 
ENDBRANCH  15  16
BRANCH  15  18
HETATM   18  O1  UNL     1      24.165   3.945  50.390  1.00  0.00    -0.388 OA
ATOM     19  H1  UNL     1      24.834   4.612  50.289  1.00  0.00     0.210 HD
ENDBRANCH  15  18
ENDBRANCH  14  15
ENDBRANCH  12  13
ENDBRANCH   1  11
BRANCH   8  20
HETATM   20  O4  UNL     1      28.517  -1.945  51.544  1.00  0.00    -0.388 OA
HETATM   21  C17 UNL     1      27.604  -2.931  51.197  1.00  0.00     0.202 C 
ENDBRANCH   8  20
BRANCH   7  22
HETATM   22  O2  UNL     1      30.729  -1.175  49.878  1.00  0.00    -0.314 OA
BRANCH  22  23
HETATM   23  C14 UNL     1      30.992  -1.172  48.516  1.00  0.00     0.255 C 
HETATM   24  C15 UNL     1      30.154  -0.396  47.570  1.00  0.00     0.126 C 
HETATM   25  O3  UNL     1      31.961  -1.839  48.069  1.00  0.00    -0.266 OA
ENDBRANCH  22  23
ENDBRANCH   7  22
TORSDOF 8
ENDMDL
