MODEL 1
REMARK VINA RESULT: -7.656771436      0.000      0.000
REMARK  7 active torsions:
REMARK  status: ('A' for Active; 'I' for Inactive)
REMARK    1  A    between atoms: O1_1  and  C1_3 
REMARK    2  A    between atoms: C1_3  and  C2_4 
REMARK    3  A    between atoms: N1_13  and  C10_14 
REMARK    4  A    between atoms: C10_14  and  C11_15 
REMARK    5  A    between atoms: C14_18  and  N2_19 
REMARK    6  A    between atoms: N2_19  and  C15_22 
REMARK    7  A    between atoms: C15_22  and  C16_23 
ROOT
HETATM    1  C11 UNL     1      25.582   1.925  52.532  1.00  0.00     0.003 C 
HETATM    2  C12 UNL     1      25.426   2.319  53.942  1.00  0.00     0.008 C 
HETATM    3  C13 UNL     1      24.308   3.296  54.203  1.00  0.00     0.033 C 
HETATM    4  C14 UNL     1      23.117   2.814  53.406  1.00  0.00     0.186 C 
HETATM    5  C21 UNL     1      23.455   3.137  51.960  1.00  0.00     0.033 C 
HETATM    6  C22 UNL     1      24.497   2.110  51.570  1.00  0.00     0.008 C 
ENDROOT
BRANCH   1   7
HETATM    7  C10 UNL     1      26.889   2.482  51.964  1.00  0.00     0.121 C 
BRANCH   7   8
HETATM    8  N1  UNL     1      27.493   1.550  51.072  1.00  0.00    -0.412 N 
HETATM    9  C9  UNL     1      28.266   2.148  50.022  1.00  0.00     0.120 C 
HETATM   10  C8  UNL     1      29.625   1.506  49.952  1.00  0.00     0.062 C 
HETATM   11  C1  UNL     1      29.461   0.058  49.571  1.00  0.00     0.088 C 
HETATM   12  C24 UNL     1      28.393  -0.573  50.377  1.00  0.00     0.062 C 
HETATM   13  C23 UNL     1      27.981   0.331  51.561  1.00  0.00     0.120 C 
BRANCH  11  14
HETATM   14  O1  UNL     1      29.128   0.023  48.198  1.00  0.00    -0.385 OA
ATOM     15  H1  UNL     1      28.759   0.874  47.995  1.00  0.00     0.211 HD
ENDBRANCH  11  14
BRANCH  11  16
HETATM   16  C2  UNL     1      30.791  -0.585  49.688  1.00  0.00    -0.024 A 
HETATM   17  C3  UNL     1      31.248  -1.265  48.572  1.00  0.00     0.013 A 
HETATM   18  C4  UNL     1      32.480  -1.876  48.545  1.00  0.00     0.043 A 
HETATM   19  C5  UNL     1      33.280  -1.818  49.647  1.00  0.00     0.116 A 
HETATM   20  F1  UNL     1      34.500  -2.387  49.719  1.00  0.00    -0.206 F 
HETATM   21  C6  UNL     1      32.844  -1.140  50.785  1.00  0.00     0.043 A 
HETATM   22  C7  UNL     1      31.598  -0.540  50.772  1.00  0.00     0.013 A 
ENDBRANCH  11  16
ENDBRANCH   7   8
ENDBRANCH   1   7
BRANCH   4  23
HETATM   23  N2  UNL     1      21.855   3.294  53.849  1.00  0.00    -0.070 N 
ATOM     24  H22 UNL     1      21.231   2.550  54.160  1.00  0.00     0.277 HD
ATOM     25  H21 UNL     1      21.907   3.800  54.734  1.00  0.00     0.277 HD
BRANCH  23  26
HETATM   26  C15 UNL     1      21.295   4.092  52.770  1.00  0.00     0.237 C 
BRANCH  26  27
HETATM   27  C16 UNL     1      20.073   4.856  53.143  1.00  0.00     0.015 C 
HETATM   28  C17 UNL     1      19.812   5.848  52.000  1.00  0.00     0.032 C 
HETATM   29  C18 UNL     1      18.745   6.842  52.402  1.00  0.00     0.168 C 
HETATM   30  O2  UNL     1      19.240   7.557  53.491  1.00  0.00    -0.391 OA
HETATM   31  C19 UNL     1      19.223   6.716  54.586  1.00  0.00     0.168 C 
HETATM   32  C20 UNL     1      20.163   5.539  54.467  1.00  0.00     0.032 C 
ENDBRANCH  26  27
ENDBRANCH  23  26
ENDBRANCH   4  23
TORSDOF 7
ENDMDL
MODEL 2
REMARK VINA RESULT: -7.427266665      0.615      1.025
REMARK  7 active torsions:
REMARK  status: ('A' for Active; 'I' for Inactive)
REMARK    1  A    between atoms: O1_1  and  C1_3 
REMARK    2  A    between atoms: C1_3  and  C2_4 
REMARK    3  A    between atoms: N1_13  and  C10_14 
REMARK    4  A    between atoms: C10_14  and  C11_15 
REMARK    5  A    between atoms: C14_18  and  N2_19 
REMARK    6  A    between atoms: N2_19  and  C15_22 
REMARK    7  A    between atoms: C15_22  and  C16_23 
ROOT
HETATM    1  C11 UNL     1      25.623   1.843  52.615  1.00  0.00     0.003 C 
HETATM    2  C12 UNL     1      25.534   2.225  54.033  1.00  0.00     0.008 C 
HETATM    3  C13 UNL     1      24.399   3.159  54.365  1.00  0.00     0.033 C 
HETATM    4  C14 UNL     1      23.182   2.639  53.634  1.00  0.00     0.186 C 
HETATM    5  C21 UNL     1      23.425   2.980  52.173  1.00  0.00     0.033 C 
HETATM    6  C22 UNL     1      24.479   1.994  51.717  1.00  0.00     0.008 C 
ENDROOT
BRANCH   1   7
HETATM    7  C10 UNL     1      26.875   2.450  51.976  1.00  0.00     0.121 C 
BRANCH   7   8
HETATM    8  N1  UNL     1      27.485   1.527  51.079  1.00  0.00    -0.412 N 
HETATM    9  C9  UNL     1      28.260   2.136  50.037  1.00  0.00     0.120 C 
HETATM   10  C8  UNL     1      29.621   1.499  49.967  1.00  0.00     0.062 C 
HETATM   11  C1  UNL     1      29.465   0.053  49.575  1.00  0.00     0.088 C 
HETATM   12  C24 UNL     1      28.396  -0.587  50.371  1.00  0.00     0.062 C 
HETATM   13  C23 UNL     1      27.976   0.306  51.561  1.00  0.00     0.120 C 
BRANCH  11  14
HETATM   14  O1  UNL     1      29.137   0.028  48.200  1.00  0.00    -0.385 OA
ATOM     15  H1  UNL     1      28.720   0.861  48.013  1.00  0.00     0.211 HD
ENDBRANCH  11  14
BRANCH  11  16
HETATM   16  C2  UNL     1      30.796  -0.585  49.692  1.00  0.00    -0.024 A 
HETATM   17  C3  UNL     1      31.256  -1.263  48.575  1.00  0.00     0.013 A 
HETATM   18  C4  UNL     1      32.490  -1.870  48.548  1.00  0.00     0.043 A 
HETATM   19  C5  UNL     1      33.289  -1.811  49.651  1.00  0.00     0.116 A 
HETATM   20  F1  UNL     1      34.511  -2.376  49.723  1.00  0.00    -0.206 F 
HETATM   21  C6  UNL     1      32.850  -1.134  50.789  1.00  0.00     0.043 A 
HETATM   22  C7  UNL     1      31.603  -0.539  50.776  1.00  0.00     0.013 A 
ENDBRANCH  11  16
ENDBRANCH   7   8
ENDBRANCH   1   7
BRANCH   4  23
HETATM   23  N2  UNL     1      21.931   3.071  54.151  1.00  0.00    -0.070 N 
ATOM     24  H22 UNL     1      21.350   2.302  54.484  1.00  0.00     0.277 HD
ATOM     25  H21 UNL     1      22.016   3.566  55.040  1.00  0.00     0.277 HD
BRANCH  23  26
HETATM   26  C15 UNL     1      21.288   3.864  53.117  1.00  0.00     0.237 C 
BRANCH  26  27
HETATM   27  C16 UNL     1      20.500   5.019  53.630  1.00  0.00     0.015 C 
HETATM   28  C17 UNL     1      19.495   4.447  54.640  1.00  0.00     0.032 C 
HETATM   29  C18 UNL     1      18.481   5.502  55.024  1.00  0.00     0.168 C 
HETATM   30  O2  UNL     1      17.785   5.843  53.866  1.00  0.00    -0.391 OA
HETATM   31  C19 UNL     1      18.632   6.589  53.073  1.00  0.00     0.168 C 
HETATM   32  C20 UNL     1      19.829   5.819  52.563  1.00  0.00     0.032 C 
ENDBRANCH  26  27
ENDBRANCH  23  26
ENDBRANCH   4  23
TORSDOF 7
ENDMDL
MODEL 3
REMARK VINA RESULT: -7.367022794      3.397      4.481
REMARK  7 active torsions:
REMARK  status: ('A' for Active; 'I' for Inactive)
REMARK    1  A    between atoms: O1_1  and  C1_3 
REMARK    2  A    between atoms: C1_3  and  C2_4 
REMARK    3  A    between atoms: N1_13  and  C10_14 
REMARK    4  A    between atoms: C10_14  and  C11_15 
REMARK    5  A    between atoms: C14_18  and  N2_19 
REMARK    6  A    between atoms: N2_19  and  C15_22 
REMARK    7  A    between atoms: C15_22  and  C16_23 
ROOT
HETATM    1  C11 UNL     1      27.118   4.361  50.876  1.00  0.00     0.003 C 
HETATM    2  C12 UNL     1      25.782   4.006  50.368  1.00  0.00     0.008 C 
HETATM    3  C13 UNL     1      25.026   3.018  51.218  1.00  0.00     0.033 C 
HETATM    4  C14 UNL     1      25.209   3.454  52.655  1.00  0.00     0.186 C 
HETATM    5  C21 UNL     1      26.646   3.095  52.995  1.00  0.00     0.033 C 
HETATM    6  C22 UNL     1      27.483   4.127  52.272  1.00  0.00     0.008 C 
ENDROOT
BRANCH   1   7
HETATM    7  C10 UNL     1      28.205   3.811  49.949  1.00  0.00     0.121 C 
BRANCH   7   8
HETATM    8  N1  UNL     1      28.814   2.654  50.513  1.00  0.00    -0.412 N 
HETATM    9  C9  UNL     1      28.233   1.412  50.092  1.00  0.00     0.120 C 
HETATM   10  C8  UNL     1      29.309   0.470  49.624  1.00  0.00     0.062 C 
HETATM   11  C1  UNL     1      30.204   0.134  50.789  1.00  0.00     0.088 C 
HETATM   12  C24 UNL     1      30.573   1.360  51.530  1.00  0.00     0.062 C 
HETATM   13  C23 UNL     1      30.198   2.629  50.730  1.00  0.00     0.120 C 
BRANCH  11  14
HETATM   14  O1  UNL     1      29.485  -0.749  51.625  1.00  0.00    -0.385 OA
ATOM     15  H1  UNL     1      28.937  -0.203  52.177  1.00  0.00     0.211 HD
ENDBRANCH  11  14
BRANCH  11  16
HETATM   16  C2  UNL     1      31.349  -0.641  50.259  1.00  0.00    -0.024 A 
HETATM   17  C3  UNL     1      31.204  -1.164  48.985  1.00  0.00     0.013 A 
HETATM   18  C4  UNL     1      32.209  -1.876  48.371  1.00  0.00     0.043 A 
HETATM   19  C5  UNL     1      33.384  -2.079  49.030  1.00  0.00     0.116 A 
HETATM   20  F1  UNL     1      34.424  -2.765  48.514  1.00  0.00    -0.206 F 
HETATM   21  C6  UNL     1      33.557  -1.563  50.315  1.00  0.00     0.043 A 
HETATM   22  C7  UNL     1      32.522  -0.855  50.897  1.00  0.00     0.013 A 
ENDBRANCH  11  16
ENDBRANCH   7   8
ENDBRANCH   1   7
BRANCH   4  23
HETATM   23  N2  UNL     1      24.235   2.965  53.567  1.00  0.00    -0.070 N 
ATOM     24  H22 UNL     1      24.642   2.598  54.427  1.00  0.00     0.277 HD
ATOM     25  H21 UNL     1      23.677   3.707  53.991  1.00  0.00     0.277 HD
BRANCH  23  26
HETATM   26  C15 UNL     1      23.431   1.985  52.854  1.00  0.00     0.237 C 
BRANCH  26  27
HETATM   27  C16 UNL     1      23.480   0.614  53.432  1.00  0.00     0.015 C 
HETATM   28  C17 UNL     1      24.060   0.757  54.847  1.00  0.00     0.032 C 
HETATM   29  C18 UNL     1      24.387  -0.605  55.419  1.00  0.00     0.168 C 
HETATM   30  O2  UNL     1      25.367  -1.167  54.604  1.00  0.00    -0.391 OA
HETATM   31  C19 UNL     1      24.766  -1.534  53.417  1.00  0.00     0.168 C 
HETATM   32  C20 UNL     1      24.248  -0.366  52.609  1.00  0.00     0.032 C 
ENDBRANCH  26  27
ENDBRANCH  23  26
ENDBRANCH   4  23
TORSDOF 7
ENDMDL
MODEL 4
REMARK VINA RESULT: -7.348759623      0.851      1.180
REMARK  7 active torsions:
REMARK  status: ('A' for Active; 'I' for Inactive)
REMARK    1  A    between atoms: O1_1  and  C1_3 
REMARK    2  A    between atoms: C1_3  and  C2_4 
REMARK    3  A    between atoms: N1_13  and  C10_14 
REMARK    4  A    between atoms: C10_14  and  C11_15 
REMARK    5  A    between atoms: C14_18  and  N2_19 
REMARK    6  A    between atoms: N2_19  and  C15_22 
REMARK    7  A    between atoms: C15_22  and  C16_23 
ROOT
HETATM    1  C11 UNL     1      25.122   1.832  52.651  1.00  0.00     0.003 C 
HETATM    2  C12 UNL     1      23.849   1.100  52.548  1.00  0.00     0.008 C 
HETATM    3  C13 UNL     1      22.814   1.489  53.572  1.00  0.00     0.033 C 
HETATM    4  C14 UNL     1      22.825   2.999  53.648  1.00  0.00     0.186 C 
HETATM    5  C21 UNL     1      24.110   3.346  54.383  1.00  0.00     0.033 C 
HETATM    6  C22 UNL     1      25.210   3.099  53.374  1.00  0.00     0.008 C 
ENDROOT
BRANCH   1   7
HETATM    7  C10 UNL     1      26.244   0.892  53.100  1.00  0.00     0.121 C 
BRANCH   7   8
HETATM    8  N1  UNL     1      26.956   0.379  51.979  1.00  0.00    -0.412 N 
HETATM    9  C9  UNL     1      27.648   1.373  51.210  1.00  0.00     0.120 C 
HETATM   10  C8  UNL     1      29.075   0.954  50.988  1.00  0.00     0.062 C 
HETATM   11  C1  UNL     1      29.091  -0.300  50.153  1.00  0.00     0.088 C 
HETATM   12  C24 UNL     1      28.111  -1.279  50.669  1.00  0.00     0.062 C 
HETATM   13  C23 UNL     1      27.592  -0.866  52.065  1.00  0.00     0.120 C 
BRANCH  11  14
HETATM   14  O1  UNL     1      28.762   0.076  48.831  1.00  0.00    -0.385 OA
ATOM     15  H1  UNL     1      28.271   0.886  48.901  1.00  0.00     0.211 HD
ENDBRANCH  11  14
BRANCH  11  16
HETATM   16  C2  UNL     1      30.490  -0.785  50.107  1.00  0.00    -0.024 A 
HETATM   17  C3  UNL     1      30.961  -1.194  48.870  1.00  0.00     0.013 A 
HETATM   18  C4  UNL     1      32.252  -1.635  48.692  1.00  0.00     0.043 A 
HETATM   19  C5  UNL     1      33.099  -1.675  49.759  1.00  0.00     0.116 A 
HETATM   20  F1  UNL     1      34.379  -2.094  49.686  1.00  0.00    -0.206 F 
HETATM   21  C6  UNL     1      32.650  -1.269  51.016  1.00  0.00     0.043 A 
HETATM   22  C7  UNL     1      31.345  -0.834  51.153  1.00  0.00     0.013 A 
ENDBRANCH  11  16
ENDBRANCH   7   8
ENDBRANCH   1   7
BRANCH   4  23
HETATM   23  N2  UNL     1      21.649   3.590  54.183  1.00  0.00    -0.070 N 
ATOM     24  H22 UNL     1      21.102   2.945  54.752  1.00  0.00     0.277 HD
ATOM     25  H21 UNL     1      21.843   4.277  54.912  1.00  0.00     0.277 HD
BRANCH  23  26
HETATM   26  C15 UNL     1      20.899   4.141  53.066  1.00  0.00     0.237 C 
BRANCH  26  27
HETATM   27  C16 UNL     1      19.768   5.025  53.463  1.00  0.00     0.015 C 
HETATM   28  C17 UNL     1      19.441   5.893  52.240  1.00  0.00     0.032 C 
HETATM   29  C18 UNL     1      18.481   6.997  52.622  1.00  0.00     0.168 C 
HETATM   30  O2  UNL     1      19.129   7.798  53.561  1.00  0.00    -0.391 OA
HETATM   31  C19 UNL     1      19.183   7.093  54.746  1.00  0.00     0.168 C 
HETATM   32  C20 UNL     1      20.039   5.848  54.678  1.00  0.00     0.032 C 
ENDBRANCH  26  27
ENDBRANCH  23  26
ENDBRANCH   4  23
TORSDOF 7
ENDMDL
MODEL 5
REMARK VINA RESULT: -7.279977341      1.280      1.980
REMARK  7 active torsions:
REMARK  status: ('A' for Active; 'I' for Inactive)
REMARK    1  A    between atoms: O1_1  and  C1_3 
REMARK    2  A    between atoms: C1_3  and  C2_4 
REMARK    3  A    between atoms: N1_13  and  C10_14 
REMARK    4  A    between atoms: C10_14  and  C11_15 
REMARK    5  A    between atoms: C14_18  and  N2_19 
REMARK    6  A    between atoms: N2_19  and  C15_22 
REMARK    7  A    between atoms: C15_22  and  C16_23 
ROOT
HETATM    1  C11 UNL     1      25.490   2.932  53.329  1.00  0.00     0.003 C 
HETATM    2  C12 UNL     1      24.443   2.621  52.342  1.00  0.00     0.008 C 
HETATM    3  C13 UNL     1      23.082   2.352  52.930  1.00  0.00     0.033 C 
HETATM    4  C14 UNL     1      22.849   3.409  53.985  1.00  0.00     0.186 C 
HETATM    5  C21 UNL     1      23.751   3.014  55.143  1.00  0.00     0.033 C 
HETATM    6  C22 UNL     1      25.148   3.370  54.681  1.00  0.00     0.008 C 
ENDROOT
BRANCH   1   7
HETATM    7  C10 UNL     1      26.521   1.802  53.388  1.00  0.00     0.121 C 
BRANCH   7   8
HETATM    8  N1  UNL     1      27.514   1.968  52.381  1.00  0.00    -0.412 N 
HETATM    9  C9  UNL     1      28.858   2.036  52.878  1.00  0.00     0.120 C 
HETATM   10  C8  UNL     1      29.739   1.082  52.118  1.00  0.00     0.062 C 
HETATM   11  C1  UNL     1      29.807   1.523  50.679  1.00  0.00     0.088 C 
HETATM   12  C24 UNL     1      28.456   1.839  50.169  1.00  0.00     0.062 C 
HETATM   13  C23 UNL     1      27.362   1.338  51.139  1.00  0.00     0.120 C 
BRANCH  11  14
HETATM   14  O1  UNL     1      30.632   2.670  50.634  1.00  0.00    -0.385 OA
ATOM     15  H1  UNL     1      30.645   2.950  49.726  1.00  0.00     0.211 HD
ENDBRANCH  11  14
BRANCH  11  16
HETATM   16  C2  UNL     1      30.527   0.469  49.926  1.00  0.00    -0.024 A 
HETATM   17  C3  UNL     1      31.640  -0.079  50.542  1.00  0.00     0.013 A 
HETATM   18  C4  UNL     1      32.373  -1.086  49.959  1.00  0.00     0.043 A 
HETATM   19  C5  UNL     1      32.001  -1.563  48.737  1.00  0.00     0.116 A 
HETATM   20  F1  UNL     1      32.656  -2.545  48.085  1.00  0.00    -0.206 F 
HETATM   21  C6  UNL     1      30.883  -1.029  48.095  1.00  0.00     0.043 A 
HETATM   22  C7  UNL     1      30.175  -0.017  48.715  1.00  0.00     0.013 A 
ENDBRANCH  11  16
ENDBRANCH   7   8
ENDBRANCH   1   7
BRANCH   4  23
HETATM   23  N2  UNL     1      21.490   3.633  54.333  1.00  0.00    -0.070 N 
ATOM     24  H22 UNL     1      21.034   2.805  54.715  1.00  0.00     0.277 HD
ATOM     25  H21 UNL     1      21.380   4.234  55.150  1.00  0.00     0.277 HD
BRANCH  23  26
HETATM   26  C15 UNL     1      20.824   4.155  53.150  1.00  0.00     0.237 C 
BRANCH  26  27
HETATM   27  C16 UNL     1      19.710   5.099  53.440  1.00  0.00     0.015 C 
HETATM   28  C17 UNL     1      19.489   5.920  52.161  1.00  0.00     0.032 C 
HETATM   29  C18 UNL     1      18.554   7.077  52.436  1.00  0.00     0.168 C 
HETATM   30  O2  UNL     1      19.180   7.896  53.374  1.00  0.00    -0.391 OA
HETATM   31  C19 UNL     1      19.138   7.247  54.591  1.00  0.00     0.168 C 
HETATM   32  C20 UNL     1      19.944   5.969  54.630  1.00  0.00     0.032 C 
ENDBRANCH  26  27
ENDBRANCH  23  26
ENDBRANCH   4  23
TORSDOF 7
ENDMDL
