MODEL 1
REMARK VINA RESULT: -7.486525763      0.000      0.000
REMARK  4 active torsions:
REMARK  status: ('A' for Active; 'I' for Inactive)
REMARK    1  A    between atoms: C2_2  and  C3_3 
REMARK    2  A    between atoms: C3_3  and  C4_4 
REMARK    3  A    between atoms: C4_4  and  C5_5 
REMARK    4  A    between atoms: C5_5  and  N1_6 
ROOT
HETATM    1  C3  UNL     1       8.943  25.298   2.214  1.00  0.00     0.123 C 
HETATM    2  C13 UNL     1       8.885  26.763   2.181  1.00  0.00     0.243 C 
HETATM    3  O1  UNL     1       7.859  27.443   2.560  1.00  0.00    -0.272 OA
HETATM    4  N2  UNL     1      10.029  27.480   1.706  1.00  0.00    -0.278 N 
ATOM      5  H2  UNL     1       9.886  28.434   1.376  1.00  0.00     0.173 HD
HETATM    6  C14 UNL     1      11.344  26.960   1.660  1.00  0.00     0.329 C 
HETATM    7  O2  UNL     1      12.290  27.661   1.228  1.00  0.00    -0.247 OA
HETATM    8  N3  UNL     1      11.493  25.615   2.135  1.00  0.00    -0.278 N 
ATOM      9  H3  UNL     1      12.410  25.167   2.136  1.00  0.00     0.173 HD
HETATM   10  C15 UNL     1      10.353  24.916   2.602  1.00  0.00     0.243 C 
HETATM   11  O3  UNL     1      10.529  23.939   3.369  1.00  0.00    -0.272 OA
ENDROOT
BRANCH   1  12
HETATM   12  C2  UNL     1       8.580  24.615   0.920  1.00  0.00     0.025 C 
HETATM   13  C1  UNL     1       8.645  25.497  -0.296  1.00  0.00     0.007 C 
ENDBRANCH   1  12
BRANCH   1  14
HETATM   14  C4  UNL     1       8.045  24.690   3.281  1.00  0.00     0.049 C 
BRANCH  14  15
HETATM   15  C5  UNL     1       7.199  23.565   2.832  1.00  0.00     0.129 C 
BRANCH  15  16
HETATM   16  N1  UNL     1       6.265  23.133   3.894  1.00  0.00    -0.365 N 
HETATM   17  C6  UNL     1       5.376  22.149   3.689  1.00  0.00     0.097 A 
HETATM   18  C7  UNL     1       4.490  21.713   4.636  1.00  0.00    -0.046 A 
HETATM   19  C8  UNL     1       3.511  20.606   4.358  1.00  0.00     0.049 C 
HETATM   20  C9  UNL     1       4.501  22.310   5.877  1.00  0.00     0.016 A 
HETATM   21  C10 UNL     1       5.404  23.325   6.119  1.00  0.00    -0.046 A 
HETATM   22  C11 UNL     1       5.442  23.993   7.453  1.00  0.00     0.049 C 
HETATM   23  C12 UNL     1       6.267  23.710   5.108  1.00  0.00     0.097 A 
ENDBRANCH  15  16
ENDBRANCH  14  15
ENDBRANCH   1  14
TORSDOF 4
ENDMDL
MODEL 2
REMARK VINA RESULT: -7.478460167      0.035      1.843
REMARK  4 active torsions:
REMARK  status: ('A' for Active; 'I' for Inactive)
REMARK    1  A    between atoms: C2_2  and  C3_3 
REMARK    2  A    between atoms: C3_3  and  C4_4 
REMARK    3  A    between atoms: C4_4  and  C5_5 
REMARK    4  A    between atoms: C5_5  and  N1_6 
ROOT
HETATM    1  C3  UNL     1       8.944  25.286   2.189  1.00  0.00     0.123 C 
HETATM    2  C13 UNL     1       8.887  26.752   2.172  1.00  0.00     0.243 C 
HETATM    3  O1  UNL     1       7.864  27.428   2.562  1.00  0.00    -0.272 OA
HETATM    4  N2  UNL     1      10.030  27.473   1.699  1.00  0.00    -0.278 N 
ATOM      5  H2  UNL     1       9.887  28.430   1.380  1.00  0.00     0.173 HD
HETATM    6  C14 UNL     1      11.344  26.952   1.643  1.00  0.00     0.329 C 
HETATM    7  O2  UNL     1      12.289  27.657   1.215  1.00  0.00    -0.247 OA
HETATM    8  N3  UNL     1      11.495  25.602   2.103  1.00  0.00    -0.278 N 
ATOM      9  H3  UNL     1      12.411  25.154   2.096  1.00  0.00     0.173 HD
HETATM   10  C15 UNL     1      10.356  24.899   2.567  1.00  0.00     0.243 C 
HETATM   11  O3  UNL     1      10.533  23.914   3.323  1.00  0.00    -0.272 OA
ENDROOT
BRANCH   1  12
HETATM   12  C2  UNL     1       8.576  24.617   0.889  1.00  0.00     0.025 C 
HETATM   13  C1  UNL     1       8.670  25.503  -0.323  1.00  0.00     0.007 C 
ENDBRANCH   1  12
BRANCH   1  14
HETATM   14  C4  UNL     1       8.050  24.668   3.253  1.00  0.00     0.049 C 
BRANCH  14  15
HETATM   15  C5  UNL     1       7.193  23.556   2.793  1.00  0.00     0.129 C 
BRANCH  15  16
HETATM   16  N1  UNL     1       6.256  23.121   3.851  1.00  0.00    -0.365 N 
HETATM   17  C6  UNL     1       6.260  23.688   5.067  1.00  0.00     0.097 A 
HETATM   18  C7  UNL     1       5.415  23.322   6.080  1.00  0.00    -0.046 A 
HETATM   19  C8  UNL     1       5.458  23.988   7.428  1.00  0.00     0.049 C 
HETATM   20  C9  UNL     1       4.504  22.316   5.851  1.00  0.00     0.016 A 
HETATM   21  C10 UNL     1       4.476  21.713   4.611  1.00  0.00    -0.046 A 
HETATM   22  C11 UNL     1       3.501  20.619   4.330  1.00  0.00     0.049 C 
HETATM   23  C12 UNL     1       5.364  22.139   3.638  1.00  0.00     0.097 A 
ENDBRANCH  15  16
ENDBRANCH  14  15
ENDBRANCH   1  14
TORSDOF 4
ENDMDL
MODEL 3
REMARK VINA RESULT: -7.441797170      1.395      2.501
REMARK  4 active torsions:
REMARK  status: ('A' for Active; 'I' for Inactive)
REMARK    1  A    between atoms: C2_2  and  C3_3 
REMARK    2  A    between atoms: C3_3  and  C4_4 
REMARK    3  A    between atoms: C4_4  and  C5_5 
REMARK    4  A    between atoms: C5_5  and  N1_6 
ROOT
HETATM    1  C3  UNL     1       9.201  24.448   2.738  1.00  0.00     0.123 C 
HETATM    2  C13 UNL     1       9.570  25.088   1.471  1.00  0.00     0.243 C 
HETATM    3  O1  UNL     1       8.791  25.141   0.447  1.00  0.00    -0.272 OA
HETATM    4  N2  UNL     1      10.865  25.689   1.363  1.00  0.00    -0.278 N 
ATOM      5  H2  UNL     1      11.243  25.832   0.428  1.00  0.00     0.173 HD
HETATM    6  C14 UNL     1      11.656  26.099   2.461  1.00  0.00     0.329 C 
HETATM    7  O2  UNL     1      12.782  26.620   2.274  1.00  0.00    -0.247 OA
HETATM    8  N3  UNL     1      11.080  25.877   3.756  1.00  0.00    -0.278 N 
ATOM      9  H3  UNL     1      11.587  26.146   4.599  1.00  0.00     0.173 HD
HETATM   10  C15 UNL     1       9.799  25.280   3.849  1.00  0.00     0.243 C 
HETATM   11  O3  UNL     1       9.138  25.453   4.902  1.00  0.00    -0.272 OA
ENDROOT
BRANCH   1  12
HETATM   12  C2  UNL     1       9.654  23.018   2.888  1.00  0.00     0.025 C 
HETATM   13  C1  UNL     1      10.507  22.508   1.759  1.00  0.00     0.007 C 
ENDBRANCH   1  12
BRANCH   1  14
HETATM   14  C4  UNL     1       7.700  24.446   2.989  1.00  0.00     0.049 C 
BRANCH  14  15
HETATM   15  C5  UNL     1       7.016  23.160   2.738  1.00  0.00     0.129 C 
BRANCH  15  16
HETATM   16  N1  UNL     1       6.080  22.823   3.831  1.00  0.00    -0.365 N 
HETATM   17  C6  UNL     1       6.139  23.441   5.021  1.00  0.00     0.097 A 
HETATM   18  C7  UNL     1       5.298  23.165   6.065  1.00  0.00    -0.046 A 
HETATM   19  C8  UNL     1       5.404  23.885   7.381  1.00  0.00     0.049 C 
HETATM   20  C9  UNL     1       4.331  22.199   5.898  1.00  0.00     0.016 A 
HETATM   21  C10 UNL     1       4.245  21.546   4.686  1.00  0.00    -0.046 A 
HETATM   22  C11 UNL     1       3.208  20.494   4.472  1.00  0.00     0.049 C 
HETATM   23  C12 UNL     1       5.133  21.881   3.678  1.00  0.00     0.097 A 
ENDBRANCH  15  16
ENDBRANCH  14  15
ENDBRANCH   1  14
TORSDOF 4
ENDMDL
MODEL 4
REMARK VINA RESULT: -7.431580022      1.400      1.702
REMARK  4 active torsions:
REMARK  status: ('A' for Active; 'I' for Inactive)
REMARK    1  A    between atoms: C2_2  and  C3_3 
REMARK    2  A    between atoms: C3_3  and  C4_4 
REMARK    3  A    between atoms: C4_4  and  C5_5 
REMARK    4  A    between atoms: C5_5  and  N1_6 
ROOT
HETATM    1  C3  UNL     1       9.209  24.444   2.724  1.00  0.00     0.123 C 
HETATM    2  C13 UNL     1       9.586  25.067   1.450  1.00  0.00     0.243 C 
HETATM    3  O1  UNL     1       8.813  25.108   0.422  1.00  0.00    -0.272 OA
HETATM    4  N2  UNL     1      10.883  25.664   1.343  1.00  0.00    -0.278 N 
ATOM      5  H2  UNL     1      11.267  25.794   0.407  1.00  0.00     0.173 HD
HETATM    6  C14 UNL     1      11.669  26.088   2.440  1.00  0.00     0.329 C 
HETATM    7  O2  UNL     1      12.796  26.604   2.252  1.00  0.00    -0.247 OA
HETATM    8  N3  UNL     1      11.085  25.884   3.734  1.00  0.00    -0.278 N 
ATOM      9  H3  UNL     1      11.587  26.163   4.576  1.00  0.00     0.173 HD
HETATM   10  C15 UNL     1       9.802  25.290   3.827  1.00  0.00     0.243 C 
HETATM   11  O3  UNL     1       9.136  25.478   4.874  1.00  0.00    -0.272 OA
ENDROOT
BRANCH   1  12
HETATM   12  C2  UNL     1       9.658  23.016   2.896  1.00  0.00     0.025 C 
HETATM   13  C1  UNL     1      10.506  22.485   1.773  1.00  0.00     0.007 C 
ENDBRANCH   1  12
BRANCH   1  14
HETATM   14  C4  UNL     1       7.706  24.449   2.966  1.00  0.00     0.049 C 
BRANCH  14  15
HETATM   15  C5  UNL     1       7.022  23.161   2.728  1.00  0.00     0.129 C 
BRANCH  15  16
HETATM   16  N1  UNL     1       6.091  22.831   3.828  1.00  0.00    -0.365 N 
HETATM   17  C6  UNL     1       5.143  21.892   3.687  1.00  0.00     0.097 A 
HETATM   18  C7  UNL     1       4.256  21.551   4.673  1.00  0.00    -0.046 A 
HETATM   19  C8  UNL     1       3.210  20.490   4.466  1.00  0.00     0.049 C 
HETATM   20  C9  UNL     1       4.331  22.201   5.884  1.00  0.00     0.016 A 
HETATM   21  C10 UNL     1       5.296  23.171   6.060  1.00  0.00    -0.046 A 
HETATM   22  C11 UNL     1       5.404  23.895   7.361  1.00  0.00     0.049 C 
HETATM   23  C12 UNL     1       6.155  23.461   5.014  1.00  0.00     0.097 A 
ENDBRANCH  15  16
ENDBRANCH  14  15
ENDBRANCH   1  14
TORSDOF 4
ENDMDL
MODEL 5
REMARK VINA RESULT: -7.344435721      1.636      2.993
REMARK  4 active torsions:
REMARK  status: ('A' for Active; 'I' for Inactive)
REMARK    1  A    between atoms: C2_2  and  C3_3 
REMARK    2  A    between atoms: C3_3  and  C4_4 
REMARK    3  A    between atoms: C4_4  and  C5_5 
REMARK    4  A    between atoms: C5_5  and  N1_6 
ROOT
HETATM    1  C3  UNL     1       9.206  25.147   1.663  1.00  0.00     0.123 C 
HETATM    2  C13 UNL     1       9.427  25.177   0.213  1.00  0.00     0.243 C 
HETATM    3  O1  UNL     1       9.055  24.236  -0.582  1.00  0.00    -0.272 OA
HETATM    4  N2  UNL     1      10.089  26.314  -0.352  1.00  0.00    -0.278 N 
ATOM      5  H2  UNL     1      10.529  26.199  -1.264  1.00  0.00     0.173 HD
HETATM    6  C14 UNL     1      10.177  27.584   0.265  1.00  0.00     0.329 C 
HETATM    7  O2  UNL     1      10.778  28.526  -0.304  1.00  0.00    -0.247 OA
HETATM    8  N3  UNL     1       9.544  27.694   1.546  1.00  0.00    -0.278 N 
ATOM      9  H3  UNL     1       9.561  28.577   2.057  1.00  0.00     0.173 HD
HETATM   10  C15 UNL     1       8.893  26.561   2.096  1.00  0.00     0.243 C 
HETATM   11  O3  UNL     1       8.021  26.748   2.978  1.00  0.00    -0.272 OA
ENDROOT
BRANCH   1  12
HETATM   12  C2  UNL     1      10.362  24.623   2.475  1.00  0.00     0.025 C 
HETATM   13  C1  UNL     1      11.446  23.959   1.671  1.00  0.00     0.007 C 
ENDBRANCH   1  12
BRANCH   1  14
HETATM   14  C4  UNL     1       7.995  24.318   2.064  1.00  0.00     0.049 C 
BRANCH  14  15
HETATM   15  C5  UNL     1       8.241  23.296   3.102  1.00  0.00     0.129 C 
BRANCH  15  16
HETATM   16  N1  UNL     1       7.369  23.498   4.278  1.00  0.00    -0.365 N 
HETATM   17  C6  UNL     1       7.659  24.411   5.218  1.00  0.00     0.097 A 
HETATM   18  C7  UNL     1       6.886  24.637   6.325  1.00  0.00    -0.046 A 
HETATM   19  C8  UNL     1       7.253  25.672   7.352  1.00  0.00     0.049 C 
HETATM   20  C9  UNL     1       5.742  23.890   6.496  1.00  0.00     0.016 A 
HETATM   21  C10 UNL     1       5.417  22.944   5.547  1.00  0.00    -0.046 A 
HETATM   22  C11 UNL     1       4.183  22.118   5.702  1.00  0.00     0.049 C 
HETATM   23  C12 UNL     1       6.250  22.774   4.455  1.00  0.00     0.097 A 
ENDBRANCH  15  16
ENDBRANCH  14  15
ENDBRANCH   1  14
TORSDOF 4
ENDMDL
