MODEL 1
REMARK VINA RESULT: -6.441205565      0.000      0.000
REMARK  4 active torsions:
REMARK  status: ('A' for Active; 'I' for Inactive)
REMARK    1  A    between atoms: N1_2  and  C3_4 
REMARK    2  A    between atoms: C3_4  and  C4_5 
REMARK    3  A    between atoms: C4_5  and  N2_6 
REMARK    4  A    between atoms: C6_9  and  C7_10 
ROOT
HETATM    1  N2  UNL     1       7.105  23.387   3.185  1.00  0.00    -0.312 N 
HETATM    2  C5  UNL     1       6.964  23.507   4.612  1.00  0.00     0.237 C 
HETATM    3  O1  UNL     1       6.505  22.424   5.122  1.00  0.00    -0.272 OA
HETATM    4  C6  UNL     1       7.201  24.518   5.627  1.00  0.00     0.170 C 
HETATM    5  C9  UNL     1       7.901  25.730   5.237  1.00  0.00     0.235 C 
HETATM    6  O2  UNL     1       7.654  26.771   5.944  1.00  0.00    -0.272 OA
HETATM    7  N3  UNL     1       8.819  25.910   4.179  1.00  0.00    -0.324 N 
ATOM      8  H3  UNL     1       9.616  26.517   4.366  1.00  0.00     0.169 HD
HETATM    9  C10 UNL     1       8.753  25.336   2.886  1.00  0.00     0.068 A 
HETATM   10  C11 UNL     1       9.555  25.998   1.981  1.00  0.00     0.106 A 
HETATM   11  C12 UNL     1       9.627  25.601   0.659  1.00  0.00     0.247 A 
HETATM   12  O3  UNL     1      10.345  26.170  -0.210  1.00  0.00    -0.268 OA
HETATM   13  N4  UNL     1       8.870  24.533   0.300  1.00  0.00    -0.331 N 
ATOM     14  H4  UNL     1       8.910  24.225  -0.672  1.00  0.00     0.168 HD
HETATM   15  C13 UNL     1       8.081  23.862   1.132  1.00  0.00     0.123 A 
HETATM   16  C14 UNL     1       7.993  24.234   2.448  1.00  0.00     0.080 A 
ENDROOT
BRANCH   1  17
HETATM   17  C4  UNL     1       6.333  22.398   2.507  1.00  0.00     0.152 C 
BRANCH  17  18
HETATM   18  C3  UNL     1       4.847  22.513   2.618  1.00  0.00     0.141 C 
BRANCH  18  19
HETATM   19  N1  UNL     1       4.190  21.238   2.669  1.00  0.00    -0.402 N 
HETATM   20  C1  UNL     1       3.978  20.496   1.680  1.00  0.00     0.114 C 
HETATM   21  C2  UNL     1       3.710  20.768   3.960  1.00  0.00     0.148 C 
ENDBRANCH  18  19
ENDBRANCH  17  18
ENDBRANCH   1  17
BRANCH   4  22
HETATM   22  C7  UNL     1       5.842  24.952   6.203  1.00  0.00     0.019 C 
HETATM   23  C8  UNL     1       5.561  24.333   7.538  1.00  0.00     0.006 C 
ENDBRANCH   4  22
TORSDOF 4
ENDMDL
MODEL 2
REMARK VINA RESULT: -6.242074125      2.122      2.581
REMARK  4 active torsions:
REMARK  status: ('A' for Active; 'I' for Inactive)
REMARK    1  A    between atoms: N1_2  and  C3_4 
REMARK    2  A    between atoms: C3_4  and  C4_5 
REMARK    3  A    between atoms: C4_5  and  N2_6 
REMARK    4  A    between atoms: C6_9  and  C7_10 
ROOT
HETATM    1  N2  UNL     1       5.649  22.952   4.005  1.00  0.00    -0.312 N 
HETATM    2  C5  UNL     1       6.296  23.397   5.211  1.00  0.00     0.237 C 
HETATM    3  O1  UNL     1       5.651  23.010   6.250  1.00  0.00    -0.272 OA
HETATM    4  C6  UNL     1       7.478  24.162   5.569  1.00  0.00     0.170 C 
HETATM    5  C9  UNL     1       8.417  24.505   4.515  1.00  0.00     0.235 C 
HETATM    6  O2  UNL     1       9.126  25.554   4.716  1.00  0.00    -0.272 OA
HETATM    7  N3  UNL     1       8.651  23.829   3.296  1.00  0.00    -0.324 N 
ATOM      8  H3  UNL     1       9.621  23.776   2.984  1.00  0.00     0.169 HD
HETATM    9  C10 UNL     1       7.685  23.217   2.461  1.00  0.00     0.068 A 
HETATM   10  C11 UNL     1       8.163  22.997   1.187  1.00  0.00     0.106 A 
HETATM   11  C12 UNL     1       7.373  22.417   0.213  1.00  0.00     0.247 A 
HETATM   12  O3  UNL     1       7.759  22.192  -0.968  1.00  0.00    -0.268 OA
HETATM   13  N4  UNL     1       6.109  22.077   0.574  1.00  0.00    -0.331 N 
ATOM     14  H4  UNL     1       5.511  21.647  -0.132  1.00  0.00     0.168 HD
HETATM   15  C13 UNL     1       5.601  22.268   1.786  1.00  0.00     0.123 A 
HETATM   16  C14 UNL     1       6.364  22.840   2.770  1.00  0.00     0.080 A 
ENDROOT
BRANCH   1  17
HETATM   17  C4  UNL     1       4.263  22.620   4.062  1.00  0.00     0.152 C 
BRANCH  17  18
HETATM   18  C3  UNL     1       3.861  21.582   5.060  1.00  0.00     0.141 C 
BRANCH  18  19
HETATM   19  N1  UNL     1       4.320  20.267   4.715  1.00  0.00    -0.402 N 
HETATM   20  C1  UNL     1       4.031  19.656   3.658  1.00  0.00     0.114 C 
HETATM   21  C2  UNL     1       5.172  19.570   5.667  1.00  0.00     0.148 C 
ENDBRANCH  18  19
ENDBRANCH  17  18
ENDBRANCH   1  17
BRANCH   4  22
HETATM   22  C7  UNL     1       7.022  25.484   6.209  1.00  0.00     0.019 C 
HETATM   23  C8  UNL     1       7.411  25.587   7.652  1.00  0.00     0.006 C 
ENDBRANCH   4  22
TORSDOF 4
ENDMDL
MODEL 3
REMARK VINA RESULT: -6.228189871      2.220      4.960
REMARK  4 active torsions:
REMARK  status: ('A' for Active; 'I' for Inactive)
REMARK    1  A    between atoms: N1_2  and  C3_4 
REMARK    2  A    between atoms: C3_4  and  C4_5 
REMARK    3  A    between atoms: C4_5  and  N2_6 
REMARK    4  A    between atoms: C6_9  and  C7_10 
ROOT
HETATM    1  N2  UNL     1       6.702  23.197   3.831  1.00  0.00    -0.312 N 
HETATM    2  C5  UNL     1       5.696  23.117   4.858  1.00  0.00     0.237 C 
HETATM    3  O1  UNL     1       5.961  23.914   5.827  1.00  0.00    -0.272 OA
HETATM    4  C6  UNL     1       4.466  22.382   5.092  1.00  0.00     0.170 C 
HETATM    5  C9  UNL     1       3.926  21.584   4.004  1.00  0.00     0.235 C 
HETATM    6  O2  UNL     1       3.195  20.589   4.348  1.00  0.00    -0.272 OA
HETATM    7  N3  UNL     1       4.103  21.765   2.614  1.00  0.00    -0.324 N 
ATOM      8  H3  UNL     1       3.290  21.587   2.025  1.00  0.00     0.169 HD
HETATM    9  C10 UNL     1       5.288  22.167   1.950  1.00  0.00     0.068 A 
HETATM   10  C11 UNL     1       5.254  21.875   0.603  1.00  0.00     0.106 A 
HETATM   11  C12 UNL     1       6.319  22.178  -0.224  1.00  0.00     0.247 A 
HETATM   12  O3  UNL     1       6.341  21.934  -1.463  1.00  0.00    -0.268 OA
HETATM   13  N4  UNL     1       7.392  22.775   0.354  1.00  0.00    -0.331 N 
ATOM     14  H4  UNL     1       8.187  23.007  -0.242  1.00  0.00     0.168 HD
HETATM   15  C13 UNL     1       7.474  23.077   1.645  1.00  0.00     0.123 A 
HETATM   16  C14 UNL     1       6.432  22.788   2.487  1.00  0.00     0.080 A 
ENDROOT
BRANCH   1  17
HETATM   17  C4  UNL     1       7.991  23.697   4.182  1.00  0.00     0.152 C 
BRANCH  17  18
HETATM   18  C3  UNL     1       8.173  25.181   4.129  1.00  0.00     0.141 C 
BRANCH  18  19
HETATM   19  N1  UNL     1       9.172  25.587   3.183  1.00  0.00    -0.402 N 
HETATM   20  C1  UNL     1      10.368  25.207   3.187  1.00  0.00     0.114 C 
HETATM   21  C2  UNL     1       8.785  26.530   2.143  1.00  0.00     0.148 C 
ENDBRANCH  18  19
ENDBRANCH  17  18
ENDBRANCH   1  17
BRANCH   4  22
HETATM   22  C7  UNL     1       4.691  21.428   6.277  1.00  0.00     0.019 C 
HETATM   23  C8  UNL     1       5.670  20.339   5.959  1.00  0.00     0.006 C 
ENDBRANCH   4  22
TORSDOF 4
ENDMDL
MODEL 4
REMARK VINA RESULT: -6.190983652      1.933      5.446
REMARK  4 active torsions:
REMARK  status: ('A' for Active; 'I' for Inactive)
REMARK    1  A    between atoms: N1_2  and  C3_4 
REMARK    2  A    between atoms: C3_4  and  C4_5 
REMARK    3  A    between atoms: C4_5  and  N2_6 
REMARK    4  A    between atoms: C6_9  and  C7_10 
ROOT
HETATM    1  N2  UNL     1       7.144  23.294   4.075  1.00  0.00    -0.312 N 
HETATM    2  C5  UNL     1       8.471  23.703   3.694  1.00  0.00     0.237 C 
HETATM    3  O1  UNL     1       9.254  23.728   4.709  1.00  0.00    -0.272 OA
HETATM    4  C6  UNL     1       9.160  24.093   2.477  1.00  0.00     0.170 C 
HETATM    5  C9  UNL     1       8.463  23.929   1.212  1.00  0.00     0.235 C 
HETATM    6  O2  UNL     1       8.832  24.710   0.264  1.00  0.00    -0.272 OA
HETATM    7  N3  UNL     1       7.432  23.018   0.892  1.00  0.00    -0.324 N 
ATOM      8  H3  UNL     1       7.465  22.602  -0.038  1.00  0.00     0.169 HD
HETATM    9  C10 UNL     1       6.357  22.619   1.724  1.00  0.00     0.068 A 
HETATM   10  C11 UNL     1       5.330  22.044   1.007  1.00  0.00     0.106 A 
HETATM   11  C12 UNL     1       4.182  21.595   1.631  1.00  0.00     0.247 A 
HETATM   12  O3  UNL     1       3.212  21.060   1.024  1.00  0.00    -0.268 OA
HETATM   13  N4  UNL     1       4.118  21.749   2.978  1.00  0.00    -0.331 N 
ATOM     14  H4  UNL     1       3.278  21.423   3.456  1.00  0.00     0.168 HD
HETATM   15  C13 UNL     1       5.078  22.297   3.714  1.00  0.00     0.123 A 
HETATM   16  C14 UNL     1       6.228  22.749   3.121  1.00  0.00     0.080 A 
ENDROOT
BRANCH   1  17
HETATM   17  C4  UNL     1       6.753  23.443   5.438  1.00  0.00     0.152 C 
BRANCH  17  18
HETATM   18  C3  UNL     1       6.163  24.761   5.827  1.00  0.00     0.141 C 
BRANCH  18  19
HETATM   19  N1  UNL     1       7.085  25.597   6.542  1.00  0.00    -0.402 N 
HETATM   20  C1  UNL     1       7.371  25.481   7.757  1.00  0.00     0.114 C 
HETATM   21  C2  UNL     1       7.731  26.679   5.813  1.00  0.00     0.148 C 
ENDBRANCH  18  19
ENDBRANCH  17  18
ENDBRANCH   1  17
BRANCH   4  22
HETATM   22  C7  UNL     1       9.538  25.579   2.590  1.00  0.00     0.019 C 
HETATM   23  C8  UNL     1      11.018  25.801   2.531  1.00  0.00     0.006 C 
ENDBRANCH   4  22
TORSDOF 4
ENDMDL
MODEL 5
REMARK VINA RESULT: -6.174832716      2.676      4.743
REMARK  4 active torsions:
REMARK  status: ('A' for Active; 'I' for Inactive)
REMARK    1  A    between atoms: N1_2  and  C3_4 
REMARK    2  A    between atoms: C3_4  and  C4_5 
REMARK    3  A    between atoms: C4_5  and  N2_6 
REMARK    4  A    between atoms: C6_9  and  C7_10 
ROOT
HETATM    1  N2  UNL     1       7.232  23.365   2.952  1.00  0.00    -0.312 N 
HETATM    2  C5  UNL     1       6.388  23.566   4.101  1.00  0.00     0.237 C 
HETATM    3  O1  UNL     1       6.866  24.475   4.870  1.00  0.00    -0.272 OA
HETATM    4  C6  UNL     1       5.148  23.021   4.623  1.00  0.00     0.170 C 
HETATM    5  C9  UNL     1       4.383  22.123   3.774  1.00  0.00     0.235 C 
HETATM    6  O2  UNL     1       3.627  21.285   4.384  1.00  0.00    -0.272 OA
HETATM    7  N3  UNL     1       4.364  22.055   2.363  1.00  0.00    -0.324 N 
ATOM      8  H3  UNL     1       3.459  21.876   1.929  1.00  0.00     0.169 HD
HETATM    9  C10 UNL     1       5.466  22.208   1.487  1.00  0.00     0.068 A 
HETATM   10  C11 UNL     1       5.205  21.707   0.230  1.00  0.00     0.106 A 
HETATM   11  C12 UNL     1       6.156  21.750  -0.772  1.00  0.00     0.247 A 
HETATM   12  O3  UNL     1       5.970  21.307  -1.940  1.00  0.00    -0.268 OA
HETATM   13  N4  UNL     1       7.352  22.309  -0.457  1.00  0.00    -0.331 N 
ATOM     14  H4  UNL     1       8.066  22.350  -1.184  1.00  0.00     0.168 HD
HETATM   15  C13 UNL     1       7.653  22.805   0.738  1.00  0.00     0.123 A 
HETATM   16  C14 UNL     1       6.729  22.776   1.749  1.00  0.00     0.080 A 
ENDROOT
BRANCH   1  17
HETATM   17  C4  UNL     1       8.598  23.767   3.034  1.00  0.00     0.152 C 
BRANCH  17  18
HETATM   18  C3  UNL     1       9.547  22.799   3.665  1.00  0.00     0.141 C 
BRANCH  18  19
HETATM   19  N1  UNL     1      10.484  22.245   2.729  1.00  0.00    -0.402 N 
HETATM   20  C1  UNL     1      10.855  21.048   2.703  1.00  0.00     0.114 C 
HETATM   21  C2  UNL     1      11.071  23.139   1.741  1.00  0.00     0.148 C 
ENDBRANCH  18  19
ENDBRANCH  17  18
ENDBRANCH   1  17
BRANCH   4  22
HETATM   22  C7  UNL     1       5.463  22.253   5.917  1.00  0.00     0.019 C 
HETATM   23  C8  UNL     1       4.961  22.957   7.140  1.00  0.00     0.006 C 
ENDBRANCH   4  22
TORSDOF 4
ENDMDL
