MODEL 1
REMARK VINA RESULT: -6.041562443      0.000      0.000
REMARK  5 active torsions:
REMARK  status: ('A' for Active; 'I' for Inactive)
REMARK    1  A    between atoms: C2_2  and  C3_3 
REMARK    2  A    between atoms: C3_3  and  N1_4 
REMARK    3  A    between atoms: N1_4  and  S1_6 
REMARK    4  A    between atoms: S1_6  and  C4_9 
REMARK    5  A    between atoms: C9_16  and  C10_17 
REMARK       I    between atoms: C10_17  and  N3_19 
ROOT
HETATM    1  C4  UNL     1       8.548  24.788   2.069  1.00  0.00     0.119 A 
HETATM    2  C5  UNL     1       7.895  23.830   1.278  1.00  0.00     0.030 A 
HETATM    3  C6  UNL     1       7.017  22.733   1.763  1.00  0.00     0.070 C 
HETATM    4  N2  UNL     1       8.166  24.025  -0.023  1.00  0.00    -0.361 N 
ATOM      5  H2  UNL     1       7.818  23.469  -0.805  1.00  0.00     0.165 HD
HETATM    6  C7  UNL     1       8.968  25.073  -0.099  1.00  0.00     0.023 A 
HETATM    7  C8  UNL     1       9.496  25.609  -1.381  1.00  0.00     0.069 C 
HETATM    8  C9  UNL     1       9.224  25.570   1.176  1.00  0.00     0.079 A 
ENDROOT
BRANCH   1   9
HETATM    9  S1  UNL     1       8.568  24.852   3.782  1.00  0.00     0.261 S 
HETATM   10  O1  UNL     1       7.778  26.100   4.199  1.00  0.00    -0.200 OA
HETATM   11  O2  UNL     1       9.964  25.110   4.324  1.00  0.00    -0.200 OA
BRANCH   9  12
HETATM   12  N1  UNL     1       7.864  23.568   4.633  1.00  0.00    -0.315 N 
ATOM     13  H1  UNL     1       8.213  22.609   4.642  1.00  0.00     0.172 HD
BRANCH  12  14
HETATM   14  C3  UNL     1       6.703  24.032   5.340  1.00  0.00     0.132 C 
BRANCH  14  15
HETATM   15  C2  UNL     1       5.477  23.185   5.053  1.00  0.00     0.016 C 
HETATM   16  C1  UNL     1       4.974  22.495   6.297  1.00  0.00     0.006 C 
ENDBRANCH  14  15
ENDBRANCH  12  14
ENDBRANCH   9  12
ENDBRANCH   1   9
BRANCH   8  17
HETATM   17  C10 UNL     1      10.074  26.736   1.368  1.00  0.00     0.256 C 
HETATM   18  O3  UNL     1       9.511  27.890   1.451  1.00  0.00    -0.267 OA
HETATM   19  N3  UNL     1      11.471  26.747   1.480  1.00  0.00    -0.357 N 
HETATM   20  C11 UNL     1      12.222  25.529   1.442  1.00  0.00     0.152 C 
HETATM   21  C12 UNL     1      12.193  27.981   1.636  1.00  0.00     0.152 C 
ENDBRANCH   8  17
TORSDOF 5
ENDMDL
MODEL 2
REMARK VINA RESULT: -5.962105846      1.575      1.946
REMARK  5 active torsions:
REMARK  status: ('A' for Active; 'I' for Inactive)
REMARK    1  A    between atoms: C2_2  and  C3_3 
REMARK    2  A    between atoms: C3_3  and  N1_4 
REMARK    3  A    between atoms: N1_4  and  S1_6 
REMARK    4  A    between atoms: S1_6  and  C4_9 
REMARK    5  A    between atoms: C9_16  and  C10_17 
REMARK       I    between atoms: C10_17  and  N3_19 
ROOT
HETATM    1  C4  UNL     1       7.877  24.138   2.735  1.00  0.00     0.119 A 
HETATM    2  C5  UNL     1       6.862  23.178   2.600  1.00  0.00     0.030 A 
HETATM    3  C6  UNL     1       5.918  22.736   3.658  1.00  0.00     0.070 C 
HETATM    4  N2  UNL     1       6.841  22.684   1.351  1.00  0.00    -0.361 N 
ATOM      5  H2  UNL     1       6.202  21.974   0.991  1.00  0.00     0.165 HD
HETATM    6  C7  UNL     1       7.804  23.290   0.677  1.00  0.00     0.023 A 
HETATM    7  C8  UNL     1       8.102  23.012  -0.752  1.00  0.00     0.069 C 
HETATM    8  C9  UNL     1       8.463  24.196   1.503  1.00  0.00     0.079 A 
ENDROOT
BRANCH   1   9
HETATM    9  S1  UNL     1       8.330  24.946   4.178  1.00  0.00     0.261 S 
HETATM   10  O1  UNL     1       7.813  26.386   4.074  1.00  0.00    -0.200 OA
HETATM   11  O2  UNL     1       9.836  25.109   4.288  1.00  0.00    -0.200 OA
BRANCH   9  12
HETATM   12  N1  UNL     1       7.721  24.353   5.643  1.00  0.00    -0.315 N 
ATOM     13  H1  UNL     1       7.738  23.375   5.933  1.00  0.00     0.172 HD
BRANCH  12  14
HETATM   14  C3  UNL     1       7.179  25.435   6.417  1.00  0.00     0.132 C 
BRANCH  14  15
HETATM   15  C2  UNL     1       5.717  25.222   6.760  1.00  0.00     0.016 C 
HETATM   16  C1  UNL     1       5.464  23.828   7.279  1.00  0.00     0.006 C 
ENDBRANCH  14  15
ENDBRANCH  12  14
ENDBRANCH   9  12
ENDBRANCH   1   9
BRANCH   8  17
HETATM   17  C10 UNL     1       9.563  25.006   0.996  1.00  0.00     0.256 C 
HETATM   18  O3  UNL     1       9.288  26.165   0.511  1.00  0.00    -0.267 OA
HETATM   19  N3  UNL     1      10.921  24.661   0.979  1.00  0.00    -0.357 N 
HETATM   20  C11 UNL     1      11.371  23.415   1.521  1.00  0.00     0.152 C 
HETATM   21  C12 UNL     1      11.905  25.547   0.418  1.00  0.00     0.152 C 
ENDBRANCH   8  17
TORSDOF 5
ENDMDL
MODEL 3
REMARK VINA RESULT: -5.928704435      2.138      2.441
REMARK  5 active torsions:
REMARK  status: ('A' for Active; 'I' for Inactive)
REMARK    1  A    between atoms: C2_2  and  C3_3 
REMARK    2  A    between atoms: C3_3  and  N1_4 
REMARK    3  A    between atoms: N1_4  and  S1_6 
REMARK    4  A    between atoms: S1_6  and  C4_9 
REMARK    5  A    between atoms: C9_16  and  C10_17 
REMARK       I    between atoms: C10_17  and  N3_19 
ROOT
HETATM    1  C4  UNL     1       9.800  24.965   2.413  1.00  0.00     0.119 A 
HETATM    2  C5  UNL     1      10.273  23.648   2.506  1.00  0.00     0.030 A 
HETATM    3  C6  UNL     1       9.740  22.577   3.386  1.00  0.00     0.070 C 
HETATM    4  N2  UNL     1      11.309  23.456   1.671  1.00  0.00    -0.361 N 
ATOM      5  H2  UNL     1      11.833  22.590   1.545  1.00  0.00     0.165 HD
HETATM    6  C7  UNL     1      11.519  24.602   1.045  1.00  0.00     0.023 A 
HETATM    7  C8  UNL     1      12.589  24.796   0.032  1.00  0.00     0.069 C 
HETATM    8  C9  UNL     1      10.603  25.556   1.479  1.00  0.00     0.079 A 
ENDROOT
BRANCH   1   9
HETATM    9  S1  UNL     1       8.566  25.674   3.369  1.00  0.00     0.261 S 
HETATM   10  O1  UNL     1       7.370  24.714   3.353  1.00  0.00    -0.200 OA
HETATM   11  O2  UNL     1       8.019  26.944   2.738  1.00  0.00    -0.200 OA
BRANCH   9  12
HETATM   12  N1  UNL     1       8.895  25.958   5.006  1.00  0.00    -0.315 N 
ATOM     13  H1  UNL     1       9.803  25.829   5.454  1.00  0.00     0.172 HD
BRANCH  12  14
HETATM   14  C3  UNL     1       7.702  26.407   5.670  1.00  0.00     0.132 C 
BRANCH  14  15
HETATM   15  C2  UNL     1       7.340  25.533   6.856  1.00  0.00     0.016 C 
HETATM   16  C1  UNL     1       6.003  24.859   6.663  1.00  0.00     0.006 C 
ENDBRANCH  14  15
ENDBRANCH  12  14
ENDBRANCH   9  12
ENDBRANCH   1   9
BRANCH   8  17
HETATM   17  C10 UNL     1      10.614  26.906   0.932  1.00  0.00     0.256 C 
HETATM   18  O3  UNL     1       9.697  27.224   0.088  1.00  0.00    -0.267 OA
HETATM   19  N3  UNL     1      11.528  27.925   1.230  1.00  0.00    -0.357 N 
HETATM   20  C11 UNL     1      12.578  27.718   2.181  1.00  0.00     0.152 C 
HETATM   21  C12 UNL     1      11.441  29.210   0.590  1.00  0.00     0.152 C 
ENDBRANCH   8  17
TORSDOF 5
ENDMDL
MODEL 4
REMARK VINA RESULT: -5.864642859      2.241      2.807
REMARK  5 active torsions:
REMARK  status: ('A' for Active; 'I' for Inactive)
REMARK    1  A    between atoms: C2_2  and  C3_3 
REMARK    2  A    between atoms: C3_3  and  N1_4 
REMARK    3  A    between atoms: N1_4  and  S1_6 
REMARK    4  A    between atoms: S1_6  and  C4_9 
REMARK    5  A    between atoms: C9_16  and  C10_17 
REMARK       I    between atoms: C10_17  and  N3_19 
ROOT
HETATM    1  C4  UNL     1      10.292  25.070   2.008  1.00  0.00     0.119 A 
HETATM    2  C5  UNL     1      10.720  23.734   1.976  1.00  0.00     0.030 A 
HETATM    3  C6  UNL     1       9.994  22.559   2.523  1.00  0.00     0.070 C 
HETATM    4  N2  UNL     1      11.915  23.634   1.370  1.00  0.00    -0.361 N 
ATOM      5  H2  UNL     1      12.447  22.777   1.215  1.00  0.00     0.165 HD
HETATM    6  C7  UNL     1      12.271  24.856   1.009  1.00  0.00     0.023 A 
HETATM    7  C8  UNL     1      13.542  25.164   0.304  1.00  0.00     0.069 C 
HETATM    8  C9  UNL     1      11.289  25.768   1.388  1.00  0.00     0.079 A 
ENDROOT
BRANCH   1   9
HETATM    9  S1  UNL     1       8.881  25.669   2.777  1.00  0.00     0.261 S 
HETATM   10  O1  UNL     1       7.757  24.659   2.514  1.00  0.00    -0.200 OA
HETATM   11  O2  UNL     1       8.379  26.947   2.125  1.00  0.00    -0.200 OA
BRANCH   9  12
HETATM   12  N1  UNL     1       8.919  25.874   4.458  1.00  0.00    -0.315 N 
ATOM     13  H1  UNL     1       9.522  26.531   4.955  1.00  0.00     0.172 HD
BRANCH  12  14
HETATM   14  C3  UNL     1       7.977  24.985   5.077  1.00  0.00     0.132 C 
BRANCH  14  15
HETATM   15  C2  UNL     1       7.331  25.595   6.307  1.00  0.00     0.016 C 
HETATM   16  C1  UNL     1       6.024  24.921   6.642  1.00  0.00     0.006 C 
ENDBRANCH  14  15
ENDBRANCH  12  14
ENDBRANCH   9  12
ENDBRANCH   1   9
BRANCH   8  17
HETATM   17  C10 UNL     1      11.434  27.187   1.096  1.00  0.00     0.256 C 
HETATM   18  O3  UNL     1      12.125  27.905   1.909  1.00  0.00    -0.267 OA
HETATM   19  N3  UNL     1      10.898  27.877   0.000  1.00  0.00    -0.357 N 
HETATM   20  C11 UNL     1      10.138  27.192  -1.001  1.00  0.00     0.152 C 
HETATM   21  C12 UNL     1      11.094  29.294  -0.152  1.00  0.00     0.152 C 
ENDBRANCH   8  17
TORSDOF 5
ENDMDL
MODEL 5
REMARK VINA RESULT: -5.858014142      1.600      1.982
REMARK  5 active torsions:
REMARK  status: ('A' for Active; 'I' for Inactive)
REMARK    1  A    between atoms: C2_2  and  C3_3 
REMARK    2  A    between atoms: C3_3  and  N1_4 
REMARK    3  A    between atoms: N1_4  and  S1_6 
REMARK    4  A    between atoms: S1_6  and  C4_9 
REMARK    5  A    between atoms: C9_16  and  C10_17 
REMARK       I    between atoms: C10_17  and  N3_19 
ROOT
HETATM    1  C4  UNL     1       8.054  23.623   2.570  1.00  0.00     0.119 A 
HETATM    2  C5  UNL     1       6.973  23.054   1.881  1.00  0.00     0.030 A 
HETATM    3  C6  UNL     1       5.783  22.402   2.486  1.00  0.00     0.070 C 
HETATM    4  N2  UNL     1       7.143  23.169   0.554  1.00  0.00    -0.361 N 
ATOM      5  H2  UNL     1       6.506  22.839  -0.171  1.00  0.00     0.165 HD
HETATM    6  C7  UNL     1       8.295  23.792   0.364  1.00  0.00     0.023 A 
HETATM    7  C8  UNL     1       8.841  24.110  -0.982  1.00  0.00     0.069 C 
HETATM    8  C9  UNL     1       8.883  24.088   1.590  1.00  0.00     0.079 A 
ENDROOT
BRANCH   1   9
HETATM    9  S1  UNL     1       8.303  23.606   4.267  1.00  0.00     0.261 S 
HETATM   10  O1  UNL     1       9.028  24.908   4.633  1.00  0.00    -0.200 OA
HETATM   11  O2  UNL     1       9.278  22.519   4.687  1.00  0.00    -0.200 OA
BRANCH   9  12
HETATM   12  N1  UNL     1       6.938  23.553   5.269  1.00  0.00    -0.315 N 
ATOM     13  H1  UNL     1       6.357  22.729   5.425  1.00  0.00     0.172 HD
BRANCH  12  14
HETATM   14  C3  UNL     1       6.723  24.842   5.865  1.00  0.00     0.132 C 
BRANCH  14  15
HETATM   15  C2  UNL     1       5.822  24.770   7.083  1.00  0.00     0.016 C 
HETATM   16  C1  UNL     1       5.110  23.443   7.171  1.00  0.00     0.006 C 
ENDBRANCH  14  15
ENDBRANCH  12  14
ENDBRANCH   9  12
ENDBRANCH   1   9
BRANCH   8  17
HETATM   17  C10 UNL     1      10.159  24.787   1.658  1.00  0.00     0.256 C 
HETATM   18  O3  UNL     1      11.234  24.083   1.704  1.00  0.00    -0.267 OA
HETATM   19  N3  UNL     1      10.355  26.175   1.674  1.00  0.00    -0.357 N 
HETATM   20  C11 UNL     1       9.247  27.077   1.591  1.00  0.00     0.152 C 
HETATM   21  C12 UNL     1      11.676  26.735   1.775  1.00  0.00     0.152 C 
ENDBRANCH   8  17
TORSDOF 5
ENDMDL
