MODEL 1
REMARK VINA RESULT: -5.339948532      0.000      0.000
REMARK  6 active torsions:
REMARK  status: ('A' for Active; 'I' for Inactive)
REMARK    1  A    between atoms: C2_2  and  N1_3 
REMARK    2  A    between atoms: N2_6  and  C4_7 
REMARK    3  A    between atoms: C4_7  and  N3_9 
REMARK    4  A    between atoms: C6_12  and  C8_14 
REMARK    5  A    between atoms: C8_14  and  C9_15 
REMARK    6  A    between atoms: C9_15  and  C10_16 
ROOT
HETATM    1  N1  UNL     1       8.892  25.464   3.529  1.00  0.00    -0.268 N 
HETATM    2  C3  UNL     1       8.778  26.469   2.540  1.00  0.00     0.334 C 
HETATM    3  O1  UNL     1       7.865  27.332   2.514  1.00  0.00    -0.246 OA
HETATM    4  N2  UNL     1       9.850  26.359   1.582  1.00  0.00    -0.257 N 
HETATM    5  C6  UNL     1      10.797  25.390   2.087  1.00  0.00     0.122 C 
HETATM    6  C7  UNL     1      11.123  24.300   1.110  1.00  0.00     0.049 C 
HETATM    7  C11 UNL     1      10.029  24.718   3.201  1.00  0.00     0.256 C 
HETATM    8  O3  UNL     1      10.381  23.645   3.738  1.00  0.00    -0.270 OA
ENDROOT
BRANCH   5   9
HETATM    9  C8  UNL     1      12.029  26.068   2.652  1.00  0.00     0.050 C 
BRANCH   9  10
HETATM   10  C9  UNL     1      13.132  26.177   1.651  1.00  0.00     0.102 C 
BRANCH  10  11
HETATM   11  C10 UNL     1      13.743  27.535   1.798  1.00  0.00     0.231 C 
HETATM   12  N4  UNL     1      15.155  27.729   1.730  1.00  0.00    -0.062 NA
HETATM   13  O2  UNL     1      13.044  28.561   1.988  1.00  0.00    -0.277 OA
ENDBRANCH  10  11
ENDBRANCH   9  10
ENDBRANCH   5   9
BRANCH   4  14
HETATM   14  C4  UNL     1       9.881  27.110   0.385  1.00  0.00     0.178 C 
HETATM   15  S1  UNL     1       9.256  26.509  -1.012  1.00  0.00    -0.041 SA
BRANCH  14  16
HETATM   16  N3  UNL     1      10.443  28.409   0.328  1.00  0.00    -0.371 N 
HETATM   17  C5  UNL     1      11.001  28.952  -0.906  1.00  0.00     0.148 C 
ATOM     18  H3  UNL     1      10.459  28.981   1.173  1.00  0.00     0.161 HD
ENDBRANCH  14  16
ENDBRANCH   4  14
BRANCH   1  19
HETATM   19  C2  UNL     1       7.967  25.290   4.650  1.00  0.00     0.132 C 
HETATM   20  C1  UNL     1       7.153  24.042   4.517  1.00  0.00     0.027 C 
ENDBRANCH   1  19
TORSDOF 6
ENDMDL
MODEL 2
REMARK VINA RESULT: -5.280771727      2.977      4.798
REMARK  6 active torsions:
REMARK  status: ('A' for Active; 'I' for Inactive)
REMARK    1  A    between atoms: C2_2  and  N1_3 
REMARK    2  A    between atoms: N2_6  and  C4_7 
REMARK    3  A    between atoms: C4_7  and  N3_9 
REMARK    4  A    between atoms: C6_12  and  C8_14 
REMARK    5  A    between atoms: C8_14  and  C9_15 
REMARK    6  A    between atoms: C9_15  and  C10_16 
ROOT
HETATM    1  N1  UNL     1       6.748  24.688   5.505  1.00  0.00    -0.268 N 
HETATM    2  C3  UNL     1       7.749  25.581   5.058  1.00  0.00     0.334 C 
HETATM    3  O1  UNL     1       7.986  26.696   5.587  1.00  0.00    -0.246 OA
HETATM    4  N2  UNL     1       8.446  25.030   3.922  1.00  0.00    -0.257 N 
HETATM    5  C6  UNL     1       8.025  23.656   3.767  1.00  0.00     0.122 C 
HETATM    6  C7  UNL     1       7.535  23.327   2.388  1.00  0.00     0.049 C 
HETATM    7  C11 UNL     1       6.807  23.575   4.659  1.00  0.00     0.256 C 
HETATM    8  O3  UNL     1       5.983  22.636   4.625  1.00  0.00    -0.270 OA
ENDROOT
BRANCH   5   9
HETATM    9  C8  UNL     1       9.086  22.696   4.264  1.00  0.00     0.050 C 
BRANCH   9  10
HETATM   10  C9  UNL     1      10.015  22.260   3.179  1.00  0.00     0.102 C 
BRANCH  10  11
HETATM   11  C10 UNL     1      10.653  20.979   3.619  1.00  0.00     0.231 C 
HETATM   12  N4  UNL     1      10.333  20.379   4.873  1.00  0.00    -0.062 NA
HETATM   13  O2  UNL     1      11.496  20.378   2.908  1.00  0.00    -0.277 OA
ENDBRANCH  10  11
ENDBRANCH   9  10
ENDBRANCH   5   9
BRANCH   4  14
HETATM   14  C4  UNL     1       9.363  25.784   3.154  1.00  0.00     0.178 C 
HETATM   15  S1  UNL     1       8.857  26.718   1.900  1.00  0.00    -0.041 SA
BRANCH  14  16
HETATM   16  N3  UNL     1      10.754  25.775   3.426  1.00  0.00    -0.371 N 
HETATM   17  C5  UNL     1      11.736  26.159   2.418  1.00  0.00     0.148 C 
ATOM     18  H3  UNL     1      11.077  25.492   4.351  1.00  0.00     0.161 HD
ENDBRANCH  14  16
ENDBRANCH   4  14
BRANCH   1  19
HETATM   19  C2  UNL     1       5.855  24.937   6.639  1.00  0.00     0.132 C 
HETATM   20  C1  UNL     1       5.431  23.667   7.307  1.00  0.00     0.027 C 
ENDBRANCH   1  19
TORSDOF 6
ENDMDL
MODEL 3
REMARK VINA RESULT: -5.269237386      3.184      5.647
REMARK  6 active torsions:
REMARK  status: ('A' for Active; 'I' for Inactive)
REMARK    1  A    between atoms: C2_2  and  N1_3 
REMARK    2  A    between atoms: N2_6  and  C4_7 
REMARK    3  A    between atoms: C4_7  and  N3_9 
REMARK    4  A    between atoms: C6_12  and  C8_14 
REMARK    5  A    between atoms: C8_14  and  C9_15 
REMARK    6  A    between atoms: C9_15  and  C10_16 
ROOT
HETATM    1  N1  UNL     1       9.406  26.253   1.216  1.00  0.00    -0.268 N 
HETATM    2  C3  UNL     1       8.551  26.286   2.343  1.00  0.00     0.334 C 
HETATM    3  O1  UNL     1       7.983  27.324   2.766  1.00  0.00    -0.246 OA
HETATM    4  N2  UNL     1       8.429  24.971   2.922  1.00  0.00    -0.257 N 
HETATM    5  C6  UNL     1       9.052  24.029   2.020  1.00  0.00     0.122 C 
HETATM    6  C7  UNL     1      10.078  23.154   2.676  1.00  0.00     0.049 C 
HETATM    7  C11 UNL     1       9.826  24.925   1.081  1.00  0.00     0.256 C 
HETATM    8  O3  UNL     1      10.714  24.514   0.302  1.00  0.00    -0.270 OA
ENDROOT
BRANCH   5   9
HETATM    9  C8  UNL     1       8.016  23.246   1.241  1.00  0.00     0.050 C 
BRANCH   9  10
HETATM   10  C9  UNL     1       8.601  22.068   0.533  1.00  0.00     0.102 C 
BRANCH  10  11
HETATM   11  C10 UNL     1       8.134  22.118  -0.888  1.00  0.00     0.231 C 
HETATM   12  N4  UNL     1       8.103  20.949  -1.705  1.00  0.00    -0.062 NA
HETATM   13  O2  UNL     1       7.751  23.188  -1.425  1.00  0.00    -0.277 OA
ENDBRANCH  10  11
ENDBRANCH   9  10
ENDBRANCH   5   9
BRANCH   4  14
HETATM   14  C4  UNL     1       7.792  24.744   4.164  1.00  0.00     0.178 C 
HETATM   15  S1  UNL     1       6.805  23.449   4.390  1.00  0.00    -0.041 SA
BRANCH  14  16
HETATM   16  N3  UNL     1       7.973  25.611   5.270  1.00  0.00    -0.371 N 
HETATM   17  C5  UNL     1       7.196  25.466   6.496  1.00  0.00     0.148 C 
ATOM     18  H3  UNL     1       8.667  26.357   5.208  1.00  0.00     0.161 HD
ENDBRANCH  14  16
ENDBRANCH   4  14
BRANCH   1  19
HETATM   19  C2  UNL     1       9.747  27.416   0.395  1.00  0.00     0.132 C 
HETATM   20  C1  UNL     1      10.854  28.222   0.996  1.00  0.00     0.027 C 
ENDBRANCH   1  19
TORSDOF 6
ENDMDL
MODEL 4
REMARK VINA RESULT: -5.263899903      1.943      2.200
REMARK  6 active torsions:
REMARK  status: ('A' for Active; 'I' for Inactive)
REMARK    1  A    between atoms: C2_2  and  N1_3 
REMARK    2  A    between atoms: N2_6  and  C4_7 
REMARK    3  A    between atoms: C4_7  and  N3_9 
REMARK    4  A    between atoms: C6_12  and  C8_14 
REMARK    5  A    between atoms: C8_14  and  C9_15 
REMARK    6  A    between atoms: C9_15  and  C10_16 
ROOT
HETATM    1  N1  UNL     1       8.667  25.361   3.768  1.00  0.00    -0.268 N 
HETATM    2  C3  UNL     1       8.570  26.166   2.608  1.00  0.00     0.334 C 
HETATM    3  O1  UNL     1       7.967  27.267   2.564  1.00  0.00    -0.246 OA
HETATM    4  N2  UNL     1       9.255  25.543   1.503  1.00  0.00    -0.257 N 
HETATM    5  C6  UNL     1       9.993  24.412   2.019  1.00  0.00     0.122 C 
HETATM    6  C7  UNL     1       9.712  23.129   1.296  1.00  0.00     0.049 C 
HETATM    7  C11 UNL     1       9.410  24.233   3.401  1.00  0.00     0.256 C 
HETATM    8  O3  UNL     1       9.580  23.210   4.100  1.00  0.00    -0.270 OA
ENDROOT
BRANCH   5   9
HETATM    9  C8  UNL     1      11.472  24.722   2.125  1.00  0.00     0.050 C 
BRANCH   9  10
HETATM   10  C9  UNL     1      12.266  24.108   1.019  1.00  0.00     0.102 C 
BRANCH  10  11
HETATM   11  C10 UNL     1      13.232  25.141   0.529  1.00  0.00     0.231 C 
HETATM   12  N4  UNL     1      13.454  26.354   1.246  1.00  0.00    -0.062 NA
HETATM   13  O2  UNL     1      13.888  24.987  -0.531  1.00  0.00    -0.277 OA
ENDBRANCH  10  11
ENDBRANCH   9  10
ENDBRANCH   5   9
BRANCH   4  14
HETATM   14  C4  UNL     1       9.160  26.029   0.179  1.00  0.00     0.178 C 
HETATM   15  S1  UNL     1      10.095  27.279  -0.338  1.00  0.00    -0.041 SA
BRANCH  14  16
HETATM   16  N3  UNL     1       8.265  25.466  -0.764  1.00  0.00    -0.371 N 
HETATM   17  C5  UNL     1       8.740  24.744  -1.939  1.00  0.00     0.148 C 
ATOM     18  H3  UNL     1       7.261  25.568  -0.617  1.00  0.00     0.161 HD
ENDBRANCH  14  16
ENDBRANCH   4  14
BRANCH   1  19
HETATM   19  C2  UNL     1       8.082  25.698   5.067  1.00  0.00     0.132 C 
HETATM   20  C1  UNL     1       7.096  24.669   5.521  1.00  0.00     0.027 C 
ENDBRANCH   1  19
TORSDOF 6
ENDMDL
MODEL 5
REMARK VINA RESULT: -5.247325779      2.994      4.330
REMARK  6 active torsions:
REMARK  status: ('A' for Active; 'I' for Inactive)
REMARK    1  A    between atoms: C2_2  and  N1_3 
REMARK    2  A    between atoms: N2_6  and  C4_7 
REMARK    3  A    between atoms: C4_7  and  N3_9 
REMARK    4  A    between atoms: C6_12  and  C8_14 
REMARK    5  A    between atoms: C8_14  and  C9_15 
REMARK    6  A    between atoms: C9_15  and  C10_16 
ROOT
HETATM    1  N1  UNL     1       6.411  23.411   4.347  1.00  0.00    -0.268 N 
HETATM    2  C3  UNL     1       6.415  23.035   2.983  1.00  0.00     0.334 C 
HETATM    3  O1  UNL     1       5.449  22.477   2.404  1.00  0.00    -0.246 OA
HETATM    4  N2  UNL     1       7.671  23.383   2.366  1.00  0.00    -0.257 N 
HETATM    5  C6  UNL     1       8.414  24.196   3.303  1.00  0.00     0.122 C 
HETATM    6  C7  UNL     1       9.802  23.693   3.567  1.00  0.00     0.049 C 
HETATM    7  C11 UNL     1       7.659  23.995   4.595  1.00  0.00     0.256 C 
HETATM    8  O3  UNL     1       8.107  24.313   5.719  1.00  0.00    -0.270 OA
ENDROOT
BRANCH   5   9
HETATM    9  C8  UNL     1       8.378  25.658   2.911  1.00  0.00     0.050 C 
BRANCH   9  10
HETATM   10  C9  UNL     1       9.691  26.144   2.390  1.00  0.00     0.102 C 
BRANCH  10  11
HETATM   11  C10 UNL     1       9.444  26.763   1.050  1.00  0.00     0.231 C 
HETATM   12  N4  UNL     1       9.993  28.033   0.703  1.00  0.00    -0.062 NA
HETATM   13  O2  UNL     1       8.744  26.196   0.175  1.00  0.00    -0.277 OA
ENDBRANCH  10  11
ENDBRANCH   9  10
ENDBRANCH   5   9
BRANCH   4  14
HETATM   14  C4  UNL     1       8.024  22.955   1.066  1.00  0.00     0.178 C 
HETATM   15  S1  UNL     1       9.208  21.839   0.830  1.00  0.00    -0.041 SA
BRANCH  14  16
HETATM   16  N3  UNL     1       7.378  23.458  -0.091  1.00  0.00    -0.371 N 
HETATM   17  C5  UNL     1       7.734  23.001  -1.430  1.00  0.00     0.148 C 
ATOM     18  H3  UNL     1       6.645  24.159   0.015  1.00  0.00     0.161 HD
ENDBRANCH  14  16
ENDBRANCH   4  14
BRANCH   1  19
HETATM   19  C2  UNL     1       5.291  23.203   5.266  1.00  0.00     0.132 C 
HETATM   20  C1  UNL     1       5.276  21.816   5.826  1.00  0.00     0.027 C 
ENDBRANCH   1  19
TORSDOF 6
ENDMDL
