MODEL 1
REMARK VINA RESULT: -7.307994982      0.000      0.000
REMARK  4 active torsions:
REMARK  status: ('A' for Active; 'I' for Inactive)
REMARK    1  A    between atoms: C3_3  and  C4_4 
REMARK    2  A    between atoms: C4_4  and  N1_5 
REMARK    3  A    between atoms: N1_5  and  S1_7 
REMARK    4  A    between atoms: S1_7  and  C5_10 
ROOT
HETATM    1  N1  UNL     1       9.086  24.900   2.751  1.00  0.00    -0.310 N 
ATOM      2  H1  UNL     1       9.373  23.990   2.392  1.00  0.00     0.172 HD
ENDROOT
BRANCH   1   3
HETATM    3  C4  UNL     1       8.639  25.133   4.110  1.00  0.00     0.171 C 
BRANCH   3   4
HETATM    4  C3  UNL     1       7.439  24.323   4.437  1.00  0.00    -0.030 A 
HETATM    5  C2  UNL     1       6.873  24.431   5.688  1.00  0.00    -0.032 A 
HETATM    6  C1  UNL     1       7.443  25.335   6.691  1.00  0.00     0.050 C 
HETATM    7  C12 UNL     1       5.751  23.701   6.052  1.00  0.00     0.014 A 
HETATM    8  N4  UNL     1       5.175  22.853   5.185  1.00  0.00    -0.358 N 
HETATM    9  C13 UNL     1       5.165  23.837   7.403  1.00  0.00     0.069 C 
HETATM   10  C9  UNL     1       5.717  22.728   3.940  1.00  0.00     0.008 A 
HETATM   11  C11 UNL     1       4.020  22.067   5.483  1.00  0.00     0.156 C 
HETATM   12  C8  UNL     1       6.834  23.448   3.559  1.00  0.00     0.034 A 
HETATM   13  C10 UNL     1       5.109  21.802   2.952  1.00  0.00     0.068 C 
ENDBRANCH   3   4
ENDBRANCH   1   3
BRANCH   1  14
HETATM   14  S1  UNL     1       9.072  26.340   1.821  1.00  0.00     0.276 S 
HETATM   15  O1  UNL     1       8.624  26.023   0.429  1.00  0.00    -0.199 OA
HETATM   16  O2  UNL     1       8.087  27.298   2.415  1.00  0.00    -0.199 OA
BRANCH  14  17
HETATM   17  C5  UNL     1      10.626  27.122   1.780  1.00  0.00     0.165 A 
HETATM   18  C6  UNL     1      10.929  28.197   0.978  1.00  0.00     0.132 A 
HETATM   19  N2  UNL     1      12.214  28.541   1.204  1.00  0.00    -0.359 N 
HETATM   20  C7  UNL     1      12.709  27.695   2.131  1.00  0.00     0.181 A 
ATOM     21  H2  UNL     1      12.720  29.303   0.753  1.00  0.00     0.166 HD
HETATM   22  N3  UNL     1      11.734  26.827   2.482  1.00  0.00    -0.341 N 
ATOM     23  H3  UNL     1      11.824  26.075   3.165  1.00  0.00     0.167 HD
ENDBRANCH  14  17
ENDBRANCH   1  14
TORSDOF 4
ENDMDL
MODEL 2
REMARK VINA RESULT: -7.265954906      2.726      7.737
REMARK  4 active torsions:
REMARK  status: ('A' for Active; 'I' for Inactive)
REMARK    1  A    between atoms: C3_3  and  C4_4 
REMARK    2  A    between atoms: C4_4  and  N1_5 
REMARK    3  A    between atoms: N1_5  and  S1_7 
REMARK    4  A    between atoms: S1_7  and  C5_10 
ROOT
HETATM    1  N1  UNL     1      10.539  25.936   2.776  1.00  0.00    -0.310 N 
ATOM      2  H1  UNL     1      11.098  25.610   3.564  1.00  0.00     0.172 HD
ENDROOT
BRANCH   1   3
HETATM    3  C4  UNL     1      11.096  26.426   1.530  1.00  0.00     0.171 C 
BRANCH   3   4
HETATM    4  C3  UNL     1      12.499  25.976   1.347  1.00  0.00    -0.030 A 
HETATM    5  C2  UNL     1      13.523  26.886   1.499  1.00  0.00    -0.032 A 
HETATM    6  C1  UNL     1      13.239  28.282   1.839  1.00  0.00     0.050 C 
HETATM    7  C12 UNL     1      14.853  26.526   1.341  1.00  0.00     0.014 A 
HETATM    8  N4  UNL     1      15.189  25.264   1.028  1.00  0.00    -0.358 N 
HETATM    9  C13 UNL     1      15.932  27.523   1.509  1.00  0.00     0.069 C 
HETATM   10  C9  UNL     1      14.193  24.346   0.872  1.00  0.00     0.008 A 
HETATM   11  C11 UNL     1      16.534  24.816   0.848  1.00  0.00     0.156 C 
HETATM   12  C8  UNL     1      12.862  24.685   1.027  1.00  0.00     0.034 A 
HETATM   13  C10 UNL     1      14.523  22.940   0.527  1.00  0.00     0.068 C 
ENDBRANCH   3   4
ENDBRANCH   1   3
BRANCH   1  14
HETATM   14  S1  UNL     1       8.825  25.972   2.764  1.00  0.00     0.276 S 
HETATM   15  O1  UNL     1       8.364  27.250   2.137  1.00  0.00    -0.199 OA
HETATM   16  O2  UNL     1       8.317  24.839   1.927  1.00  0.00    -0.199 OA
BRANCH  14  17
HETATM   17  C5  UNL     1       8.144  25.813   4.357  1.00  0.00     0.165 A 
HETATM   18  C6  UNL     1       7.670  24.634   4.881  1.00  0.00     0.132 A 
HETATM   19  N2  UNL     1       7.218  24.879   6.128  1.00  0.00    -0.359 N 
HETATM   20  C7  UNL     1       7.404  26.191   6.382  1.00  0.00     0.181 A 
ATOM     21  H2  UNL     1       6.809  24.195   6.764  1.00  0.00     0.166 HD
HETATM   22  N3  UNL     1       7.971  26.761   5.296  1.00  0.00    -0.341 N 
ATOM     23  H3  UNL     1       8.226  27.744   5.203  1.00  0.00     0.167 HD
ENDBRANCH  14  17
ENDBRANCH   1  14
TORSDOF 4
ENDMDL
MODEL 3
REMARK VINA RESULT: -7.152904436      0.764      2.331
REMARK  4 active torsions:
REMARK  status: ('A' for Active; 'I' for Inactive)
REMARK    1  A    between atoms: C3_3  and  C4_4 
REMARK    2  A    between atoms: C4_4  and  N1_5 
REMARK    3  A    between atoms: N1_5  and  S1_7 
REMARK    4  A    between atoms: S1_7  and  C5_10 
ROOT
HETATM    1  N1  UNL     1       9.354  25.008   2.588  1.00  0.00    -0.310 N 
ATOM      2  H1  UNL     1      10.173  24.744   3.135  1.00  0.00     0.172 HD
ENDROOT
BRANCH   1   3
HETATM    3  C4  UNL     1       8.160  24.195   2.467  1.00  0.00     0.171 C 
BRANCH   3   4
HETATM    4  C3  UNL     1       7.418  24.122   3.752  1.00  0.00    -0.030 A 
HETATM    5  C2  UNL     1       6.343  23.267   3.861  1.00  0.00    -0.032 A 
HETATM    6  C1  UNL     1       5.930  22.437   2.726  1.00  0.00     0.050 C 
HETATM    7  C12 UNL     1       5.612  23.154   5.033  1.00  0.00     0.014 A 
HETATM    8  N4  UNL     1       5.933  23.884   6.114  1.00  0.00    -0.358 N 
HETATM    9  C13 UNL     1       4.461  22.229   5.122  1.00  0.00     0.069 C 
HETATM   10  C9  UNL     1       6.993  24.737   6.031  1.00  0.00     0.008 A 
HETATM   11  C11 UNL     1       5.229  23.825   7.357  1.00  0.00     0.156 C 
HETATM   12  C8  UNL     1       7.735  24.863   4.871  1.00  0.00     0.034 A 
HETATM   13  C10 UNL     1       7.380  25.561   7.203  1.00  0.00     0.068 C 
ENDBRANCH   3   4
ENDBRANCH   1   3
BRANCH   1  14
HETATM   14  S1  UNL     1       9.223  26.468   1.699  1.00  0.00     0.276 S 
HETATM   15  O1  UNL     1       8.750  26.159   0.313  1.00  0.00    -0.199 OA
HETATM   16  O2  UNL     1       8.201  27.347   2.348  1.00  0.00    -0.199 OA
BRANCH  14  17
HETATM   17  C5  UNL     1      10.724  27.345   1.631  1.00  0.00     0.165 A 
HETATM   18  C6  UNL     1      10.923  28.481   0.882  1.00  0.00     0.132 A 
HETATM   19  N2  UNL     1      12.194  28.889   1.067  1.00  0.00    -0.359 N 
HETATM   20  C7  UNL     1      12.785  28.024   1.918  1.00  0.00     0.181 A 
ATOM     21  H2  UNL     1      12.631  29.706   0.640  1.00  0.00     0.166 HD
HETATM   22  N3  UNL     1      11.882  27.079   2.261  1.00  0.00    -0.341 N 
ATOM     23  H3  UNL     1      12.050  26.297   2.893  1.00  0.00     0.167 HD
ENDBRANCH  14  17
ENDBRANCH   1  14
TORSDOF 4
ENDMDL
MODEL 4
REMARK VINA RESULT: -7.064884060      2.689      8.076
REMARK  4 active torsions:
REMARK  status: ('A' for Active; 'I' for Inactive)
REMARK    1  A    between atoms: C3_3  and  C4_4 
REMARK    2  A    between atoms: C4_4  and  N1_5 
REMARK    3  A    between atoms: N1_5  and  S1_7 
REMARK    4  A    between atoms: S1_7  and  C5_10 
ROOT
HETATM    1  N1  UNL     1      10.630  25.993   2.766  1.00  0.00    -0.310 N 
ATOM      2  H1  UNL     1      11.167  26.332   3.563  1.00  0.00     0.172 HD
ENDROOT
BRANCH   1   3
HETATM    3  C4  UNL     1      11.221  25.454   1.557  1.00  0.00     0.171 C 
BRANCH   3   4
HETATM    4  C3  UNL     1      12.646  25.847   1.425  1.00  0.00    -0.030 A 
HETATM    5  C2  UNL     1      13.586  24.884   1.127  1.00  0.00    -0.032 A 
HETATM    6  C1  UNL     1      13.190  23.485   0.940  1.00  0.00     0.050 C 
HETATM    7  C12 UNL     1      14.931  25.190   0.989  1.00  0.00     0.014 A 
HETATM    8  N4  UNL     1      15.367  26.450   1.146  1.00  0.00    -0.358 N 
HETATM    9  C13 UNL     1      15.918  24.136   0.669  1.00  0.00     0.069 C 
HETATM   10  C9  UNL     1      14.456  27.421   1.442  1.00  0.00     0.008 A 
HETATM   11  C11 UNL     1      16.735  26.845   1.021  1.00  0.00     0.156 C 
HETATM   12  C8  UNL     1      13.111  27.136   1.581  1.00  0.00     0.034 A 
HETATM   13  C10 UNL     1      14.898  28.826   1.622  1.00  0.00     0.068 C 
ENDBRANCH   3   4
ENDBRANCH   1   3
BRANCH   1  14
HETATM   14  S1  UNL     1       8.917  25.993   2.692  1.00  0.00     0.276 S 
HETATM   15  O1  UNL     1       8.451  27.267   2.060  1.00  0.00    -0.199 OA
HETATM   16  O2  UNL     1       8.464  24.858   1.827  1.00  0.00    -0.199 OA
BRANCH  14  17
HETATM   17  C5  UNL     1       8.182  25.804   4.258  1.00  0.00     0.165 A 
HETATM   18  C6  UNL     1       7.728  24.607   4.759  1.00  0.00     0.132 A 
HETATM   19  N2  UNL     1       7.222  24.831   5.989  1.00  0.00    -0.359 N 
HETATM   20  C7  UNL     1       7.356  26.147   6.255  1.00  0.00     0.181 A 
ATOM     21  H2  UNL     1       6.812  24.131   6.607  1.00  0.00     0.166 HD
HETATM   22  N3  UNL     1       7.944  26.740   5.193  1.00  0.00    -0.341 N 
ATOM     23  H3  UNL     1       8.170  27.732   5.114  1.00  0.00     0.167 HD
ENDBRANCH  14  17
ENDBRANCH   1  14
TORSDOF 4
ENDMDL
MODEL 5
REMARK VINA RESULT: -7.029853434      1.839      2.212
REMARK  4 active torsions:
REMARK  status: ('A' for Active; 'I' for Inactive)
REMARK    1  A    between atoms: C3_3  and  C4_4 
REMARK    2  A    between atoms: C4_4  and  N1_5 
REMARK    3  A    between atoms: N1_5  and  S1_7 
REMARK    4  A    between atoms: S1_7  and  C5_10 
ROOT
HETATM    1  N1  UNL     1       8.133  24.765   2.163  1.00  0.00    -0.310 N 
ATOM      2  H1  UNL     1       7.608  24.232   1.470  1.00  0.00     0.172 HD
ENDROOT
BRANCH   1   3
HETATM    3  C4  UNL     1       8.305  24.358   3.543  1.00  0.00     0.171 C 
BRANCH   3   4
HETATM    4  C3  UNL     1       7.085  23.698   4.073  1.00  0.00    -0.030 A 
HETATM    5  C2  UNL     1       6.681  23.963   5.363  1.00  0.00    -0.032 A 
HETATM    6  C1  UNL     1       7.441  24.887   6.209  1.00  0.00     0.050 C 
HETATM    7  C12 UNL     1       5.551  23.378   5.913  1.00  0.00     0.014 A 
HETATM    8  N4  UNL     1       4.806  22.521   5.196  1.00  0.00    -0.358 N 
HETATM    9  C13 UNL     1       5.141  23.680   7.301  1.00  0.00     0.069 C 
HETATM   10  C9  UNL     1       5.185  22.242   3.917  1.00  0.00     0.008 A 
HETATM   11  C11 UNL     1       3.629  21.877   5.691  1.00  0.00     0.156 C 
HETATM   12  C8  UNL     1       6.308  22.816   3.351  1.00  0.00     0.034 A 
HETATM   13  C10 UNL     1       4.387  21.301   3.092  1.00  0.00     0.068 C 
ENDBRANCH   3   4
ENDBRANCH   1   3
BRANCH   1  14
HETATM   14  S1  UNL     1       8.921  26.252   1.836  1.00  0.00     0.276 S 
HETATM   15  O1  UNL     1       8.137  27.370   2.448  1.00  0.00    -0.199 OA
HETATM   16  O2  UNL     1      10.277  26.239   2.471  1.00  0.00    -0.199 OA
BRANCH  14  17
HETATM   17  C5  UNL     1       9.128  26.536   0.132  1.00  0.00     0.165 A 
HETATM   18  C6  UNL     1       9.962  27.493  -0.397  1.00  0.00     0.132 A 
HETATM   19  N2  UNL     1       9.873  27.433  -1.741  1.00  0.00    -0.359 N 
HETATM   20  C7  UNL     1       8.997  26.454  -2.052  1.00  0.00     0.181 A 
ATOM     21  H2  UNL     1      10.377  28.022  -2.404  1.00  0.00     0.166 HD
HETATM   22  N3  UNL     1       8.542  25.907  -0.903  1.00  0.00    -0.341 N 
ATOM     23  H3  UNL     1       7.869  25.145  -0.832  1.00  0.00     0.167 HD
ENDBRANCH  14  17
ENDBRANCH   1  14
TORSDOF 4
ENDMDL
