MODEL 1
REMARK VINA RESULT: -10.022775441      0.000      0.000
REMARK  13 active torsions:
REMARK  status: ('A' for Active; 'I' for Inactive)
REMARK    1  A    between atoms: N1_3  and  C3_4 
REMARK    2  A    between atoms: C3_4  and  C4_5 
REMARK    3  A    between atoms: C4_5  and  C5_6 
REMARK    4  A    between atoms: C5_6  and  C6_7 
REMARK    5  A    between atoms: C6_7  and  N2_8 
REMARK    6  A    between atoms: C21_23  and  C22_24 
REMARK    7  A    between atoms: C22_24  and  N3_25 
REMARK       I    between atoms: N3_25  and  C23_26 
REMARK    8  A    between atoms: C23_26  and  C24_28 
REMARK    9  A    between atoms: C24_28  and  N4_29 
REMARK   10  A    between atoms: C26_37  and  C27_38 
REMARK   11  A    between atoms: C27_38  and  C28_39 
REMARK   12  A    between atoms: C28_39  and  C29_40 
REMARK   13  A    between atoms: C29_40  and  N6_41 
ROOT
HETATM    1  C1  UNL     1      19.196  29.271  14.843  1.00  0.00     0.044 C 
HETATM    2  C2  UNL     1      19.302  30.453  14.641  1.00  0.00     0.109 C 
HETATM    3  N1  UNL     1      19.429  31.859  14.435  1.00  0.00     0.033 N 
HETATM    4  C17 UNL     1      18.364  32.468  15.149  1.00  0.00     0.307 C 
HETATM    5  C18 UNL     1      16.957  32.472  14.867  1.00  0.00     0.056 C 
HETATM    6  C19 UNL     1      16.358  33.819  15.296  1.00  0.00     0.005 C 
HETATM    7  C20 UNL     1      16.686  34.339  16.632  1.00  0.00     0.020 C 
HETATM    8  C21 UNL     1      17.836  35.285  16.783  1.00  0.00     0.130 C 
HETATM    9  C25 UNL     1      18.958  34.689  17.631  1.00  0.00     0.228 C 
HETATM   10  O2  UNL     1      19.004  34.971  18.879  1.00  0.00    -0.273 OA
HETATM   11  N5  UNL     1      19.950  33.849  17.151  1.00  0.00    -0.353 N 
ATOM     12  H5  UNL     1      20.337  33.238  17.871  1.00  0.00     0.163 HD
HETATM   13  C26 UNL     1      20.558  33.648  15.853  1.00  0.00     0.126 C 
HETATM   14  C31 UNL     1      20.530  32.255  15.343  1.00  0.00     0.321 C 
HETATM   15  C32 UNL     1      19.957  31.486  16.535  1.00  0.00     0.254 C 
HETATM   16  O3  UNL     1      20.590  30.792  17.329  1.00  0.00    -0.271 OA
HETATM   17  N9  UNL     1      18.579  31.824  16.408  1.00  0.00    -0.330 N 
ATOM     18  H9  UNL     1      17.859  31.636  17.106  1.00  0.00     0.164 HD
ENDROOT
BRANCH   3  19
HETATM   19  C3  UNL     1      19.639  32.220  13.088  1.00  0.00     0.258 C 
BRANCH  19  20
HETATM   20  C4  UNL     1      21.096  32.022  12.758  1.00  0.00     0.031 C 
BRANCH  20  21
HETATM   21  C5  UNL     1      21.364  30.697  12.029  1.00  0.00     0.030 C 
BRANCH  21  22
HETATM   22  C6  UNL     1      22.597  30.152  12.654  1.00  0.00     0.237 C 
BRANCH  22  23
HETATM   23  N2  UNL     1      23.199  28.992  12.009  1.00  0.00    -0.067 N 
HETATM   24  C7  UNL     1      22.140  28.055  11.866  1.00  0.00     0.237 C 
HETATM   25  C8  UNL     1      22.397  26.604  11.845  1.00  0.00     0.028 C 
HETATM   26  C9  UNL     1      22.738  26.027  10.478  1.00  0.00     0.002 C 
HETATM   27  C10 UNL     1      24.147  25.740  10.220  1.00  0.00     0.000 C 
HETATM   28  C11 UNL     1      25.189  26.339  11.090  1.00  0.00     0.005 C 
HETATM   29  C12 UNL     1      25.541  27.757  10.911  1.00  0.00    -0.011 C 
HETATM   30  C13 UNL     1      24.673  28.579  10.048  1.00  0.00     0.032 C 
HETATM   31  C15 UNL     1      25.602  28.459  12.272  1.00  0.00     0.032 C 
HETATM   32  C14 UNL     1      23.719  29.489  10.755  1.00  0.00     0.238 C 
HETATM   33  C16 UNL     1      24.261  28.584  12.913  1.00  0.00     0.238 C 
ENDBRANCH  22  23
ENDBRANCH  21  22
ENDBRANCH  20  21
ENDBRANCH  19  20
ENDBRANCH   3  19
BRANCH  13  34
HETATM   34  C27 UNL     1      22.060  33.902  16.193  1.00  0.00     0.029 C 
BRANCH  34  35
HETATM   35  C28 UNL     1      22.519  35.039  15.310  1.00  0.00     0.022 C 
BRANCH  35  36
HETATM   36  C29 UNL     1      22.333  36.397  15.948  1.00  0.00     0.122 C 
BRANCH  36  37
HETATM   37  N6  UNL     1      22.101  37.334  14.879  1.00  0.00    -0.367 N 
HETATM   38  C30 UNL     1      22.282  38.566  15.000  1.00  0.00     0.196 C 
HETATM   39  N7  UNL     1      22.738  39.133  16.237  1.00  0.00    -0.067 NA
HETATM   40  N8  UNL     1      22.041  39.447  13.924  1.00  0.00    -0.067 NA
ATOM     41  H6  UNL     1      21.775  36.977  13.981  1.00  0.00     0.161 HD
ENDBRANCH  36  37
ENDBRANCH  35  36
ENDBRANCH  34  35
ENDBRANCH  13  34
BRANCH   8  42
HETATM   42  C22 UNL     1      17.496  36.559  17.541  1.00  0.00     0.173 C 
BRANCH  42  43
HETATM   43  N3  UNL     1      18.346  37.624  17.546  1.00  0.00    -0.385 NA
HETATM   44  C23 UNL     1      19.199  38.699  17.543  1.00  0.00     0.316 C 
HETATM   45  O1  UNL     1      19.251  39.623  16.680  1.00  0.00    -0.255 OA
BRANCH  44  46
HETATM   46  C24 UNL     1      20.233  38.907  18.641  1.00  0.00     0.348 C 
BRANCH  46  47
HETATM   47  N4  UNL     1      20.629  37.615  19.103  1.00  0.00    -0.070 N 
ATOM     48  H43 UNL     1      20.103  37.305  19.920  1.00  0.00     0.274 HD
ATOM     49  H42 UNL     1      20.348  36.863  18.473  1.00  0.00     0.274 HD
ATOM     50  H41 UNL     1      21.636  37.645  19.263  1.00  0.00     0.274 HD
ENDBRANCH  46  47
ENDBRANCH  44  46
ENDBRANCH  42  43
ENDBRANCH   8  42
TORSDOF 13
ENDMDL
MODEL 2
REMARK VINA RESULT: -9.391244519      2.677      9.610
REMARK  13 active torsions:
REMARK  status: ('A' for Active; 'I' for Inactive)
REMARK    1  A    between atoms: N1_3  and  C3_4 
REMARK    2  A    between atoms: C3_4  and  C4_5 
REMARK    3  A    between atoms: C4_5  and  C5_6 
REMARK    4  A    between atoms: C5_6  and  C6_7 
REMARK    5  A    between atoms: C6_7  and  N2_8 
REMARK    6  A    between atoms: C21_23  and  C22_24 
REMARK    7  A    between atoms: C22_24  and  N3_25 
REMARK       I    between atoms: N3_25  and  C23_26 
REMARK    8  A    between atoms: C23_26  and  C24_28 
REMARK    9  A    between atoms: C24_28  and  N4_29 
REMARK   10  A    between atoms: C26_37  and  C27_38 
REMARK   11  A    between atoms: C27_38  and  C28_39 
REMARK   12  A    between atoms: C28_39  and  C29_40 
REMARK   13  A    between atoms: C29_40  and  N6_41 
ROOT
HETATM    1  C1  UNL     1      22.990  32.422  17.218  1.00  0.00     0.044 C 
HETATM    2  C2  UNL     1      22.217  32.546  16.304  1.00  0.00     0.109 C 
HETATM    3  N1  UNL     1      21.288  32.664  15.228  1.00  0.00     0.033 N 
HETATM    4  C17 UNL     1      21.484  31.525  14.402  1.00  0.00     0.307 C 
HETATM    5  C18 UNL     1      22.577  31.205  13.529  1.00  0.00     0.056 C 
HETATM    6  C19 UNL     1      22.042  30.453  12.303  1.00  0.00     0.005 C 
HETATM    7  C20 UNL     1      21.117  29.329  12.516  1.00  0.00     0.020 C 
HETATM    8  C21 UNL     1      19.643  29.581  12.474  1.00  0.00     0.130 C 
HETATM    9  C25 UNL     1      18.981  29.324  13.826  1.00  0.00     0.228 C 
HETATM   10  O2  UNL     1      18.435  28.185  14.038  1.00  0.00    -0.273 OA
HETATM   11  N5  UNL     1      18.922  30.239  14.864  1.00  0.00    -0.353 N 
ATOM     12  H5  UNL     1      18.837  29.797  15.780  1.00  0.00     0.163 HD
HETATM   13  C26 UNL     1      18.955  31.684  14.936  1.00  0.00     0.126 C 
HETATM   14  C31 UNL     1      19.995  32.257  15.825  1.00  0.00     0.321 C 
HETATM   15  C32 UNL     1      20.581  31.006  16.485  1.00  0.00     0.254 C 
HETATM   16  O3  UNL     1      20.350  30.604  17.624  1.00  0.00    -0.271 OA
HETATM   17  N9  UNL     1      21.400  30.526  15.422  1.00  0.00    -0.330 N 
ATOM     18  H9  UNL     1      21.855  29.614  15.394  1.00  0.00     0.164 HD
ENDROOT
BRANCH   3  19
HETATM   19  C3  UNL     1      21.267  33.941  14.631  1.00  0.00     0.258 C 
BRANCH  19  20
HETATM   20  C4  UNL     1      21.177  34.979  15.720  1.00  0.00     0.031 C 
BRANCH  20  21
HETATM   21  C5  UNL     1      22.237  36.081  15.577  1.00  0.00     0.030 C 
BRANCH  21  22
HETATM   22  C6  UNL     1      21.948  37.044  16.671  1.00  0.00     0.237 C 
BRANCH  22  23
HETATM   23  N2  UNL     1      22.183  38.453  16.382  1.00  0.00    -0.067 N 
HETATM   24  C7  UNL     1      23.425  38.757  17.002  1.00  0.00     0.237 C 
HETATM   25  C8  UNL     1      23.732  40.118  17.478  1.00  0.00     0.028 C 
HETATM   26  C9  UNL     1      24.328  41.050  16.433  1.00  0.00     0.002 C 
HETATM   27  C10 UNL     1      23.427  42.036  15.842  1.00  0.00     0.000 C 
HETATM   28  C11 UNL     1      21.960  41.864  15.979  1.00  0.00     0.005 C 
HETATM   29  C12 UNL     1      21.275  40.869  15.137  1.00  0.00    -0.011 C 
HETATM   30  C13 UNL     1      22.108  39.921  14.375  1.00  0.00     0.032 C 
HETATM   31  C15 UNL     1      20.316  40.030  15.987  1.00  0.00     0.032 C 
HETATM   32  C14 UNL     1      22.210  38.539  14.938  1.00  0.00     0.238 C 
HETATM   33  C16 UNL     1      21.032  39.137  16.945  1.00  0.00     0.238 C 
ENDBRANCH  22  23
ENDBRANCH  21  22
ENDBRANCH  20  21
ENDBRANCH  19  20
ENDBRANCH   3  19
BRANCH  13  34
HETATM   34  C27 UNL     1      17.615  31.969  15.680  1.00  0.00     0.029 C 
BRANCH  34  35
HETATM   35  C28 UNL     1      16.868  32.994  14.857  1.00  0.00     0.022 C 
BRANCH  35  36
HETATM   36  C29 UNL     1      16.345  34.148  15.681  1.00  0.00     0.122 C 
BRANCH  36  37
HETATM   37  N6  UNL     1      17.455  34.654  16.447  1.00  0.00    -0.367 N 
HETATM   38  C30 UNL     1      17.363  34.971  17.654  1.00  0.00     0.196 C 
HETATM   39  N7  UNL     1      16.122  34.850  18.363  1.00  0.00    -0.067 NA
HETATM   40  N8  UNL     1      18.480  35.462  18.364  1.00  0.00    -0.067 NA
ATOM     41  H6  UNL     1      18.358  34.759  15.984  1.00  0.00     0.161 HD
ENDBRANCH  36  37
ENDBRANCH  35  36
ENDBRANCH  34  35
ENDBRANCH  13  34
BRANCH   8  42
HETATM   42  C22 UNL     1      18.879  28.643  11.552  1.00  0.00     0.173 C 
BRANCH  42  43
HETATM   43  N3  UNL     1      19.484  27.559  10.992  1.00  0.00    -0.385 NA
HETATM   44  C23 UNL     1      20.088  26.466  10.420  1.00  0.00     0.316 C 
HETATM   45  O1  UNL     1      19.796  25.932   9.312  1.00  0.00    -0.255 OA
BRANCH  44  46
HETATM   46  C24 UNL     1      21.241  25.739  11.100  1.00  0.00     0.348 C 
BRANCH  46  47
HETATM   47  N4  UNL     1      20.680  24.665  11.856  1.00  0.00    -0.070 N 
ATOM     48  H43 UNL     1      20.209  23.972  11.275  1.00  0.00     0.274 HD
ATOM     49  H42 UNL     1      21.386  24.046  12.254  1.00  0.00     0.274 HD
ATOM     50  H41 UNL     1      20.068  25.078  12.561  1.00  0.00     0.274 HD
ENDBRANCH  46  47
ENDBRANCH  44  46
ENDBRANCH  42  43
ENDBRANCH   8  42
TORSDOF 13
ENDMDL
MODEL 3
REMARK VINA RESULT: -9.369971651      2.470      9.446
REMARK  13 active torsions:
REMARK  status: ('A' for Active; 'I' for Inactive)
REMARK    1  A    between atoms: N1_3  and  C3_4 
REMARK    2  A    between atoms: C3_4  and  C4_5 
REMARK    3  A    between atoms: C4_5  and  C5_6 
REMARK    4  A    between atoms: C5_6  and  C6_7 
REMARK    5  A    between atoms: C6_7  and  N2_8 
REMARK    6  A    between atoms: C21_23  and  C22_24 
REMARK    7  A    between atoms: C22_24  and  N3_25 
REMARK       I    between atoms: N3_25  and  C23_26 
REMARK    8  A    between atoms: C23_26  and  C24_28 
REMARK    9  A    between atoms: C24_28  and  N4_29 
REMARK   10  A    between atoms: C26_37  and  C27_38 
REMARK   11  A    between atoms: C27_38  and  C28_39 
REMARK   12  A    between atoms: C28_39  and  C29_40 
REMARK   13  A    between atoms: C29_40  and  N6_41 
ROOT
HETATM    1  C1  UNL     1      22.813  32.405  17.524  1.00  0.00     0.044 C 
HETATM    2  C2  UNL     1      22.275  32.496  16.452  1.00  0.00     0.109 C 
HETATM    3  N1  UNL     1      21.620  32.577  15.187  1.00  0.00     0.033 N 
HETATM    4  C17 UNL     1      21.843  31.334  14.539  1.00  0.00     0.307 C 
HETATM    5  C18 UNL     1      23.047  30.800  13.971  1.00  0.00     0.056 C 
HETATM    6  C19 UNL     1      22.696  29.964  12.733  1.00  0.00     0.005 C 
HETATM    7  C20 UNL     1      21.613  28.974  12.837  1.00  0.00     0.020 C 
HETATM    8  C21 UNL     1      20.226  29.368  12.439  1.00  0.00     0.130 C 
HETATM    9  C25 UNL     1      19.263  29.345  13.624  1.00  0.00     0.228 C 
HETATM   10  O2  UNL     1      18.545  28.302  13.815  1.00  0.00    -0.273 OA
HETATM   11  N5  UNL     1      19.099  30.380  14.530  1.00  0.00    -0.353 N 
ATOM     12  H5  UNL     1      18.765  30.063  15.441  1.00  0.00     0.163 HD
HETATM   13  C26 UNL     1      19.298  31.812  14.470  1.00  0.00     0.126 C 
HETATM   14  C31 UNL     1      20.188  32.379  15.513  1.00  0.00     0.321 C 
HETATM   15  C32 UNL     1      20.457  31.165  16.403  1.00  0.00     0.254 C 
HETATM   16  O3  UNL     1      19.939  30.929  17.494  1.00  0.00    -0.271 OA
HETATM   17  N9  UNL     1      21.417  30.479  15.605  1.00  0.00    -0.330 N 
ATOM     18  H9  UNL     1      21.749  29.528  15.767  1.00  0.00     0.164 HD
ENDROOT
BRANCH   3  19
HETATM   19  C3  UNL     1      21.888  33.769  14.482  1.00  0.00     0.258 C 
BRANCH  19  20
HETATM   20  C4  UNL     1      23.259  34.260  14.871  1.00  0.00     0.031 C 
BRANCH  20  21
HETATM   21  C5  UNL     1      23.362  35.792  14.870  1.00  0.00     0.030 C 
BRANCH  21  22
HETATM   22  C6  UNL     1      22.940  36.211  16.231  1.00  0.00     0.237 C 
BRANCH  22  23
HETATM   23  N2  UNL     1      22.483  37.587  16.380  1.00  0.00    -0.067 N 
HETATM   24  C7  UNL     1      22.258  38.050  15.055  1.00  0.00     0.237 C 
HETATM   25  C8  UNL     1      22.387  39.476  14.708  1.00  0.00     0.028 C 
HETATM   26  C9  UNL     1      21.135  40.312  14.929  1.00  0.00     0.002 C 
HETATM   27  C10 UNL     1      21.109  41.153  16.122  1.00  0.00     0.000 C 
HETATM   28  C11 UNL     1      22.073  40.899  17.220  1.00  0.00     0.005 C 
HETATM   29  C12 UNL     1      21.839  39.764  18.129  1.00  0.00    -0.011 C 
HETATM   30  C13 UNL     1      20.798  38.790  17.760  1.00  0.00     0.032 C 
HETATM   31  C15 UNL     1      23.135  38.972  18.326  1.00  0.00     0.032 C 
HETATM   32  C14 UNL     1      21.283  37.497  17.184  1.00  0.00     0.238 C 
HETATM   33  C16 UNL     1      23.561  38.254  17.088  1.00  0.00     0.238 C 
ENDBRANCH  22  23
ENDBRANCH  21  22
ENDBRANCH  20  21
ENDBRANCH  19  20
ENDBRANCH   3  19
BRANCH  13  34
HETATM   34  C27 UNL     1      17.877  32.321  14.861  1.00  0.00     0.029 C 
BRANCH  34  35
HETATM   35  C28 UNL     1      17.821  33.785  14.491  1.00  0.00     0.022 C 
BRANCH  35  36
HETATM   36  C29 UNL     1      16.984  34.606  15.446  1.00  0.00     0.122 C 
BRANCH  36  37
HETATM   37  N6  UNL     1      17.877  35.104  16.462  1.00  0.00    -0.367 N 
HETATM   38  C30 UNL     1      17.565  35.169  17.671  1.00  0.00     0.196 C 
HETATM   39  N7  UNL     1      16.273  34.745  18.131  1.00  0.00    -0.067 NA
HETATM   40  N8  UNL     1      18.473  35.664  18.632  1.00  0.00    -0.067 NA
ATOM     41  H6  UNL     1      18.806  35.419  16.181  1.00  0.00     0.161 HD
ENDBRANCH  36  37
ENDBRANCH  35  36
ENDBRANCH  34  35
ENDBRANCH  13  34
BRANCH   8  42
HETATM   42  C22 UNL     1      19.564  28.409  11.462  1.00  0.00     0.173 C 
BRANCH  42  43
HETATM   43  N3  UNL     1      20.137  27.212  11.153  1.00  0.00    -0.385 NA
HETATM   44  C23 UNL     1      20.707  26.002  10.841  1.00  0.00     0.316 C 
HETATM   45  O1  UNL     1      20.099  24.937  10.530  1.00  0.00    -0.255 OA
BRANCH  44  46
HETATM   46  C24 UNL     1      22.216  25.803  10.834  1.00  0.00     0.348 C 
BRANCH  46  47
HETATM   47  N4  UNL     1      22.621  25.670   9.471  1.00  0.00    -0.070 N 
ATOM     48  H43 UNL     1      22.091  24.961   8.965  1.00  0.00     0.274 HD
ATOM     49  H42 UNL     1      22.354  26.469   8.896  1.00  0.00     0.274 HD
ATOM     50  H41 UNL     1      23.626  25.495   9.469  1.00  0.00     0.274 HD
ENDBRANCH  46  47
ENDBRANCH  44  46
ENDBRANCH  42  43
ENDBRANCH   8  42
TORSDOF 13
ENDMDL
MODEL 4
REMARK VINA RESULT: -9.311055497      2.401      9.350
REMARK  13 active torsions:
REMARK  status: ('A' for Active; 'I' for Inactive)
REMARK    1  A    between atoms: N1_3  and  C3_4 
REMARK    2  A    between atoms: C3_4  and  C4_5 
REMARK    3  A    between atoms: C4_5  and  C5_6 
REMARK    4  A    between atoms: C5_6  and  C6_7 
REMARK    5  A    between atoms: C6_7  and  N2_8 
REMARK    6  A    between atoms: C21_23  and  C22_24 
REMARK    7  A    between atoms: C22_24  and  N3_25 
REMARK       I    between atoms: N3_25  and  C23_26 
REMARK    8  A    between atoms: C23_26  and  C24_28 
REMARK    9  A    between atoms: C24_28  and  N4_29 
REMARK   10  A    between atoms: C26_37  and  C27_38 
REMARK   11  A    between atoms: C27_38  and  C28_39 
REMARK   12  A    between atoms: C28_39  and  C29_40 
REMARK   13  A    between atoms: C29_40  and  N6_41 
ROOT
HETATM    1  C1  UNL     1      22.868  32.448  17.582  1.00  0.00     0.044 C 
HETATM    2  C2  UNL     1      22.323  32.554  16.514  1.00  0.00     0.109 C 
HETATM    3  N1  UNL     1      21.661  32.654  15.254  1.00  0.00     0.033 N 
HETATM    4  C17 UNL     1      21.906  31.430  14.575  1.00  0.00     0.307 C 
HETATM    5  C18 UNL     1      23.118  30.934  13.989  1.00  0.00     0.056 C 
HETATM    6  C19 UNL     1      22.778  30.121  12.733  1.00  0.00     0.005 C 
HETATM    7  C20 UNL     1      21.715  29.109  12.817  1.00  0.00     0.020 C 
HETATM    8  C21 UNL     1      20.318  29.485  12.434  1.00  0.00     0.130 C 
HETATM    9  C25 UNL     1      19.361  29.415  13.622  1.00  0.00     0.228 C 
HETATM   10  O2  UNL     1      18.664  28.354  13.789  1.00  0.00    -0.273 OA
HETATM   11  N5  UNL     1      19.181  30.424  14.553  1.00  0.00    -0.353 N 
ATOM     12  H5  UNL     1      18.857  30.079  15.457  1.00  0.00     0.163 HD
HETATM   13  C26 UNL     1      19.352  31.861  14.527  1.00  0.00     0.126 C 
HETATM   14  C31 UNL     1      20.236  32.420  15.580  1.00  0.00     0.321 C 
HETATM   15  C32 UNL     1      20.531  31.189  16.440  1.00  0.00     0.254 C 
HETATM   16  O3  UNL     1      20.023  30.917  17.526  1.00  0.00    -0.271 OA
HETATM   17  N9  UNL     1      21.501  30.542  15.621  1.00  0.00    -0.330 N 
ATOM     18  H9  UNL     1      21.852  29.594  15.759  1.00  0.00     0.164 HD
ENDROOT
BRANCH   3  19
HETATM   19  C3  UNL     1      21.904  33.866  14.577  1.00  0.00     0.258 C 
BRANCH  19  20
HETATM   20  C4  UNL     1      23.383  34.154  14.619  1.00  0.00     0.031 C 
BRANCH  20  21
HETATM   21  C5  UNL     1      23.700  35.544  15.189  1.00  0.00     0.030 C 
BRANCH  21  22
HETATM   22  C6  UNL     1      22.388  36.234  15.285  1.00  0.00     0.237 C 
BRANCH  22  23
HETATM   23  N2  UNL     1      22.305  37.357  16.211  1.00  0.00    -0.067 N 
HETATM   24  C7  UNL     1      21.296  36.995  17.144  1.00  0.00     0.237 C 
HETATM   25  C8  UNL     1      20.487  38.015  17.834  1.00  0.00     0.028 C 
HETATM   26  C9  UNL     1      21.099  38.569  19.113  1.00  0.00     0.002 C 
HETATM   27  C10 UNL     1      21.720  39.888  19.026  1.00  0.00     0.000 C 
HETATM   28  C11 UNL     1      22.062  40.451  17.697  1.00  0.00     0.005 C 
HETATM   29  C12 UNL     1      23.252  39.946  16.991  1.00  0.00    -0.011 C 
HETATM   30  C13 UNL     1      23.906  38.737  17.522  1.00  0.00     0.032 C 
HETATM   31  C15 UNL     1      22.911  39.657  15.526  1.00  0.00     0.032 C 
HETATM   32  C14 UNL     1      23.627  37.464  16.787  1.00  0.00     0.238 C 
HETATM   33  C16 UNL     1      21.984  38.498  15.372  1.00  0.00     0.238 C 
ENDBRANCH  22  23
ENDBRANCH  21  22
ENDBRANCH  20  21
ENDBRANCH  19  20
ENDBRANCH   3  19
BRANCH  13  34
HETATM   34  C27 UNL     1      17.923  32.333  14.936  1.00  0.00     0.029 C 
BRANCH  34  35
HETATM   35  C28 UNL     1      17.779  33.757  14.453  1.00  0.00     0.022 C 
BRANCH  35  36
HETATM   36  C29 UNL     1      16.947  34.615  15.379  1.00  0.00     0.122 C 
BRANCH  36  37
HETATM   37  N6  UNL     1      17.812  35.034  16.452  1.00  0.00    -0.367 N 
HETATM   38  C30 UNL     1      17.457  35.036  17.652  1.00  0.00     0.196 C 
HETATM   39  N7  UNL     1      16.142  34.616  18.040  1.00  0.00    -0.067 NA
HETATM   40  N8  UNL     1      18.340  35.455  18.670  1.00  0.00    -0.067 NA
ATOM     41  H6  UNL     1      18.757  35.343  16.223  1.00  0.00     0.161 HD
ENDBRANCH  36  37
ENDBRANCH  35  36
ENDBRANCH  34  35
ENDBRANCH  13  34
BRANCH   8  42
HETATM   42  C22 UNL     1      19.671  28.537  11.436  1.00  0.00     0.173 C 
BRANCH  42  43
HETATM   43  N3  UNL     1      20.187  27.297  11.207  1.00  0.00    -0.385 NA
HETATM   44  C23 UNL     1      20.697  26.044  10.976  1.00  0.00     0.316 C 
HETATM   45  O1  UNL     1      20.039  24.980  10.791  1.00  0.00    -0.255 OA
BRANCH  44  46
HETATM   46  C24 UNL     1      22.197  25.787  10.913  1.00  0.00     0.348 C 
BRANCH  46  47
HETATM   47  N4  UNL     1      22.556  25.696   9.534  1.00  0.00    -0.070 N 
ATOM     48  H43 UNL     1      21.778  25.414   8.937  1.00  0.00     0.274 HD
ATOM     49  H42 UNL     1      22.727  26.606   9.105  1.00  0.00     0.274 HD
ATOM     50  H41 UNL     1      23.357  25.068   9.469  1.00  0.00     0.274 HD
ENDBRANCH  46  47
ENDBRANCH  44  46
ENDBRANCH  42  43
ENDBRANCH   8  42
TORSDOF 13
ENDMDL
MODEL 5
REMARK VINA RESULT: -9.228602331      2.547      9.469
REMARK  13 active torsions:
REMARK  status: ('A' for Active; 'I' for Inactive)
REMARK    1  A    between atoms: N1_3  and  C3_4 
REMARK    2  A    between atoms: C3_4  and  C4_5 
REMARK    3  A    between atoms: C4_5  and  C5_6 
REMARK    4  A    between atoms: C5_6  and  C6_7 
REMARK    5  A    between atoms: C6_7  and  N2_8 
REMARK    6  A    between atoms: C21_23  and  C22_24 
REMARK    7  A    between atoms: C22_24  and  N3_25 
REMARK       I    between atoms: N3_25  and  C23_26 
REMARK    8  A    between atoms: C23_26  and  C24_28 
REMARK    9  A    between atoms: C24_28  and  N4_29 
REMARK   10  A    between atoms: C26_37  and  C27_38 
REMARK   11  A    between atoms: C27_38  and  C28_39 
REMARK   12  A    between atoms: C28_39  and  C29_40 
REMARK   13  A    between atoms: C29_40  and  N6_41 
ROOT
HETATM    1  C1  UNL     1      22.749  32.419  17.529  1.00  0.00     0.044 C 
HETATM    2  C2  UNL     1      22.210  32.511  16.457  1.00  0.00     0.109 C 
HETATM    3  N1  UNL     1      21.553  32.592  15.193  1.00  0.00     0.033 N 
HETATM    4  C17 UNL     1      21.781  31.351  14.541  1.00  0.00     0.307 C 
HETATM    5  C18 UNL     1      22.987  30.824  13.971  1.00  0.00     0.056 C 
HETATM    6  C19 UNL     1      22.639  29.990  12.731  1.00  0.00     0.005 C 
HETATM    7  C20 UNL     1      21.560  28.995  12.833  1.00  0.00     0.020 C 
HETATM    8  C21 UNL     1      20.170  29.385  12.437  1.00  0.00     0.130 C 
HETATM    9  C25 UNL     1      19.208  29.354  13.624  1.00  0.00     0.228 C 
HETATM   10  O2  UNL     1      18.495  28.308  13.812  1.00  0.00    -0.273 OA
HETATM   11  N5  UNL     1      19.042  30.386  14.533  1.00  0.00    -0.353 N 
ATOM     12  H5  UNL     1      18.710  30.065  15.443  1.00  0.00     0.163 HD
HETATM   13  C26 UNL     1      19.234  31.819  14.476  1.00  0.00     0.126 C 
HETATM   14  C31 UNL     1      20.123  32.387  15.519  1.00  0.00     0.321 C 
HETATM   15  C32 UNL     1      20.397  31.172  16.406  1.00  0.00     0.254 C 
HETATM   16  O3  UNL     1      19.882  30.931  17.497  1.00  0.00    -0.271 OA
HETATM   17  N9  UNL     1      21.360  30.492  15.605  1.00  0.00    -0.330 N 
ATOM     18  H9  UNL     1      21.696  29.542  15.765  1.00  0.00     0.164 HD
ENDROOT
BRANCH   3  19
HETATM   19  C3  UNL     1      21.816  33.787  14.491  1.00  0.00     0.258 C 
BRANCH  19  20
HETATM   20  C4  UNL     1      23.207  34.252  14.836  1.00  0.00     0.031 C 
BRANCH  20  21
HETATM   21  C5  UNL     1      23.337  35.782  14.837  1.00  0.00     0.030 C 
BRANCH  21  22
HETATM   22  C6  UNL     1      22.325  36.258  15.813  1.00  0.00     0.237 C 
BRANCH  22  23
HETATM   23  N2  UNL     1      22.457  37.635  16.275  1.00  0.00    -0.067 N 
HETATM   24  C7  UNL     1      23.780  37.730  16.786  1.00  0.00     0.237 C 
HETATM   25  C8  UNL     1      24.122  38.683  17.855  1.00  0.00     0.028 C 
HETATM   26  C9  UNL     1      24.489  40.083  17.382  1.00  0.00     0.002 C 
HETATM   27  C10 UNL     1      23.463  41.113  17.523  1.00  0.00     0.000 C 
HETATM   28  C11 UNL     1      22.052  40.717  17.750  1.00  0.00     0.005 C 
HETATM   29  C12 UNL     1      21.259  40.215  16.615  1.00  0.00    -0.011 C 
HETATM   30  C13 UNL     1      21.971  39.898  15.365  1.00  0.00     0.032 C 
HETATM   31  C15 UNL     1      20.498  38.950  17.023  1.00  0.00     0.032 C 
HETATM   32  C14 UNL     1      22.219  38.446  15.102  1.00  0.00     0.238 C 
HETATM   33  C16 UNL     1      21.405  37.789  17.264  1.00  0.00     0.238 C 
ENDBRANCH  22  23
ENDBRANCH  21  22
ENDBRANCH  20  21
ENDBRANCH  19  20
ENDBRANCH   3  19
BRANCH  13  34
HETATM   34  C27 UNL     1      17.811  32.321  14.869  1.00  0.00     0.029 C 
BRANCH  34  35
HETATM   35  C28 UNL     1      17.730  33.772  14.453  1.00  0.00     0.022 C 
BRANCH  35  36
HETATM   36  C29 UNL     1      16.952  34.626  15.429  1.00  0.00     0.122 C 
BRANCH  36  37
HETATM   37  N6  UNL     1      17.883  35.058  16.440  1.00  0.00    -0.367 N 
HETATM   38  C30 UNL     1      17.594  35.111  17.656  1.00  0.00     0.196 C 
HETATM   39  N7  UNL     1      16.291  34.739  18.128  1.00  0.00    -0.067 NA
HETATM   40  N8  UNL     1      18.539  35.542  18.611  1.00  0.00    -0.067 NA
ATOM     41  H6  UNL     1      18.821  35.334  16.151  1.00  0.00     0.161 HD
ENDBRANCH  36  37
ENDBRANCH  35  36
ENDBRANCH  34  35
ENDBRANCH  13  34
BRANCH   8  42
HETATM   42  C22 UNL     1      19.512  28.425  11.458  1.00  0.00     0.173 C 
BRANCH  42  43
HETATM   43  N3  UNL     1      20.072  27.216  11.173  1.00  0.00    -0.385 NA
HETATM   44  C23 UNL     1      20.627  25.994  10.885  1.00  0.00     0.316 C 
HETATM   45  O1  UNL     1      20.010  24.937  10.567  1.00  0.00    -0.255 OA
BRANCH  44  46
HETATM   46  C24 UNL     1      22.133  25.768  10.920  1.00  0.00     0.348 C 
BRANCH  46  47
HETATM   47  N4  UNL     1      22.582  25.694   9.566  1.00  0.00    -0.070 N 
ATOM     48  H43 UNL     1      21.825  25.534   8.902  1.00  0.00     0.274 HD
ATOM     49  H42 UNL     1      22.892  26.594   9.199  1.00  0.00     0.274 HD
ATOM     50  H41 UNL     1      23.307  24.976   9.526  1.00  0.00     0.274 HD
ENDBRANCH  46  47
ENDBRANCH  44  46
ENDBRANCH  42  43
ENDBRANCH   8  42
TORSDOF 13
ENDMDL
