MODEL 1
REMARK VINA RESULT: -6.513554916      0.000      0.000
REMARK  12 active torsions:
REMARK  status: ('A' for Active; 'I' for Inactive)
REMARK    1  A    between atoms: C2_2  and  C4_4 
REMARK    2  A    between atoms: C4_4  and  C5_5 
REMARK    3  A    between atoms: C7_10  and  C8_11 
REMARK    4  A    between atoms: C8_11  and  C9_12 
REMARK    5  A    between atoms: C14_22  and  C15_23 
REMARK    6  A    between atoms: C15_23  and  C16_24 
REMARK    7  A    between atoms: C16_24  and  N4_25 
REMARK    8  A    between atoms: C21_33  and  C22_34 
REMARK    9  A    between atoms: C22_34  and  C23_35 
REMARK   10  A    between atoms: C27_42  and  C28_43 
REMARK   11  A    between atoms: C28_43  and  C29_44 
REMARK   12  A    between atoms: C32_49  and  O5_50 
ROOT
HETATM    1  C5  UNL     1      21.522  41.310  16.747  1.00  0.00     0.159 C 
HETATM    2  N1  UNL     1      21.601  40.532  17.957  1.00  0.00    -0.347 N 
ATOM      3  H1  UNL     1      21.312  41.048  18.789  1.00  0.00     0.163 HD
HETATM    4  C6  UNL     1      21.990  39.226  18.226  1.00  0.00     0.241 C 
HETATM    5  O1  UNL     1      22.880  39.061  19.146  1.00  0.00    -0.271 OA
HETATM    6  C7  UNL     1      21.572  37.937  17.656  1.00  0.00     0.180 C 
HETATM    7  N3  UNL     1      20.903  37.133  18.703  1.00  0.00    -0.346 N 
ATOM      8  H3  UNL     1      21.476  36.919  19.519  1.00  0.00     0.163 HD
HETATM    9  C13 UNL     1      19.623  36.633  18.737  1.00  0.00     0.241 C 
HETATM   10  O2  UNL     1      19.486  35.368  18.936  1.00  0.00    -0.271 OA
HETATM   11  C14 UNL     1      18.305  37.323  18.578  1.00  0.00     0.178 C 
HETATM   12  N5  UNL     1      18.456  38.745  18.471  1.00  0.00    -0.346 N 
ATOM     13  H5  UNL     1      18.967  39.026  17.633  1.00  0.00     0.163 HD
HETATM   14  C20 UNL     1      18.063  39.826  19.250  1.00  0.00     0.241 C 
HETATM   15  O3  UNL     1      18.849  40.355  20.119  1.00  0.00    -0.271 OA
HETATM   16  C21 UNL     1      16.734  40.554  19.241  1.00  0.00     0.177 C 
HETATM   17  N6  UNL     1      16.707  41.576  18.237  1.00  0.00    -0.346 N 
ATOM     18  H6  UNL     1      15.772  41.803  17.899  1.00  0.00     0.163 HD
HETATM   19  C26 UNL     1      17.733  42.323  17.632  1.00  0.00     0.241 C 
HETATM   20  O4  UNL     1      17.916  42.261  16.387  1.00  0.00    -0.271 OA
HETATM   21  C27 UNL     1      18.688  43.244  18.330  1.00  0.00     0.175 C 
HETATM   22  N7  UNL     1      20.052  43.158  17.951  1.00  0.00    -0.359 N 
ATOM     23  H7  UNL     1      20.617  43.675  18.625  1.00  0.00     0.162 HD
HETATM   24  C32 UNL     1      20.881  42.622  16.993  1.00  0.00     0.135 C 
ENDROOT
BRANCH   6  25
HETATM   25  C8  UNL     1      22.720  37.186  17.037  1.00  0.00     0.074 C 
BRANCH  25  26
HETATM   26  C9  UNL     1      22.514  35.850  16.550  1.00  0.00    -0.039 A 
HETATM   27  C10 UNL     1      22.869  34.660  17.134  1.00  0.00     0.025 A 
HETATM   28  C11 UNL     1      22.485  33.632  16.329  1.00  0.00     0.088 A 
HETATM   29  N2  UNL     1      21.894  34.145  15.246  1.00  0.00    -0.375 N 
HETATM   30  C12 UNL     1      21.903  35.494  15.364  1.00  0.00     0.094 A 
ATOM     31  H2  UNL     1      21.504  33.614  14.468  1.00  0.00     0.164 HD
ENDBRANCH  25  26
ENDBRANCH   6  25
BRANCH   1  32
HETATM   32  C4  UNL     1      20.947  40.624  15.590  1.00  0.00     0.037 C 
BRANCH  32  33
HETATM   33  C2  UNL     1      21.776  40.475  14.348  1.00  0.00    -0.020 C 
HETATM   34  C1  UNL     1      23.086  41.215  14.410  1.00  0.00     0.009 C 
HETATM   35  C3  UNL     1      22.147  38.989  14.151  1.00  0.00     0.009 C 
ENDBRANCH  32  33
ENDBRANCH   1  32
BRANCH  11  36
HETATM   36  C15 UNL     1      17.756  36.788  17.244  1.00  0.00     0.063 C 
BRANCH  36  37
HETATM   37  C16 UNL     1      16.619  35.824  17.489  1.00  0.00     0.238 C 
BRANCH  37  38
HETATM   38  N4  UNL     1      16.623  34.737  16.534  1.00  0.00    -0.079 N 
HETATM   39  C17 UNL     1      17.932  34.107  16.476  1.00  0.00     0.271 C 
HETATM   40  C18 UNL     1      15.624  33.745  16.882  1.00  0.00     0.271 C 
HETATM   41  C19 UNL     1      16.314  35.199  15.185  1.00  0.00     0.271 C 
ENDBRANCH  37  38
ENDBRANCH  36  37
ENDBRANCH  11  36
BRANCH  24  42
HETATM   42  O5  UNL     1      21.210  43.464  16.047  1.00  0.00    -0.348 OA
ATOM     43  H5  UNL     1      21.014  43.091  15.196  1.00  0.00     0.219 HD
ENDBRANCH  24  42
BRANCH  21  44
HETATM   44  C28 UNL     1      18.093  44.630  18.074  1.00  0.00     0.038 C 
BRANCH  44  45
HETATM   45  C29 UNL     1      17.304  45.304  19.075  1.00  0.00    -0.020 C 
HETATM   46  C30 UNL     1      17.783  44.803  20.482  1.00  0.00     0.009 C 
HETATM   47  C31 UNL     1      15.837  45.225  19.125  1.00  0.00     0.009 C 
ENDBRANCH  44  45
ENDBRANCH  21  44
BRANCH  16  48
HETATM   48  C22 UNL     1      16.402  40.941  20.636  1.00  0.00     0.038 C 
BRANCH  48  49
HETATM   49  C23 UNL     1      15.270  41.914  20.789  1.00  0.00    -0.020 C 
HETATM   50  C24 UNL     1      13.982  41.037  20.823  1.00  0.00     0.009 C 
HETATM   51  C25 UNL     1      15.245  42.624  22.132  1.00  0.00     0.009 C 
ENDBRANCH  48  49
ENDBRANCH  16  48
TORSDOF 12
ENDMDL
MODEL 2
REMARK VINA RESULT: -6.458163082      2.221      7.699
REMARK  12 active torsions:
REMARK  status: ('A' for Active; 'I' for Inactive)
REMARK    1  A    between atoms: C2_2  and  C4_4 
REMARK    2  A    between atoms: C4_4  and  C5_5 
REMARK    3  A    between atoms: C7_10  and  C8_11 
REMARK    4  A    between atoms: C8_11  and  C9_12 
REMARK    5  A    between atoms: C14_22  and  C15_23 
REMARK    6  A    between atoms: C15_23  and  C16_24 
REMARK    7  A    between atoms: C16_24  and  N4_25 
REMARK    8  A    between atoms: C21_33  and  C22_34 
REMARK    9  A    between atoms: C22_34  and  C23_35 
REMARK   10  A    between atoms: C27_42  and  C28_43 
REMARK   11  A    between atoms: C28_43  and  C29_44 
REMARK   12  A    between atoms: C32_49  and  O5_50 
ROOT
HETATM    1  C5  UNL     1      22.142  39.435  17.668  1.00  0.00     0.159 C 
HETATM    2  N1  UNL     1      21.004  40.000  16.989  1.00  0.00    -0.347 N 
ATOM      3  H1  UNL     1      20.591  39.370  16.300  1.00  0.00     0.163 HD
HETATM    4  C6  UNL     1      20.353  41.223  17.077  1.00  0.00     0.241 C 
HETATM    5  O1  UNL     1      20.180  41.872  15.975  1.00  0.00    -0.271 OA
HETATM    6  C7  UNL     1      19.792  41.960  18.219  1.00  0.00     0.180 C 
HETATM    7  N3  UNL     1      18.324  42.067  18.057  1.00  0.00    -0.346 N 
ATOM      8  H3  UNL     1      18.013  42.552  17.216  1.00  0.00     0.163 HD
HETATM    9  C13 UNL     1      17.319  41.609  18.875  1.00  0.00     0.241 C 
HETATM   10  O2  UNL     1      16.441  42.463  19.270  1.00  0.00    -0.271 OA
HETATM   11  C14 UNL     1      17.051  40.238  19.411  1.00  0.00     0.178 C 
HETATM   12  N5  UNL     1      17.964  39.268  18.879  1.00  0.00    -0.346 N 
ATOM     13  H5  UNL     1      18.930  39.441  19.157  1.00  0.00     0.163 HD
HETATM   14  C20 UNL     1      17.828  38.147  18.069  1.00  0.00     0.241 C 
HETATM   15  O3  UNL     1      18.001  38.206  16.797  1.00  0.00    -0.271 OA
HETATM   16  C21 UNL     1      17.479  36.731  18.482  1.00  0.00     0.177 C 
HETATM   17  N6  UNL     1      18.647  36.003  18.883  1.00  0.00    -0.346 N 
ATOM     18  H6  UNL     1      18.459  35.242  19.536  1.00  0.00     0.163 HD
HETATM   19  C26 UNL     1      20.002  36.144  18.542  1.00  0.00     0.241 C 
HETATM   20  O4  UNL     1      20.861  36.387  19.432  1.00  0.00    -0.271 OA
HETATM   21  C27 UNL     1      20.587  36.028  17.166  1.00  0.00     0.175 C 
HETATM   22  N7  UNL     1      21.545  37.006  16.793  1.00  0.00    -0.359 N 
ATOM     23  H7  UNL     1      21.710  36.941  15.788  1.00  0.00     0.162 HD
HETATM   24  C32 UNL     1      22.329  38.011  17.310  1.00  0.00     0.135 C 
ENDROOT
BRANCH   6  25
HETATM   25  C8  UNL     1      20.424  43.314  18.393  1.00  0.00     0.074 C 
BRANCH  25  26
HETATM   26  C9  UNL     1      20.692  43.809  19.715  1.00  0.00    -0.039 A 
HETATM   27  C10 UNL     1      19.995  43.578  20.874  1.00  0.00     0.025 A 
HETATM   28  C11 UNL     1      20.595  44.243  21.899  1.00  0.00     0.088 A 
HETATM   29  N2  UNL     1      21.659  44.890  21.415  1.00  0.00    -0.375 N 
HETATM   30  C12 UNL     1      21.733  44.638  20.086  1.00  0.00     0.094 A 
ATOM     31  H2  UNL     1      22.302  45.472  21.951  1.00  0.00     0.164 HD
ENDBRANCH  25  26
ENDBRANCH   6  25
BRANCH   1  32
HETATM   32  C4  UNL     1      22.186  39.650  19.115  1.00  0.00     0.037 C 
BRANCH  32  33
HETATM   33  C2  UNL     1      23.290  40.489  19.691  1.00  0.00    -0.020 C 
HETATM   34  C1  UNL     1      23.688  41.642  18.809  1.00  0.00     0.009 C 
HETATM   35  C3  UNL     1      22.817  41.122  21.017  1.00  0.00     0.009 C 
ENDBRANCH  32  33
ENDBRANCH   1  32
BRANCH  11  36
HETATM   36  C15 UNL     1      17.303  40.367  20.923  1.00  0.00     0.063 C 
BRANCH  36  37
HETATM   37  C16 UNL     1      16.074  39.955  21.701  1.00  0.00     0.238 C 
BRANCH  37  38
HETATM   38  N4  UNL     1      16.192  40.289  23.104  1.00  0.00    -0.079 N 
HETATM   39  C17 UNL     1      17.557  40.671  23.430  1.00  0.00     0.271 C 
HETATM   40  C18 UNL     1      15.291  41.371  23.451  1.00  0.00     0.271 C 
HETATM   41  C19 UNL     1      15.852  39.158  23.961  1.00  0.00     0.271 C 
ENDBRANCH  37  38
ENDBRANCH  36  37
ENDBRANCH  11  36
BRANCH  24  42
HETATM   42  O5  UNL     1      23.562  37.647  17.553  1.00  0.00    -0.348 OA
ATOM     43  H5  UNL     1      23.749  36.822  17.119  1.00  0.00     0.219 HD
ENDBRANCH  24  42
BRANCH  21  44
HETATM   44  C28 UNL     1      21.157  34.608  17.143  1.00  0.00     0.038 C 
BRANCH  44  45
HETATM   45  C29 UNL     1      22.412  34.314  16.497  1.00  0.00    -0.020 C 
HETATM   46  C30 UNL     1      22.106  33.926  15.009  1.00  0.00     0.009 C 
HETATM   47  C31 UNL     1      23.336  33.277  16.976  1.00  0.00     0.009 C 
ENDBRANCH  44  45
ENDBRANCH  21  44
BRANCH  16  48
HETATM   48  C22 UNL     1      16.617  36.135  17.429  1.00  0.00     0.038 C 
BRANCH  48  49
HETATM   49  C23 UNL     1      16.885  34.696  17.106  1.00  0.00    -0.020 C 
HETATM   50  C24 UNL     1      15.480  34.024  17.047  1.00  0.00     0.009 C 
HETATM   51  C25 UNL     1      17.439  34.470  15.708  1.00  0.00     0.009 C 
ENDBRANCH  48  49
ENDBRANCH  16  48
TORSDOF 12
ENDMDL
MODEL 3
REMARK VINA RESULT: -6.309909630      3.543      9.524
REMARK  12 active torsions:
REMARK  status: ('A' for Active; 'I' for Inactive)
REMARK    1  A    between atoms: C2_2  and  C4_4 
REMARK    2  A    between atoms: C4_4  and  C5_5 
REMARK    3  A    between atoms: C7_10  and  C8_11 
REMARK    4  A    between atoms: C8_11  and  C9_12 
REMARK    5  A    between atoms: C14_22  and  C15_23 
REMARK    6  A    between atoms: C15_23  and  C16_24 
REMARK    7  A    between atoms: C16_24  and  N4_25 
REMARK    8  A    between atoms: C21_33  and  C22_34 
REMARK    9  A    between atoms: C22_34  and  C23_35 
REMARK   10  A    between atoms: C27_42  and  C28_43 
REMARK   11  A    between atoms: C28_43  and  C29_44 
REMARK   12  A    between atoms: C32_49  and  O5_50 
ROOT
HETATM    1  C5  UNL     1      18.221  34.853  17.674  1.00  0.00     0.159 C 
HETATM    2  N1  UNL     1      19.544  34.721  18.227  1.00  0.00    -0.347 N 
ATOM      3  H1  UNL     1      19.899  33.764  18.203  1.00  0.00     0.163 HD
HETATM    4  C6  UNL     1      20.438  35.625  18.786  1.00  0.00     0.241 C 
HETATM    5  O1  UNL     1      20.913  35.331  19.949  1.00  0.00    -0.271 OA
HETATM    6  C7  UNL     1      20.979  36.902  18.300  1.00  0.00     0.180 C 
HETATM    7  N3  UNL     1      22.440  36.769  18.100  1.00  0.00    -0.346 N 
ATOM      8  H3  UNL     1      22.973  36.525  18.934  1.00  0.00     0.163 HD
HETATM    9  C13 UNL     1      23.183  36.927  16.954  1.00  0.00     0.241 C 
HETATM   10  O2  UNL     1      24.166  37.757  16.995  1.00  0.00    -0.271 OA
HETATM   11  C14 UNL     1      23.049  36.279  15.612  1.00  0.00     0.178 C 
HETATM   12  N5  UNL     1      22.027  35.273  15.604  1.00  0.00    -0.346 N 
ATOM     13  H5  UNL     1      21.096  35.655  15.770  1.00  0.00     0.163 HD
HETATM   14  C20 UNL     1      22.020  33.895  15.420  1.00  0.00     0.241 C 
HETATM   15  O3  UNL     1      22.053  33.080  16.413  1.00  0.00    -0.271 OA
HETATM   16  C21 UNL     1      21.972  33.125  14.116  1.00  0.00     0.177 C 
HETATM   17  N6  UNL     1      20.623  32.950  13.664  1.00  0.00    -0.346 N 
ATOM     18  H6  UNL     1      20.535  32.832  12.654  1.00  0.00     0.163 HD
HETATM   19  C26 UNL     1      19.400  32.913  14.355  1.00  0.00     0.241 C 
HETATM   20  O4  UNL     1      18.500  33.757  14.101  1.00  0.00    -0.271 OA
HETATM   21  C27 UNL     1      19.012  31.928  15.417  1.00  0.00     0.175 C 
HETATM   22  N7  UNL     1      18.368  32.448  16.568  1.00  0.00    -0.359 N 
ATOM     23  H7  UNL     1      18.341  31.726  17.288  1.00  0.00     0.162 HD
HETATM   24  C32 UNL     1      17.767  33.586  17.055  1.00  0.00     0.135 C 
ENDROOT
BRANCH   6  25
HETATM   25  C8  UNL     1      20.655  38.049  19.219  1.00  0.00     0.074 C 
BRANCH  25  26
HETATM   26  C9  UNL     1      21.314  39.313  19.039  1.00  0.00    -0.039 A 
HETATM   27  C10 UNL     1      22.603  39.660  19.357  1.00  0.00     0.025 A 
HETATM   28  C11 UNL     1      22.814  40.961  19.018  1.00  0.00     0.088 A 
HETATM   29  N2  UNL     1      21.686  41.447  18.492  1.00  0.00    -0.375 N 
HETATM   30  C12 UNL     1      20.762  40.457  18.498  1.00  0.00     0.094 A 
ATOM     31  H2  UNL     1      21.545  42.396  18.147  1.00  0.00     0.164 HD
ENDBRANCH  25  26
ENDBRANCH   6  25
BRANCH   1  32
HETATM   32  C4  UNL     1      18.016  36.001  16.790  1.00  0.00     0.037 C 
BRANCH  32  33
HETATM   33  C2  UNL     1      17.235  37.179  17.299  1.00  0.00    -0.020 C 
HETATM   34  C1  UNL     1      17.003  37.146  18.787  1.00  0.00     0.009 C 
HETATM   35  C3  UNL     1      18.026  38.477  17.029  1.00  0.00     0.009 C 
ENDBRANCH  32  33
ENDBRANCH   1  32
BRANCH  11  36
HETATM   36  C15 UNL     1      22.615  37.424  14.681  1.00  0.00     0.063 C 
BRANCH  36  37
HETATM   37  C16 UNL     1      21.887  38.493  15.462  1.00  0.00     0.238 C 
BRANCH  37  38
HETATM   38  N4  UNL     1      22.014  39.792  14.837  1.00  0.00    -0.079 N 
HETATM   39  C17 UNL     1      20.820  40.592  15.066  1.00  0.00     0.271 C 
HETATM   40  C18 UNL     1      23.173  40.496  15.349  1.00  0.00     0.271 C 
HETATM   41  C19 UNL     1      22.182  39.685  13.392  1.00  0.00     0.271 C 
ENDBRANCH  37  38
ENDBRANCH  36  37
ENDBRANCH  11  36
BRANCH  24  42
HETATM   42  O5  UNL     1      16.462  33.572  16.970  1.00  0.00    -0.348 OA
ATOM     43  H5  UNL     1      16.081  33.451  17.832  1.00  0.00     0.219 HD
ENDBRANCH  24  42
BRANCH  21  44
HETATM   44  C28 UNL     1      18.143  30.920  14.663  1.00  0.00     0.038 C 
BRANCH  44  45
HETATM   45  C29 UNL     1      18.712  29.742  14.058  1.00  0.00    -0.020 C 
HETATM   46  C30 UNL     1      18.701  29.948  12.503  1.00  0.00     0.009 C 
HETATM   47  C31 UNL     1      18.168  28.393  14.263  1.00  0.00     0.009 C 
ENDBRANCH  44  45
ENDBRANCH  21  44
BRANCH  16  48
HETATM   48  C22 UNL     1      22.820  31.913  14.256  1.00  0.00     0.038 C 
BRANCH  48  49
HETATM   49  C23 UNL     1      22.286  30.668  13.614  1.00  0.00    -0.020 C 
HETATM   50  C24 UNL     1      23.454  30.133  12.732  1.00  0.00     0.009 C 
HETATM   51  C25 UNL     1      22.035  29.529  14.589  1.00  0.00     0.009 C 
ENDBRANCH  48  49
ENDBRANCH  16  48
TORSDOF 12
ENDMDL
MODEL 4
REMARK VINA RESULT: -6.309042856      2.255      7.614
REMARK  12 active torsions:
REMARK  status: ('A' for Active; 'I' for Inactive)
REMARK    1  A    between atoms: C2_2  and  C4_4 
REMARK    2  A    between atoms: C4_4  and  C5_5 
REMARK    3  A    between atoms: C7_10  and  C8_11 
REMARK    4  A    between atoms: C8_11  and  C9_12 
REMARK    5  A    between atoms: C14_22  and  C15_23 
REMARK    6  A    between atoms: C15_23  and  C16_24 
REMARK    7  A    between atoms: C16_24  and  N4_25 
REMARK    8  A    between atoms: C21_33  and  C22_34 
REMARK    9  A    between atoms: C22_34  and  C23_35 
REMARK   10  A    between atoms: C27_42  and  C28_43 
REMARK   11  A    between atoms: C28_43  and  C29_44 
REMARK   12  A    between atoms: C32_49  and  O5_50 
ROOT
HETATM    1  C5  UNL     1      22.517  38.300  16.387  1.00  0.00     0.159 C 
HETATM    2  N1  UNL     1      21.398  39.014  15.827  1.00  0.00    -0.347 N 
ATOM      3  H1  UNL     1      20.729  38.408  15.351  1.00  0.00     0.163 HD
HETATM    4  C6  UNL     1      21.041  40.356  15.801  1.00  0.00     0.241 C 
HETATM    5  O1  UNL     1      20.771  40.865  14.646  1.00  0.00    -0.271 OA
HETATM    6  C7  UNL     1      20.897  41.358  16.868  1.00  0.00     0.180 C 
HETATM    7  N3  UNL     1      19.481  41.782  16.952  1.00  0.00    -0.346 N 
ATOM      8  H3  UNL     1      19.102  42.202  16.103  1.00  0.00     0.163 HD
HETATM    9  C13 UNL     1      18.603  41.692  18.005  1.00  0.00     0.241 C 
HETATM   10  O2  UNL     1      18.020  42.775  18.384  1.00  0.00    -0.271 OA
HETATM   11  C14 UNL     1      18.185  40.512  18.824  1.00  0.00     0.178 C 
HETATM   12  N5  UNL     1      18.747  39.290  18.328  1.00  0.00    -0.346 N 
ATOM     13  H5  UNL     1      19.766  39.269  18.393  1.00  0.00     0.163 HD
HETATM   14  C20 UNL     1      18.219  38.129  17.777  1.00  0.00     0.241 C 
HETATM   15  O3  UNL     1      18.124  37.966  16.505  1.00  0.00    -0.271 OA
HETATM   16  C21 UNL     1      17.688  36.907  18.499  1.00  0.00     0.177 C 
HETATM   17  N6  UNL     1      18.743  35.990  18.815  1.00  0.00    -0.346 N 
ATOM     18  H6  UNL     1      18.549  35.395  19.621  1.00  0.00     0.163 HD
HETATM   19  C26 UNL     1      19.994  35.760  18.219  1.00  0.00     0.241 C 
HETATM   20  O4  UNL     1      21.054  35.918  18.883  1.00  0.00    -0.271 OA
HETATM   21  C27 UNL     1      20.236  35.317  16.807  1.00  0.00     0.175 C 
HETATM   22  N7  UNL     1      21.269  35.980  16.096  1.00  0.00    -0.359 N 
ATOM     23  H7  UNL     1      21.199  35.737  15.108  1.00  0.00     0.162 HD
HETATM   24  C32 UNL     1      22.332  36.836  16.272  1.00  0.00     0.135 C 
ENDROOT
BRANCH   6  25
HETATM   25  C8  UNL     1      21.811  42.537  16.673  1.00  0.00     0.074 C 
BRANCH  25  26
HETATM   26  C9  UNL     1      22.466  43.124  17.810  1.00  0.00    -0.039 A 
HETATM   27  C10 UNL     1      22.015  43.220  19.103  1.00  0.00     0.025 A 
HETATM   28  C11 UNL     1      22.953  43.853  19.859  1.00  0.00     0.088 A 
HETATM   29  N2  UNL     1      23.990  44.160  19.073  1.00  0.00    -0.375 N 
HETATM   30  C12 UNL     1      23.709  43.724  17.822  1.00  0.00     0.094 A 
ATOM     31  H2  UNL     1      24.842  44.638  19.365  1.00  0.00     0.164 HD
ENDBRANCH  25  26
ENDBRANCH   6  25
BRANCH   1  32
HETATM   32  C4  UNL     1      22.911  38.700  17.738  1.00  0.00     0.037 C 
BRANCH  32  33
HETATM   33  C2  UNL     1      24.264  39.317  17.946  1.00  0.00    -0.020 C 
HETATM   34  C1  UNL     1      24.688  40.226  16.822  1.00  0.00     0.009 C 
HETATM   35  C3  UNL     1      24.237  40.204  19.210  1.00  0.00     0.009 C 
ENDBRANCH  32  33
ENDBRANCH   1  32
BRANCH  11  36
HETATM   36  C15 UNL     1      18.774  40.791  20.218  1.00  0.00     0.063 C 
BRANCH  36  37
HETATM   37  C16 UNL     1      17.670  40.947  21.237  1.00  0.00     0.238 C 
BRANCH  37  38
HETATM   38  N4  UNL     1      17.834  42.151  22.023  1.00  0.00    -0.079 N 
HETATM   39  C17 UNL     1      16.821  43.135  21.675  1.00  0.00     0.271 C 
HETATM   40  C18 UNL     1      17.752  41.854  23.440  1.00  0.00     0.271 C 
HETATM   41  C19 UNL     1      19.131  42.778  21.792  1.00  0.00     0.271 C 
ENDBRANCH  37  38
ENDBRANCH  36  37
ENDBRANCH  11  36
BRANCH  24  42
HETATM   42  O5  UNL     1      23.489  36.231  16.355  1.00  0.00    -0.348 OA
ATOM     43  H5  UNL     1      23.449  35.389  15.915  1.00  0.00     0.219 HD
ENDBRANCH  24  42
BRANCH  21  44
HETATM   44  C28 UNL     1      20.490  33.815  16.947  1.00  0.00     0.038 C 
BRANCH  44  45
HETATM   45  C29 UNL     1      19.638  32.847  16.301  1.00  0.00    -0.020 C 
HETATM   46  C30 UNL     1      20.117  31.419  16.739  1.00  0.00     0.009 C 
HETATM   47  C31 UNL     1      19.485  32.762  14.842  1.00  0.00     0.009 C 
ENDBRANCH  44  45
ENDBRANCH  21  44
BRANCH  16  48
HETATM   48  C22 UNL     1      16.518  36.388  17.744  1.00  0.00     0.038 C 
BRANCH  48  49
HETATM   49  C23 UNL     1      16.704  35.048  17.098  1.00  0.00    -0.020 C 
HETATM   50  C24 UNL     1      15.429  34.235  17.474  1.00  0.00     0.009 C 
HETATM   51  C25 UNL     1      16.661  35.083  15.579  1.00  0.00     0.009 C 
ENDBRANCH  48  49
ENDBRANCH  16  48
TORSDOF 12
ENDMDL
MODEL 5
REMARK VINA RESULT: -6.250569998      2.200      7.667
REMARK  12 active torsions:
REMARK  status: ('A' for Active; 'I' for Inactive)
REMARK    1  A    between atoms: C2_2  and  C4_4 
REMARK    2  A    between atoms: C4_4  and  C5_5 
REMARK    3  A    between atoms: C7_10  and  C8_11 
REMARK    4  A    between atoms: C8_11  and  C9_12 
REMARK    5  A    between atoms: C14_22  and  C15_23 
REMARK    6  A    between atoms: C15_23  and  C16_24 
REMARK    7  A    between atoms: C16_24  and  N4_25 
REMARK    8  A    between atoms: C21_33  and  C22_34 
REMARK    9  A    between atoms: C22_34  and  C23_35 
REMARK   10  A    between atoms: C27_42  and  C28_43 
REMARK   11  A    between atoms: C28_43  and  C29_44 
REMARK   12  A    between atoms: C32_49  and  O5_50 
ROOT
HETATM    1  C5  UNL     1      22.015  38.705  17.032  1.00  0.00     0.159 C 
HETATM    2  N1  UNL     1      20.870  39.316  16.408  1.00  0.00    -0.347 N 
ATOM      3  H1  UNL     1      20.356  38.682  15.796  1.00  0.00     0.163 HD
HETATM    4  C6  UNL     1      20.320  40.590  16.466  1.00  0.00     0.241 C 
HETATM    5  O1  UNL     1      20.106  41.184  15.340  1.00  0.00    -0.271 OA
HETATM    6  C7  UNL     1      19.910  41.435  17.596  1.00  0.00     0.180 C 
HETATM    7  N3  UNL     1      18.446  41.648  17.542  1.00  0.00    -0.346 N 
ATOM      8  H3  UNL     1      18.104  42.105  16.698  1.00  0.00     0.163 HD
HETATM    9  C13 UNL     1      17.481  41.320  18.464  1.00  0.00     0.241 C 
HETATM   10  O2  UNL     1      16.703  42.262  18.869  1.00  0.00    -0.271 OA
HETATM   11  C14 UNL     1      17.157  40.008  19.108  1.00  0.00     0.178 C 
HETATM   12  N5  UNL     1      17.949  38.940  18.571  1.00  0.00    -0.346 N 
ATOM     13  H5  UNL     1      18.945  39.052  18.761  1.00  0.00     0.163 HD
HETATM   14  C20 UNL     1      17.665  37.786  17.849  1.00  0.00     0.241 C 
HETATM   15  O3  UNL     1      17.737  37.756  16.566  1.00  0.00    -0.271 OA
HETATM   16  C21 UNL     1      17.248  36.429  18.379  1.00  0.00     0.177 C 
HETATM   17  N6  UNL     1      18.388  35.637  18.735  1.00  0.00    -0.346 N 
ATOM     18  H6  UNL     1      18.198  34.933  19.449  1.00  0.00     0.163 HD
HETATM   19  C26 UNL     1      19.717  35.650  18.282  1.00  0.00     0.241 C 
HETATM   20  O4  UNL     1      20.662  35.877  19.085  1.00  0.00    -0.271 OA
HETATM   21  C27 UNL     1      20.177  35.407  16.876  1.00  0.00     0.175 C 
HETATM   22  N7  UNL     1      21.170  36.282  16.366  1.00  0.00    -0.359 N 
ATOM     23  H7  UNL     1      21.247  36.146  15.358  1.00  0.00     0.162 HD
HETATM   24  C32 UNL     1      22.067  37.252  16.755  1.00  0.00     0.135 C 
ENDROOT
BRANCH   6  25
HETATM   25  C8  UNL     1      20.653  42.744  17.632  1.00  0.00     0.074 C 
BRANCH  25  26
HETATM   26  C9  UNL     1      20.969  43.347  18.898  1.00  0.00    -0.039 A 
HETATM   27  C10 UNL     1      20.308  43.226  20.094  1.00  0.00     0.025 A 
HETATM   28  C11 UNL     1      20.949  43.969  21.038  1.00  0.00     0.088 A 
HETATM   29  N2  UNL     1      22.002  44.558  20.465  1.00  0.00    -0.375 N 
HETATM   30  C12 UNL     1      22.030  44.191  19.162  1.00  0.00     0.094 A 
ATOM     31  H2  UNL     1      22.669  45.175  20.928  1.00  0.00     0.164 HD
ENDBRANCH  25  26
ENDBRANCH   6  25
BRANCH   1  32
HETATM   32  C4  UNL     1      22.193  39.001  18.454  1.00  0.00     0.037 C 
BRANCH  32  33
HETATM   33  C2  UNL     1      23.382  39.812  18.884  1.00  0.00    -0.020 C 
HETATM   34  C1  UNL     1      23.848  40.791  17.838  1.00  0.00     0.009 C 
HETATM   35  C3  UNL     1      23.006  40.664  20.115  1.00  0.00     0.009 C 
ENDBRANCH  32  33
ENDBRANCH   1  32
BRANCH  11  36
HETATM   36  C15 UNL     1      17.541  40.206  20.584  1.00  0.00     0.063 C 
BRANCH  36  37
HETATM   37  C16 UNL     1      16.331  40.033  21.472  1.00  0.00     0.238 C 
BRANCH  37  38
HETATM   38  N4  UNL     1      16.533  40.632  22.774  1.00  0.00    -0.079 N 
HETATM   39  C17 UNL     1      15.434  41.526  23.106  1.00  0.00     0.271 C 
HETATM   40  C18 UNL     1      16.650  39.610  23.796  1.00  0.00     0.271 C 
HETATM   41  C19 UNL     1      17.755  41.427  22.822  1.00  0.00     0.271 C 
ENDBRANCH  37  38
ENDBRANCH  36  37
ENDBRANCH  11  36
BRANCH  24  42
HETATM   42  O5  UNL     1      23.285  36.807  16.925  1.00  0.00    -0.348 OA
ATOM     43  H5  UNL     1      23.359  35.922  16.586  1.00  0.00     0.219 HD
ENDBRANCH  24  42
BRANCH  21  44
HETATM   44  C28 UNL     1      20.637  33.948  16.901  1.00  0.00     0.038 C 
BRANCH  44  45
HETATM   45  C29 UNL     1      19.912  32.920  16.198  1.00  0.00    -0.020 C 
HETATM   46  C30 UNL     1      20.442  31.532  16.698  1.00  0.00     0.009 C 
HETATM   47  C31 UNL     1      19.893  32.812  14.733  1.00  0.00     0.009 C 
ENDBRANCH  44  45
ENDBRANCH  21  44
BRANCH  16  48
HETATM   48  C22 UNL     1      16.260  35.842  17.437  1.00  0.00     0.038 C 
BRANCH  48  49
HETATM   49  C23 UNL     1      16.694  34.588  16.738  1.00  0.00    -0.020 C 
HETATM   50  C24 UNL     1      15.538  33.570  16.975  1.00  0.00     0.009 C 
HETATM   51  C25 UNL     1      16.746  34.711  15.224  1.00  0.00     0.009 C 
ENDBRANCH  48  49
ENDBRANCH  16  48
TORSDOF 12
ENDMDL
