MODEL 1
REMARK VINA RESULT: -6.497644946      0.000      0.000
REMARK  13 active torsions:
REMARK  status: ('A' for Active; 'I' for Inactive)
REMARK    1  A    between atoms: C2_2  and  C3_3 
REMARK    2  A    between atoms: C3_3  and  C4_4 
REMARK    3  A    between atoms: C6_9  and  C7_10 
REMARK    4  A    between atoms: C7_10  and  C8_11 
REMARK    5  A    between atoms: C8_11  and  C9_12 
REMARK    6  A    between atoms: C9_12  and  N2_13 
REMARK    7  A    between atoms: C12_22  and  C13_23 
REMARK    8  A    between atoms: C13_23  and  C14_24 
REMARK    9  A    between atoms: C18_31  and  C19_32 
REMARK   10  A    between atoms: C21_36  and  O4_37 
REMARK   11  A    between atoms: C22_39  and  C23_40 
REMARK   12  A    between atoms: C23_40  and  C24_41 
REMARK   13  A    between atoms: C30_50  and  O5_51 
ROOT
HETATM    1  C4  UNL     1      22.323  40.661  16.258  1.00  0.00     0.159 C 
HETATM    2  N1  UNL     1      23.182  39.992  17.216  1.00  0.00    -0.347 N 
ATOM      3  H1  UNL     1      23.532  40.580  17.972  1.00  0.00     0.163 HD
HETATM    4  C5  UNL     1      23.598  38.669  17.256  1.00  0.00     0.241 C 
HETATM    5  O1  UNL     1      24.852  38.467  17.358  1.00  0.00    -0.271 OA
HETATM    6  C6  UNL     1      22.761  37.439  17.198  1.00  0.00     0.176 C 
HETATM    7  N5  UNL     1      21.608  37.555  18.031  1.00  0.00    -0.346 N 
ATOM      8  H5  UNL     1      21.683  38.319  18.703  1.00  0.00     0.163 HD
HETATM    9  C11 UNL     1      20.415  36.869  18.132  1.00  0.00     0.241 C 
HETATM   10  O2  UNL     1      20.119  36.451  19.323  1.00  0.00    -0.271 OA
HETATM   11  C12 UNL     1      19.409  36.525  17.122  1.00  0.00     0.177 C 
HETATM   12  N6  UNL     1      18.254  37.408  17.066  1.00  0.00    -0.346 N 
ATOM     13  H6  UNL     1      17.410  36.953  16.716  1.00  0.00     0.163 HD
HETATM   14  C17 UNL     1      18.071  38.724  17.387  1.00  0.00     0.241 C 
HETATM   15  O3  UNL     1      17.641  39.493  16.432  1.00  0.00    -0.271 OA
HETATM   16  C18 UNL     1      18.271  39.486  18.660  1.00  0.00     0.175 C 
HETATM   17  N7  UNL     1      18.320  40.913  18.404  1.00  0.00    -0.356 N 
ATOM     18  H7  UNL     1      17.419  41.380  18.509  1.00  0.00     0.162 HD
HETATM   19  C21 UNL     1      19.350  41.765  18.045  1.00  0.00     0.160 C 
HETATM   20  C22 UNL     1      20.562  42.235  18.734  1.00  0.00     0.069 C 
HETATM   21  N9  UNL     1      21.648  42.612  17.852  1.00  0.00    -0.334 N 
HETATM   22  C29 UNL     1      22.466  43.728  18.357  1.00  0.00     0.158 C 
HETATM   23  C30 UNL     1      21.999  42.068  16.596  1.00  0.00     0.141 C 
ENDROOT
BRANCH   6  24
HETATM   24  C7  UNL     1      22.552  36.900  15.816  1.00  0.00     0.036 C 
BRANCH  24  25
HETATM   25  C8  UNL     1      23.392  35.612  15.706  1.00  0.00     0.022 C 
BRANCH  25  26
HETATM   26  C9  UNL     1      22.452  34.482  16.104  1.00  0.00     0.122 C 
BRANCH  26  27
HETATM   27  N2  UNL     1      21.627  34.073  14.995  1.00  0.00    -0.367 N 
HETATM   28  C10 UNL     1      21.723  32.880  14.497  1.00  0.00     0.196 C 
HETATM   29  N3  UNL     1      20.933  32.446  13.410  1.00  0.00    -0.067 NA
HETATM   30  N4  UNL     1      22.660  31.990  15.073  1.00  0.00    -0.067 NA
ATOM     31  H2  UNL     1      20.959  34.732  14.595  1.00  0.00     0.161 HD
ENDBRANCH  26  27
ENDBRANCH  25  26
ENDBRANCH  24  25
ENDBRANCH   6  24
BRANCH   1  32
HETATM   32  C3  UNL     1      22.930  40.644  14.866  1.00  0.00     0.033 C 
BRANCH  32  33
HETATM   33  C2  UNL     1      22.041  39.972  13.876  1.00  0.00    -0.002 C 
HETATM   34  C1  UNL     1      22.423  40.298  12.443  1.00  0.00     0.005 C 
ENDBRANCH  32  33
ENDBRANCH   1  32
BRANCH  11  35
HETATM   35  C13 UNL     1      18.882  35.124  17.175  1.00  0.00     0.038 C 
BRANCH  35  36
HETATM   36  C14 UNL     1      17.711  34.773  16.354  1.00  0.00    -0.020 C 
HETATM   37  C15 UNL     1      17.857  33.738  15.301  1.00  0.00     0.009 C 
HETATM   38  C16 UNL     1      16.594  34.312  17.281  1.00  0.00     0.009 C 
ENDBRANCH  35  36
ENDBRANCH  11  35
BRANCH  23  39
HETATM   39  O5  UNL     1      22.031  42.942  15.627  1.00  0.00    -0.348 OA
ATOM     40  H5  UNL     1      22.835  43.433  15.506  1.00  0.00     0.219 HD
ENDBRANCH  23  39
BRANCH  20  41
HETATM   41  C23 UNL     1      20.978  41.516  19.965  1.00  0.00     0.118 C 
BRANCH  41  42
HETATM   42  C24 UNL     1      20.039  41.655  21.106  1.00  0.00     0.015 A 
HETATM   43  C25 UNL     1      19.477  42.880  21.491  1.00  0.00     0.027 A 
HETATM   44  C26 UNL     1      18.618  42.672  22.547  1.00  0.00     0.026 A 
HETATM   45  C27 UNL     1      18.665  41.301  22.797  1.00  0.00     0.005 A 
HETATM   46  C28 UNL     1      17.920  40.555  23.838  1.00  0.00     0.068 C 
HETATM   47  N8  UNL     1      19.516  40.736  21.925  1.00  0.00    -0.363 N 
ATOM     48  H8  UNL     1      19.733  39.741  21.891  1.00  0.00     0.165 HD
ENDBRANCH  41  42
ENDBRANCH  20  41
BRANCH  16  49
HETATM   49  C19 UNL     1      17.114  39.278  19.613  1.00  0.00     0.030 C 
HETATM   50  C20 UNL     1      16.374  40.525  19.991  1.00  0.00     0.007 C 
ENDBRANCH  16  49
BRANCH  19  51
HETATM   51  O4  UNL     1      19.270  42.292  16.841  1.00  0.00    -0.345 OA
ATOM     52  H4  UNL     1      18.439  42.695  16.616  1.00  0.00     0.219 HD
ENDBRANCH  19  51
TORSDOF 13
ENDMDL
MODEL 2
REMARK VINA RESULT: -6.292945759      3.617      7.809
REMARK  13 active torsions:
REMARK  status: ('A' for Active; 'I' for Inactive)
REMARK    1  A    between atoms: C2_2  and  C3_3 
REMARK    2  A    between atoms: C3_3  and  C4_4 
REMARK    3  A    between atoms: C6_9  and  C7_10 
REMARK    4  A    between atoms: C7_10  and  C8_11 
REMARK    5  A    between atoms: C8_11  and  C9_12 
REMARK    6  A    between atoms: C9_12  and  N2_13 
REMARK    7  A    between atoms: C12_22  and  C13_23 
REMARK    8  A    between atoms: C13_23  and  C14_24 
REMARK    9  A    between atoms: C18_31  and  C19_32 
REMARK   10  A    between atoms: C21_36  and  O4_37 
REMARK   11  A    between atoms: C22_39  and  C23_40 
REMARK   12  A    between atoms: C23_40  and  C24_41 
REMARK   13  A    between atoms: C30_50  and  O5_51 
ROOT
HETATM    1  C4  UNL     1      18.466  34.887  17.099  1.00  0.00     0.159 C 
HETATM    2  N1  UNL     1      18.143  35.171  15.714  1.00  0.00    -0.347 N 
ATOM      3  H1  UNL     1      18.229  36.150  15.440  1.00  0.00     0.163 HD
HETATM    4  C5  UNL     1      17.734  34.309  14.707  1.00  0.00     0.241 C 
HETATM    5  O1  UNL     1      16.676  34.630  14.074  1.00  0.00    -0.271 OA
HETATM    6  C6  UNL     1      18.379  33.043  14.262  1.00  0.00     0.176 C 
HETATM    7  N5  UNL     1      19.795  33.190  14.157  1.00  0.00    -0.346 N 
ATOM      8  H5  UNL     1      20.090  34.166  14.146  1.00  0.00     0.163 HD
HETATM    9  C11 UNL     1      20.855  32.311  14.067  1.00  0.00     0.241 C 
HETATM   10  O2  UNL     1      21.667  32.525  13.079  1.00  0.00    -0.271 OA
HETATM   11  C12 UNL     1      21.232  31.164  14.899  1.00  0.00     0.177 C 
HETATM   12  N6  UNL     1      22.259  31.428  15.896  1.00  0.00    -0.346 N 
ATOM     13  H6  UNL     1      22.807  30.603  16.144  1.00  0.00     0.163 HD
HETATM   14  C17 UNL     1      22.637  32.557  16.568  1.00  0.00     0.241 C 
HETATM   15  O3  UNL     1      22.591  32.495  17.864  1.00  0.00    -0.271 OA
HETATM   16  C18 UNL     1      23.112  33.896  16.096  1.00  0.00     0.175 C 
HETATM   17  N7  UNL     1      23.014  34.880  17.157  1.00  0.00    -0.356 N 
ATOM     18  H7  UNL     1      23.876  34.993  17.692  1.00  0.00     0.162 HD
HETATM   19  C21 UNL     1      21.982  35.694  17.587  1.00  0.00     0.160 C 
HETATM   20  C22 UNL     1      21.275  36.837  16.985  1.00  0.00     0.069 C 
HETATM   21  N9  UNL     1      19.918  37.023  17.459  1.00  0.00    -0.334 N 
HETATM   22  C29 UNL     1      19.499  38.432  17.530  1.00  0.00     0.158 C 
HETATM   23  C30 UNL     1      18.980  36.046  17.866  1.00  0.00     0.141 C 
ENDROOT
BRANCH   6  24
HETATM   24  C7  UNL     1      17.871  31.815  14.953  1.00  0.00     0.036 C 
BRANCH  24  25
HETATM   25  C8  UNL     1      17.292  30.894  13.860  1.00  0.00     0.022 C 
BRANCH  25  26
HETATM   26  C9  UNL     1      18.241  29.704  13.791  1.00  0.00     0.122 C 
BRANCH  26  27
HETATM   27  N2  UNL     1      18.608  29.406  12.430  1.00  0.00    -0.367 N 
HETATM   28  C10 UNL     1      18.542  28.196  11.972  1.00  0.00     0.196 C 
HETATM   29  N3  UNL     1      18.895  27.867  10.644  1.00  0.00    -0.067 NA
HETATM   30  N4  UNL     1      18.098  27.174  12.844  1.00  0.00    -0.067 NA
ATOM     31  H2  UNL     1      18.925  30.158  11.819  1.00  0.00     0.161 HD
ENDBRANCH  26  27
ENDBRANCH  25  26
ENDBRANCH  24  25
ENDBRANCH   6  24
BRANCH   1  32
HETATM   32  C3  UNL     1      17.264  34.331  17.844  1.00  0.00     0.033 C 
BRANCH  32  33
HETATM   33  C2  UNL     1      16.094  35.253  17.785  1.00  0.00    -0.002 C 
HETATM   34  C1  UNL     1      14.910  34.636  17.059  1.00  0.00     0.005 C 
ENDBRANCH  32  33
ENDBRANCH   1  32
BRANCH  11  35
HETATM   35  C13 UNL     1      21.651  29.930  14.160  1.00  0.00     0.038 C 
BRANCH  35  36
HETATM   36  C14 UNL     1      22.731  30.030  13.164  1.00  0.00    -0.020 C 
HETATM   37  C15 UNL     1      24.081  29.526  13.515  1.00  0.00     0.009 C 
HETATM   38  C16 UNL     1      22.294  29.295  11.904  1.00  0.00     0.009 C 
ENDBRANCH  35  36
ENDBRANCH  11  35
BRANCH  23  39
HETATM   39  O5  UNL     1      18.528  36.215  19.078  1.00  0.00    -0.348 OA
ATOM     40  H5  UNL     1      17.995  36.984  19.245  1.00  0.00     0.219 HD
ENDBRANCH  23  39
BRANCH  20  41
HETATM   41  C23 UNL     1      21.469  37.079  15.533  1.00  0.00     0.118 C 
BRANCH  41  42
HETATM   42  C24 UNL     1      22.039  38.409  15.202  1.00  0.00     0.015 A 
HETATM   43  C25 UNL     1      22.672  39.228  16.148  1.00  0.00     0.027 A 
HETATM   44  C26 UNL     1      23.130  40.367  15.525  1.00  0.00     0.026 A 
HETATM   45  C27 UNL     1      22.767  40.229  14.186  1.00  0.00     0.005 A 
HETATM   46  C28 UNL     1      23.026  41.185  13.084  1.00  0.00     0.068 C 
HETATM   47  N8  UNL     1      22.124  39.059  14.037  1.00  0.00    -0.363 N 
ATOM     48  H8  UNL     1      21.751  38.712  13.153  1.00  0.00     0.165 HD
ENDBRANCH  41  42
ENDBRANCH  20  41
BRANCH  16  49
HETATM   49  C19 UNL     1      24.573  33.856  15.705  1.00  0.00     0.030 C 
HETATM   50  C20 UNL     1      24.947  34.749  14.562  1.00  0.00     0.007 C 
ENDBRANCH  16  49
BRANCH  19  51
HETATM   51  O4  UNL     1      21.497  35.431  18.783  1.00  0.00    -0.345 OA
ATOM     52  H4  UNL     1      20.551  35.446  18.862  1.00  0.00     0.219 HD
ENDBRANCH  19  51
TORSDOF 13
ENDMDL
MODEL 3
REMARK VINA RESULT: -6.143249829      3.131      6.684
REMARK  13 active torsions:
REMARK  status: ('A' for Active; 'I' for Inactive)
REMARK    1  A    between atoms: C2_2  and  C3_3 
REMARK    2  A    between atoms: C3_3  and  C4_4 
REMARK    3  A    between atoms: C6_9  and  C7_10 
REMARK    4  A    between atoms: C7_10  and  C8_11 
REMARK    5  A    between atoms: C8_11  and  C9_12 
REMARK    6  A    between atoms: C9_12  and  N2_13 
REMARK    7  A    between atoms: C12_22  and  C13_23 
REMARK    8  A    between atoms: C13_23  and  C14_24 
REMARK    9  A    between atoms: C18_31  and  C19_32 
REMARK   10  A    between atoms: C21_36  and  O4_37 
REMARK   11  A    between atoms: C22_39  and  C23_40 
REMARK   12  A    between atoms: C23_40  and  C24_41 
REMARK   13  A    between atoms: C30_50  and  O5_51 
ROOT
HETATM    1  C4  UNL     1      17.619  36.176  17.492  1.00  0.00     0.159 C 
HETATM    2  N1  UNL     1      17.450  36.146  16.052  1.00  0.00    -0.347 N 
ATOM      3  H1  UNL     1      17.315  37.055  15.611  1.00  0.00     0.163 HD
HETATM    4  C5  UNL     1      17.447  35.062  15.186  1.00  0.00     0.241 C 
HETATM    5  O1  UNL     1      16.453  34.966  14.394  1.00  0.00    -0.271 OA
HETATM    6  C6  UNL     1      18.466  33.985  15.055  1.00  0.00     0.176 C 
HETATM    7  N5  UNL     1      19.791  34.517  15.077  1.00  0.00    -0.346 N 
ATOM      8  H5  UNL     1      19.813  35.524  14.916  1.00  0.00     0.163 HD
HETATM    9  C11 UNL     1      21.047  33.979  15.266  1.00  0.00     0.241 C 
HETATM   10  O2  UNL     1      21.916  34.269  14.348  1.00  0.00    -0.271 OA
HETATM   11  C12 UNL     1      21.582  33.127  16.333  1.00  0.00     0.177 C 
HETATM   12  N6  UNL     1      22.335  33.822  17.367  1.00  0.00    -0.346 N 
ATOM     13  H6  UNL     1      23.038  33.237  17.821  1.00  0.00     0.163 HD
HETATM   14  C17 UNL     1      22.290  35.099  17.852  1.00  0.00     0.241 C 
HETATM   15  O3  UNL     1      22.062  35.221  19.125  1.00  0.00    -0.271 OA
HETATM   16  C18 UNL     1      22.458  36.433  17.193  1.00  0.00     0.175 C 
HETATM   17  N7  UNL     1      21.939  37.493  18.035  1.00  0.00    -0.356 N 
ATOM     18  H7  UNL     1      22.646  37.928  18.628  1.00  0.00     0.162 HD
HETATM   19  C21 UNL     1      20.674  38.029  18.193  1.00  0.00     0.160 C 
HETATM   20  C22 UNL     1      19.790  38.815  17.317  1.00  0.00     0.069 C 
HETATM   21  N9  UNL     1      18.376  38.669  17.600  1.00  0.00    -0.334 N 
HETATM   22  C29 UNL     1      17.591  39.892  17.362  1.00  0.00     0.158 C 
HETATM   23  C30 UNL     1      17.681  37.536  18.080  1.00  0.00     0.141 C 
ENDROOT
BRANCH   6  24
HETATM   24  C7  UNL     1      18.203  32.780  15.905  1.00  0.00     0.036 C 
BRANCH  24  25
HETATM   25  C8  UNL     1      17.371  31.803  15.051  1.00  0.00     0.022 C 
BRANCH  25  26
HETATM   26  C9  UNL     1      18.366  31.150  14.099  1.00  0.00     0.122 C 
BRANCH  26  27
HETATM   27  N2  UNL     1      18.234  29.715  14.109  1.00  0.00    -0.367 N 
HETATM   28  C10 UNL     1      18.366  29.027  13.019  1.00  0.00     0.196 C 
HETATM   29  N3  UNL     1      18.241  27.620  12.990  1.00  0.00    -0.067 NA
HETATM   30  N4  UNL     1      18.644  29.723  11.819  1.00  0.00    -0.067 NA
ATOM     31  H2  UNL     1      18.033  29.234  14.986  1.00  0.00     0.161 HD
ENDBRANCH  26  27
ENDBRANCH  25  26
ENDBRANCH  24  25
ENDBRANCH   6  24
BRANCH   1  32
HETATM   32  C3  UNL     1      16.508  35.414  18.195  1.00  0.00     0.033 C 
BRANCH  32  33
HETATM   33  C2  UNL     1      15.321  35.219  17.316  1.00  0.00    -0.002 C 
HETATM   34  C1  UNL     1      14.949  33.753  17.166  1.00  0.00     0.005 C 
ENDBRANCH  32  33
ENDBRANCH   1  32
BRANCH  11  35
HETATM   35  C13 UNL     1      22.424  31.971  15.886  1.00  0.00     0.038 C 
BRANCH  35  36
HETATM   36  C14 UNL     1      22.007  31.205  14.700  1.00  0.00    -0.020 C 
HETATM   37  C15 UNL     1      22.989  30.975  13.611  1.00  0.00     0.009 C 
HETATM   38  C16 UNL     1      21.520  29.836  15.157  1.00  0.00     0.009 C 
ENDBRANCH  35  36
ENDBRANCH  11  35
BRANCH  23  39
HETATM   39  O5  UNL     1      17.018  37.745  19.184  1.00  0.00    -0.348 OA
ATOM     40  H5  UNL     1      17.409  38.324  19.828  1.00  0.00     0.219 HD
ENDBRANCH  23  39
BRANCH  20  41
HETATM   41  C23 UNL     1      20.135  38.884  15.874  1.00  0.00     0.118 C 
BRANCH  41  42
HETATM   42  C24 UNL     1      21.070  39.980  15.517  1.00  0.00     0.015 A 
HETATM   43  C25 UNL     1      22.131  39.819  14.616  1.00  0.00     0.027 A 
HETATM   44  C26 UNL     1      22.781  41.022  14.462  1.00  0.00     0.026 A 
HETATM   45  C27 UNL     1      22.098  41.920  15.283  1.00  0.00     0.005 A 
HETATM   46  C28 UNL     1      22.396  43.357  15.481  1.00  0.00     0.068 C 
HETATM   47  N8  UNL     1      21.094  41.264  15.888  1.00  0.00    -0.363 N 
ATOM     48  H8  UNL     1      20.438  41.690  16.543  1.00  0.00     0.165 HD
ENDBRANCH  41  42
ENDBRANCH  20  41
BRANCH  16  49
HETATM   49  C19 UNL     1      23.920  36.758  16.974  1.00  0.00     0.030 C 
HETATM   50  C20 UNL     1      24.297  38.184  17.237  1.00  0.00     0.007 C 
ENDBRANCH  16  49
BRANCH  19  51
HETATM   51  O4  UNL     1      20.098  37.817  19.359  1.00  0.00    -0.345 OA
ATOM     52  H4  UNL     1      19.165  37.641  19.337  1.00  0.00     0.219 HD
ENDBRANCH  19  51
TORSDOF 13
ENDMDL
MODEL 4
REMARK VINA RESULT: -6.078688793      2.186      3.107
REMARK  13 active torsions:
REMARK  status: ('A' for Active; 'I' for Inactive)
REMARK    1  A    between atoms: C2_2  and  C3_3 
REMARK    2  A    between atoms: C3_3  and  C4_4 
REMARK    3  A    between atoms: C6_9  and  C7_10 
REMARK    4  A    between atoms: C7_10  and  C8_11 
REMARK    5  A    between atoms: C8_11  and  C9_12 
REMARK    6  A    between atoms: C9_12  and  N2_13 
REMARK    7  A    between atoms: C12_22  and  C13_23 
REMARK    8  A    between atoms: C13_23  and  C14_24 
REMARK    9  A    between atoms: C18_31  and  C19_32 
REMARK   10  A    between atoms: C21_36  and  O4_37 
REMARK   11  A    between atoms: C22_39  and  C23_40 
REMARK   12  A    between atoms: C23_40  and  C24_41 
REMARK   13  A    between atoms: C30_50  and  O5_51 
ROOT
HETATM    1  C4  UNL     1      22.405  37.328  16.540  1.00  0.00     0.159 C 
HETATM    2  N1  UNL     1      22.493  36.299  17.558  1.00  0.00    -0.347 N 
ATOM      3  H1  UNL     1      23.069  36.535  18.365  1.00  0.00     0.163 HD
HETATM    4  C5  UNL     1      21.909  35.041  17.595  1.00  0.00     0.241 C 
HETATM    5  O1  UNL     1      22.686  34.056  17.819  1.00  0.00    -0.271 OA
HETATM    6  C6  UNL     1      20.475  34.687  17.409  1.00  0.00     0.176 C 
HETATM    7  N5  UNL     1      19.621  35.581  18.122  1.00  0.00    -0.346 N 
ATOM      8  H5  UNL     1      20.121  36.127  18.824  1.00  0.00     0.163 HD
HETATM    9  C11 UNL     1      18.274  35.875  18.077  1.00  0.00     0.241 C 
HETATM   10  O2  UNL     1      17.658  35.815  19.216  1.00  0.00    -0.271 OA
HETATM   11  C12 UNL     1      17.404  36.249  16.957  1.00  0.00     0.177 C 
HETATM   12  N6  UNL     1      17.150  37.674  16.812  1.00  0.00    -0.346 N 
ATOM     13  H6  UNL     1      16.259  37.886  16.362  1.00  0.00     0.163 HD
HETATM   14  C17 UNL     1      17.866  38.787  17.158  1.00  0.00     0.241 C 
HETATM   15  O3  UNL     1      18.159  39.603  16.190  1.00  0.00    -0.271 OA
HETATM   16  C18 UNL     1      18.397  39.274  18.470  1.00  0.00     0.175 C 
HETATM   17  N7  UNL     1      19.414  40.288  18.269  1.00  0.00    -0.356 N 
ATOM     18  H7  UNL     1      19.053  41.242  18.296  1.00  0.00     0.162 HD
HETATM   19  C21 UNL     1      20.778  40.216  18.047  1.00  0.00     0.160 C 
HETATM   20  C22 UNL     1      21.917  39.783  18.873  1.00  0.00     0.069 C 
HETATM   21  N9  UNL     1      23.056  39.297  18.121  1.00  0.00    -0.334 N 
HETATM   22  C29 UNL     1      24.355  39.600  18.744  1.00  0.00     0.158 C 
HETATM   23  C30 UNL     1      23.074  38.604  16.889  1.00  0.00     0.141 C 
ENDROOT
BRANCH   6  24
HETATM   24  C7  UNL     1      20.097  34.366  15.995  1.00  0.00     0.036 C 
BRANCH  24  25
HETATM   25  C8  UNL     1      19.709  32.874  15.963  1.00  0.00     0.022 C 
BRANCH  25  26
HETATM   26  C9  UNL     1      20.550  32.262  14.850  1.00  0.00     0.122 C 
BRANCH  26  27
HETATM   27  N2  UNL     1      19.821  31.236  14.148  1.00  0.00    -0.367 N 
HETATM   28  C10 UNL     1      19.837  31.174  12.854  1.00  0.00     0.196 C 
HETATM   29  N3  UNL     1      19.133  30.184  12.133  1.00  0.00    -0.067 NA
HETATM   30  N4  UNL     1      20.590  32.142  12.148  1.00  0.00    -0.067 NA
ATOM     31  H2  UNL     1      19.284  30.549  14.678  1.00  0.00     0.161 HD
ENDBRANCH  26  27
ENDBRANCH  25  26
ENDBRANCH  24  25
ENDBRANCH   6  24
BRANCH   1  32
HETATM   32  C3  UNL     1      22.977  36.848  15.217  1.00  0.00     0.033 C 
BRANCH  32  33
HETATM   33  C2  UNL     1      24.034  35.814  15.407  1.00  0.00    -0.002 C 
HETATM   34  C1  UNL     1      23.791  34.579  14.557  1.00  0.00     0.005 C 
ENDBRANCH  32  33
ENDBRANCH   1  32
BRANCH  11  35
HETATM   35  C13 UNL     1      16.072  35.564  16.908  1.00  0.00     0.038 C 
BRANCH  35  36
HETATM   36  C14 UNL     1      15.763  34.692  15.762  1.00  0.00    -0.020 C 
HETATM   37  C15 UNL     1      16.553  34.838  14.515  1.00  0.00     0.009 C 
HETATM   38  C16 UNL     1      15.898  33.243  16.210  1.00  0.00     0.009 C 
ENDBRANCH  35  36
ENDBRANCH  11  35
BRANCH  23  39
HETATM   39  O5  UNL     1      23.780  39.188  15.960  1.00  0.00    -0.348 OA
ATOM     40  H5  UNL     1      23.311  39.685  15.300  1.00  0.00     0.219 HD
ENDBRANCH  23  39
BRANCH  20  41
HETATM   41  C23 UNL     1      21.619  39.026  20.115  1.00  0.00     0.118 C 
BRANCH  41  42
HETATM   42  C24 UNL     1      21.505  39.864  21.335  1.00  0.00     0.015 A 
HETATM   43  C25 UNL     1      21.912  41.204  21.384  1.00  0.00     0.027 A 
HETATM   44  C26 UNL     1      21.637  41.715  22.632  1.00  0.00     0.026 A 
HETATM   45  C27 UNL     1      21.055  40.665  23.342  1.00  0.00     0.005 A 
HETATM   46  C28 UNL     1      20.572  40.690  24.742  1.00  0.00     0.068 C 
HETATM   47  N8  UNL     1      20.996  39.589  22.540  1.00  0.00    -0.363 N 
ATOM     48  H8  UNL     1      20.613  38.684  22.814  1.00  0.00     0.165 HD
ENDBRANCH  41  42
ENDBRANCH  20  41
BRANCH  16  49
HETATM   49  C19 UNL     1      17.312  39.936  19.290  1.00  0.00     0.030 C 
HETATM   50  C20 UNL     1      17.801  40.912  20.318  1.00  0.00     0.007 C 
ENDBRANCH  16  49
BRANCH  19  51
HETATM   51  O4  UNL     1      21.192  40.607  16.859  1.00  0.00    -0.345 OA
ATOM     52  H4  UNL     1      22.051  40.300  16.595  1.00  0.00     0.219 HD
ENDBRANCH  19  51
TORSDOF 13
ENDMDL
MODEL 5
REMARK VINA RESULT: -5.682739506     11.336     17.598
REMARK  13 active torsions:
REMARK  status: ('A' for Active; 'I' for Inactive)
REMARK    1  A    between atoms: C2_2  and  C3_3 
REMARK    2  A    between atoms: C3_3  and  C4_4 
REMARK    3  A    between atoms: C6_9  and  C7_10 
REMARK    4  A    between atoms: C7_10  and  C8_11 
REMARK    5  A    between atoms: C8_11  and  C9_12 
REMARK    6  A    between atoms: C9_12  and  N2_13 
REMARK    7  A    between atoms: C12_22  and  C13_23 
REMARK    8  A    between atoms: C13_23  and  C14_24 
REMARK    9  A    between atoms: C18_31  and  C19_32 
REMARK   10  A    between atoms: C21_36  and  O4_37 
REMARK   11  A    between atoms: C22_39  and  C23_40 
REMARK   12  A    between atoms: C23_40  and  C24_41 
REMARK   13  A    between atoms: C30_50  and  O5_51 
ROOT
HETATM    1  C4  UNL     1      20.967  25.766   6.291  1.00  0.00     0.159 C 
HETATM    2  N1  UNL     1      20.152  24.790   6.988  1.00  0.00    -0.347 N 
ATOM      3  H1  UNL     1      20.328  23.818   6.737  1.00  0.00     0.163 HD
HETATM    4  C5  UNL     1      19.168  24.984   7.947  1.00  0.00     0.241 C 
HETATM    5  O1  UNL     1      18.041  24.428   7.731  1.00  0.00    -0.271 OA
HETATM    6  C6  UNL     1      19.257  25.764   9.212  1.00  0.00     0.176 C 
HETATM    7  N5  UNL     1      20.483  25.506   9.896  1.00  0.00    -0.346 N 
ATOM      8  H5  UNL     1      20.955  24.668   9.557  1.00  0.00     0.163 HD
HETATM    9  C11 UNL     1      21.174  26.133  10.912  1.00  0.00     0.241 C 
HETATM   10  O2  UNL     1      21.507  25.370  11.906  1.00  0.00    -0.271 OA
HETATM   11  C12 UNL     1      21.606  27.526  11.070  1.00  0.00     0.177 C 
HETATM   12  N6  UNL     1      22.992  27.793  10.717  1.00  0.00    -0.346 N 
ATOM     13  H6  UNL     1      23.394  28.587  11.216  1.00  0.00     0.163 HD
HETATM   14  C17 UNL     1      23.865  27.194   9.850  1.00  0.00     0.241 C 
HETATM   15  O3  UNL     1      24.369  27.956   8.927  1.00  0.00    -0.271 OA
HETATM   16  C18 UNL     1      24.376  25.791   9.748  1.00  0.00     0.175 C 
HETATM   17  N7  UNL     1      24.967  25.553   8.445  1.00  0.00    -0.356 N 
ATOM     18  H7  UNL     1      25.976  25.703   8.419  1.00  0.00     0.162 HD
HETATM   19  C21 UNL     1      24.432  25.164   7.230  1.00  0.00     0.160 C 
HETATM   20  C22 UNL     1      23.810  23.919   6.750  1.00  0.00     0.069 C 
HETATM   21  N9  UNL     1      22.869  24.097   5.662  1.00  0.00    -0.334 N 
HETATM   22  C29 UNL     1      22.849  22.980   4.703  1.00  0.00     0.158 C 
HETATM   23  C30 UNL     1      22.006  25.187   5.406  1.00  0.00     0.141 C 
ENDROOT
BRANCH   6  24
HETATM   24  C7  UNL     1      18.836  27.196   9.085  1.00  0.00     0.036 C 
BRANCH  24  25
HETATM   25  C8  UNL     1      17.725  27.429  10.129  1.00  0.00     0.022 C 
BRANCH  25  26
HETATM   26  C9  UNL     1      18.001  28.810  10.710  1.00  0.00     0.122 C 
BRANCH  26  27
HETATM   27  N2  UNL     1      17.849  28.813  12.143  1.00  0.00    -0.367 N 
HETATM   28  C10 UNL     1      18.408  29.729  12.871  1.00  0.00     0.196 C 
HETATM   29  N3  UNL     1      18.282  29.763  14.277  1.00  0.00    -0.067 NA
HETATM   30  N4  UNL     1      19.173  30.725  12.219  1.00  0.00    -0.067 NA
ATOM     31  H2  UNL     1      17.293  28.085  12.592  1.00  0.00     0.161 HD
ENDBRANCH  26  27
ENDBRANCH  25  26
ENDBRANCH  24  25
ENDBRANCH   6  24
BRANCH   1  32
HETATM   32  C3  UNL     1      20.112  26.704   5.454  1.00  0.00     0.033 C 
BRANCH  32  33
HETATM   33  C2  UNL     1      18.996  25.987   4.775  1.00  0.00    -0.002 C 
HETATM   34  C1  UNL     1      17.658  26.678   4.980  1.00  0.00     0.005 C 
ENDBRANCH  32  33
ENDBRANCH   1  32
BRANCH  11  35
HETATM   35  C13 UNL     1      21.378  28.131  12.421  1.00  0.00     0.038 C 
BRANCH  35  36
HETATM   36  C14 UNL     1      22.443  28.954  13.020  1.00  0.00    -0.020 C 
HETATM   37  C15 UNL     1      22.689  30.314  12.480  1.00  0.00     0.009 C 
HETATM   38  C16 UNL     1      22.151  29.111  14.507  1.00  0.00     0.009 C 
ENDBRANCH  35  36
ENDBRANCH  11  35
BRANCH  23  39
HETATM   39  O5  UNL     1      22.170  25.732   4.232  1.00  0.00    -0.348 OA
ATOM     40  H5  UNL     1      21.539  26.388   3.961  1.00  0.00     0.219 HD
ENDBRANCH  23  39
BRANCH  20  41
HETATM   41  C23 UNL     1      23.409  22.913   7.765  1.00  0.00     0.118 C 
BRANCH  41  42
HETATM   42  C24 UNL     1      24.354  21.778   7.914  1.00  0.00     0.015 A 
HETATM   43  C25 UNL     1      25.674  21.814   7.446  1.00  0.00     0.027 A 
HETATM   44  C26 UNL     1      26.303  20.635   7.774  1.00  0.00     0.026 A 
HETATM   45  C27 UNL     1      25.345  19.880   8.450  1.00  0.00     0.005 A 
HETATM   46  C28 UNL     1      25.512  18.522   9.019  1.00  0.00     0.068 C 
HETATM   47  N8  UNL     1      24.207  20.591   8.512  1.00  0.00    -0.363 N 
ATOM     48  H8  UNL     1      23.347  20.269   8.954  1.00  0.00     0.165 HD
ENDBRANCH  41  42
ENDBRANCH  20  41
BRANCH  16  49
HETATM   49  C19 UNL     1      25.476  25.531  10.753  1.00  0.00     0.030 C 
HETATM   50  C20 UNL     1      26.161  26.758  11.273  1.00  0.00     0.007 C 
ENDBRANCH  16  49
BRANCH  19  51
HETATM   51  O4  UNL     1      24.465  26.064   6.269  1.00  0.00    -0.345 OA
ATOM     52  H4  UNL     1      25.306  26.195   5.849  1.00  0.00     0.219 HD
ENDBRANCH  19  51
TORSDOF 13
ENDMDL
