MODEL 1
REMARK VINA RESULT: -9.559429608      0.000      0.000
REMARK  11 active torsions:
REMARK  status: ('A' for Active; 'I' for Inactive)
REMARK    1  A    between atoms: C2_2  and  C3_3 
REMARK    2  A    between atoms: C3_3  and  C5_5 
REMARK    3  A    between atoms: C5_5  and  N1_6 
REMARK    4  A    between atoms: C5_5  and  C14_19 
REMARK       I    between atoms: N1_6  and  C6_8 
REMARK       I    between atoms: C6_8  and  N2_10 
REMARK    5  A    between atoms: N2_10  and  C7_12 
REMARK       I    between atoms: C14_19  and  N3_21 
REMARK    6  A    between atoms: N3_21  and  C15_23 
REMARK    7  A    between atoms: C15_23  and  C16_24 
REMARK    8  A    between atoms: C15_23  and  C28_47 
REMARK       I    between atoms: C16_24  and  N4_26 
REMARK    9  A    between atoms: N4_26  and  C17_28 
REMARK   10  A    between atoms: C19_30  and  C20_31 
REMARK       I    between atoms: C20_31  and  N5_33 
REMARK   11  A    between atoms: N8_39  and  C23_40 
ROOT
HETATM    1  C15 UNL     1      17.583  33.460  15.633  1.00  0.00     0.180 C 
ENDROOT
BRANCH   1   2
HETATM    2  N3  UNL     1      18.743  34.342  15.707  1.00  0.00    -0.346 N 
HETATM    3  C14 UNL     1      19.868  34.082  16.526  1.00  0.00     0.241 C 
HETATM    4  O2  UNL     1      19.868  33.015  17.201  1.00  0.00    -0.271 OA
ATOM      5  H3  UNL     1      18.744  35.189  15.138  1.00  0.00     0.163 HD
BRANCH   3   6
HETATM    6  C5  UNL     1      21.043  34.971  16.645  1.00  0.00     0.182 C 
BRANCH   6   7
HETATM    7  C3  UNL     1      21.996  34.636  15.484  1.00  0.00     0.013 C 
HETATM    8  C4  UNL     1      22.726  35.897  15.081  1.00  0.00     0.012 C 
BRANCH   7   9
HETATM    9  C2  UNL     1      23.024  33.646  15.909  1.00  0.00     0.002 C 
HETATM   10  C1  UNL     1      22.623  32.278  15.344  1.00  0.00     0.005 C 
ENDBRANCH   7   9
ENDBRANCH   6   7
BRANCH   6  11
HETATM   11  N1  UNL     1      20.544  36.332  16.397  1.00  0.00    -0.330 N 
HETATM   12  C6  UNL     1      19.994  37.134  17.412  1.00  0.00     0.317 C 
HETATM   13  O1  UNL     1      19.910  36.706  18.600  1.00  0.00    -0.247 OA
HETATM   14  N2  UNL     1      19.517  38.438  17.147  1.00  0.00    -0.338 N 
ATOM     15  H2  UNL     1      19.568  38.798  16.194  1.00  0.00     0.164 HD
ATOM     16  H1  UNL     1      20.599  36.709  15.450  1.00  0.00     0.165 HD
BRANCH  14  17
HETATM   17  C7  UNL     1      18.954  39.285  18.192  1.00  0.00     0.089 C 
HETATM   18  C8  UNL     1      19.766  40.497  18.485  1.00  0.00     0.026 C 
HETATM   19  C9  UNL     1      19.574  41.643  17.542  1.00  0.00     0.002 C 
HETATM   20  C10 UNL     1      18.111  41.936  17.270  1.00  0.00     0.001 C 
HETATM   21  C11 UNL     1      17.402  40.681  16.826  1.00  0.00     0.006 C 
HETATM   22  C12 UNL     1      17.511  39.637  17.886  1.00  0.00     0.004 C 
HETATM   23  C13 UNL     1      16.763  38.384  17.479  1.00  0.00     0.012 C 
ENDBRANCH  14  17
ENDBRANCH   6  11
ENDBRANCH   3   6
ENDBRANCH   1   2
BRANCH   1  24
HETATM   24  C16 UNL     1      17.850  32.338  14.738  1.00  0.00     0.241 C 
HETATM   25  O3  UNL     1      16.822  31.659  14.381  1.00  0.00    -0.271 OA
HETATM   26  N4  UNL     1      19.078  31.927  14.236  1.00  0.00    -0.346 N 
ATOM     27  H4  UNL     1      19.909  32.452  14.509  1.00  0.00     0.163 HD
BRANCH  26  28
HETATM   28  C17 UNL     1      19.245  30.793  13.347  1.00  0.00     0.177 C 
HETATM   29  C18 UNL     1      19.603  29.549  14.144  1.00  0.00     0.053 C 
HETATM   30  C19 UNL     1      19.821  28.364  13.237  1.00  0.00     0.134 C 
HETATM   31  C22 UNL     1      20.853  28.620  12.171  1.00  0.00     0.339 C 
HETATM   32  N8  UNL     1      22.013  27.771  12.315  1.00  0.00     0.113 N 
HETATM   33  N9  UNL     1      21.326  29.989  12.206  1.00  0.00    -0.318 N 
HETATM   34  C25 UNL     1      23.060  28.654  12.795  1.00  0.00     0.295 C 
HETATM   35  C26 UNL     1      22.753  29.897  11.952  1.00  0.00     0.158 C 
HETATM   36  C27 UNL     1      20.397  31.041  12.456  1.00  0.00     0.244 C 
HETATM   37  O5  UNL     1      20.632  32.147  11.881  1.00  0.00    -0.271 OA
BRANCH  30  38
HETATM   38  C20 UNL     1      18.604  27.848  12.632  1.00  0.00     0.231 C 
HETATM   39  O4  UNL     1      17.623  28.560  12.302  1.00  0.00    -0.273 OA
HETATM   40  N5  UNL     1      18.475  26.454  12.381  1.00  0.00    -0.303 N 
HETATM   41  C21 UNL     1      18.018  26.002  11.265  1.00  0.00     0.203 C 
ATOM     42  H5  UNL     1      18.753  25.793  13.107  1.00  0.00     0.171 HD
HETATM   43  N6  UNL     1      17.914  24.610  11.077  1.00  0.00    -0.066 NA
HETATM   44  N7  UNL     1      17.640  26.925  10.270  1.00  0.00    -0.066 NA
ENDBRANCH  30  38
BRANCH  32  45
HETATM   45  C23 UNL     1      22.351  27.074  11.114  1.00  0.00     0.270 C 
HETATM   46  C24 UNL     1      21.742  25.705  11.025  1.00  0.00     0.037 C 
ENDBRANCH  32  45
ENDBRANCH  26  28
ENDBRANCH   1  24
BRANCH   1  47
HETATM   47  C28 UNL     1      16.347  34.233  15.472  1.00  0.00     0.009 C 
HETATM   48  C29 UNL     1      15.699  34.727  16.742  1.00  0.00     0.012 C 
HETATM   49  C30 UNL     1      16.393  35.290  14.379  1.00  0.00     0.012 C 
ENDBRANCH   1  47
TORSDOF 11
ENDMDL
MODEL 2
REMARK VINA RESULT: -9.213219168      2.726     11.206
REMARK  11 active torsions:
REMARK  status: ('A' for Active; 'I' for Inactive)
REMARK    1  A    between atoms: C2_2  and  C3_3 
REMARK    2  A    between atoms: C3_3  and  C5_5 
REMARK    3  A    between atoms: C5_5  and  N1_6 
REMARK    4  A    between atoms: C5_5  and  C14_19 
REMARK       I    between atoms: N1_6  and  C6_8 
REMARK       I    between atoms: C6_8  and  N2_10 
REMARK    5  A    between atoms: N2_10  and  C7_12 
REMARK       I    between atoms: C14_19  and  N3_21 
REMARK    6  A    between atoms: N3_21  and  C15_23 
REMARK    7  A    between atoms: C15_23  and  C16_24 
REMARK    8  A    between atoms: C15_23  and  C28_47 
REMARK       I    between atoms: C16_24  and  N4_26 
REMARK    9  A    between atoms: N4_26  and  C17_28 
REMARK   10  A    between atoms: C19_30  and  C20_31 
REMARK       I    between atoms: C20_31  and  N5_33 
REMARK   11  A    between atoms: N8_39  and  C23_40 
ROOT
HETATM    1  C15 UNL     1      21.090  35.051  16.992  1.00  0.00     0.180 C 
ENDROOT
BRANCH   1   2
HETATM    2  N3  UNL     1      19.948  34.709  16.150  1.00  0.00    -0.346 N 
HETATM    3  C14 UNL     1      18.694  34.305  16.665  1.00  0.00     0.241 C 
HETATM    4  O2  UNL     1      18.559  34.269  17.920  1.00  0.00    -0.271 OA
ATOM      5  H3  UNL     1      20.060  34.766  15.137  1.00  0.00     0.163 HD
BRANCH   3   6
HETATM    6  C5  UNL     1      17.530  33.924  15.837  1.00  0.00     0.182 C 
BRANCH   6   7
HETATM    7  C3  UNL     1      16.982  35.208  15.190  1.00  0.00     0.013 C 
HETATM    8  C4  UNL     1      16.047  34.819  14.066  1.00  0.00     0.012 C 
BRANCH   7   9
HETATM    9  C2  UNL     1      16.191  36.001  16.170  1.00  0.00     0.002 C 
HETATM   10  C1  UNL     1      15.149  35.068  16.800  1.00  0.00     0.005 C 
ENDBRANCH   7   9
ENDBRANCH   6   7
BRANCH   6  11
HETATM   11  N1  UNL     1      18.067  33.100  14.744  1.00  0.00    -0.330 N 
HETATM   12  C6  UNL     1      18.109  31.696  14.804  1.00  0.00     0.317 C 
HETATM   13  O1  UNL     1      17.675  31.079  15.819  1.00  0.00    -0.247 OA
HETATM   14  N2  UNL     1      18.634  30.926  13.742  1.00  0.00    -0.338 N 
ATOM     15  H2  UNL     1      18.997  31.405  12.917  1.00  0.00     0.164 HD
ATOM     16  H1  UNL     1      18.423  33.566  13.909  1.00  0.00     0.165 HD
BRANCH  14  17
HETATM   17  C7  UNL     1      18.675  29.469  13.785  1.00  0.00     0.089 C 
HETATM   18  C8  UNL     1      17.945  28.814  12.666  1.00  0.00     0.026 C 
HETATM   19  C9  UNL     1      18.692  28.732  11.371  1.00  0.00     0.002 C 
HETATM   20  C10 UNL     1      20.114  28.237  11.549  1.00  0.00     0.001 C 
HETATM   21  C11 UNL     1      20.828  29.062  12.592  1.00  0.00     0.006 C 
HETATM   22  C12 UNL     1      20.103  28.969  13.892  1.00  0.00     0.004 C 
HETATM   23  C13 UNL     1      20.832  29.753  14.965  1.00  0.00     0.012 C 
ENDBRANCH  14  17
ENDBRANCH   6  11
ENDBRANCH   3   6
ENDBRANCH   1   2
BRANCH   1  24
HETATM   24  C16 UNL     1      21.086  36.477  17.305  1.00  0.00     0.241 C 
HETATM   25  O3  UNL     1      20.596  36.792  18.447  1.00  0.00    -0.271 OA
HETATM   26  N4  UNL     1      21.548  37.520  16.512  1.00  0.00    -0.346 N 
ATOM     27  H4  UNL     1      21.940  37.293  15.598  1.00  0.00     0.163 HD
BRANCH  26  28
HETATM   28  C17 UNL     1      21.503  38.914  16.911  1.00  0.00     0.177 C 
HETATM   29  C18 UNL     1      21.193  39.794  15.710  1.00  0.00     0.053 C 
HETATM   30  C19 UNL     1      21.181  41.253  16.091  1.00  0.00     0.134 C 
HETATM   31  C22 UNL     1      22.456  41.699  16.755  1.00  0.00     0.339 C 
HETATM   32  N8  UNL     1      23.167  42.684  15.972  1.00  0.00     0.113 N 
HETATM   33  N9  UNL     1      23.365  40.590  16.962  1.00  0.00    -0.318 N 
HETATM   34  C25 UNL     1      24.315  41.974  15.439  1.00  0.00     0.295 C 
HETATM   35  C26 UNL     1      24.681  41.126  16.663  1.00  0.00     0.158 C 
HETATM   36  C27 UNL     1      22.843  39.330  17.373  1.00  0.00     0.244 C 
HETATM   37  O5  UNL     1      23.587  38.632  18.130  1.00  0.00    -0.271 OA
BRANCH  30  38
HETATM   38  C20 UNL     1      20.040  41.644  16.903  1.00  0.00     0.231 C 
HETATM   39  O4  UNL     1      20.097  42.466  17.851  1.00  0.00    -0.273 OA
HETATM   40  N5  UNL     1      18.760  41.083  16.641  1.00  0.00    -0.303 N 
HETATM   41  C21 UNL     1      17.694  41.805  16.601  1.00  0.00     0.203 C 
ATOM     42  H5  UNL     1      18.684  40.078  16.480  1.00  0.00     0.171 HD
HETATM   43  N6  UNL     1      16.456  41.190  16.336  1.00  0.00    -0.066 NA
HETATM   44  N7  UNL     1      17.813  43.192  16.821  1.00  0.00    -0.066 NA
ENDBRANCH  30  38
BRANCH  32  45
HETATM   45  C23 UNL     1      23.506  43.855  16.716  1.00  0.00     0.270 C 
HETATM   46  C24 UNL     1      22.401  44.868  16.775  1.00  0.00     0.037 C 
ENDBRANCH  32  45
ENDBRANCH  26  28
ENDBRANCH   1  24
BRANCH   1  47
HETATM   47  C28 UNL     1      22.317  34.426  16.488  1.00  0.00     0.009 C 
HETATM   48  C29 UNL     1      22.613  33.035  16.992  1.00  0.00     0.012 C 
HETATM   49  C30 UNL     1      22.543  34.576  14.992  1.00  0.00     0.012 C 
ENDBRANCH   1  47
TORSDOF 11
ENDMDL
MODEL 3
REMARK VINA RESULT: -9.200777601      1.746      3.300
REMARK  11 active torsions:
REMARK  status: ('A' for Active; 'I' for Inactive)
REMARK    1  A    between atoms: C2_2  and  C3_3 
REMARK    2  A    between atoms: C3_3  and  C5_5 
REMARK    3  A    between atoms: C5_5  and  N1_6 
REMARK    4  A    between atoms: C5_5  and  C14_19 
REMARK       I    between atoms: N1_6  and  C6_8 
REMARK       I    between atoms: C6_8  and  N2_10 
REMARK    5  A    between atoms: N2_10  and  C7_12 
REMARK       I    between atoms: C14_19  and  N3_21 
REMARK    6  A    between atoms: N3_21  and  C15_23 
REMARK    7  A    between atoms: C15_23  and  C16_24 
REMARK    8  A    between atoms: C15_23  and  C28_47 
REMARK       I    between atoms: C16_24  and  N4_26 
REMARK    9  A    between atoms: N4_26  and  C17_28 
REMARK   10  A    between atoms: C19_30  and  C20_31 
REMARK       I    between atoms: C20_31  and  N5_33 
REMARK   11  A    between atoms: N8_39  and  C23_40 
ROOT
HETATM    1  C15 UNL     1      18.148  32.185  15.133  1.00  0.00     0.180 C 
ENDROOT
BRANCH   1   2
HETATM    2  N3  UNL     1      19.146  33.237  15.295  1.00  0.00    -0.346 N 
HETATM    3  C14 UNL     1      20.179  33.187  16.262  1.00  0.00     0.241 C 
HETATM    4  O2  UNL     1      20.247  32.162  16.995  1.00  0.00    -0.271 OA
ATOM      5  H3  UNL     1      19.098  34.050  14.680  1.00  0.00     0.163 HD
BRANCH   3   6
HETATM    6  C5  UNL     1      21.186  34.250  16.470  1.00  0.00     0.182 C 
BRANCH   6   7
HETATM    7  C3  UNL     1      22.204  34.154  15.321  1.00  0.00     0.013 C 
HETATM    8  C4  UNL     1      22.965  35.458  15.242  1.00  0.00     0.012 C 
BRANCH   7   9
HETATM    9  C2  UNL     1      23.199  33.077  15.582  1.00  0.00     0.002 C 
HETATM   10  C1  UNL     1      23.555  33.116  17.073  1.00  0.00     0.005 C 
ENDBRANCH   7   9
ENDBRANCH   6   7
BRANCH   6  11
HETATM   11  N1  UNL     1      20.470  35.521  16.290  1.00  0.00    -0.330 N 
HETATM   12  C6  UNL     1      19.956  36.261  17.369  1.00  0.00     0.317 C 
HETATM   13  O1  UNL     1      20.097  35.853  18.558  1.00  0.00    -0.247 OA
HETATM   14  N2  UNL     1      19.268  37.479  17.169  1.00  0.00    -0.338 N 
ATOM     15  H2  UNL     1      19.137  37.822  16.217  1.00  0.00     0.164 HD
ATOM     16  H1  UNL     1      20.341  35.881  15.343  1.00  0.00     0.165 HD
BRANCH  14  17
HETATM   17  C7  UNL     1      18.739  38.263  18.280  1.00  0.00     0.089 C 
HETATM   18  C8  UNL     1      19.213  39.673  18.300  1.00  0.00     0.026 C 
HETATM   19  C9  UNL     1      18.491  40.608  17.380  1.00  0.00     0.002 C 
HETATM   20  C10 UNL     1      16.984  40.467  17.471  1.00  0.00     0.001 C 
HETATM   21  C11 UNL     1      16.583  39.025  17.281  1.00  0.00     0.006 C 
HETATM   22  C12 UNL     1      17.225  38.179  18.329  1.00  0.00     0.004 C 
HETATM   23  C13 UNL     1      16.795  36.733  18.185  1.00  0.00     0.012 C 
ENDBRANCH  14  17
ENDBRANCH   6  11
ENDBRANCH   3   6
ENDBRANCH   1   2
BRANCH   1  24
HETATM   24  C16 UNL     1      18.684  31.090  14.330  1.00  0.00     0.241 C 
HETATM   25  O3  UNL     1      18.371  31.110  13.087  1.00  0.00    -0.271 OA
HETATM   26  N4  UNL     1      19.486  30.039  14.758  1.00  0.00    -0.346 N 
ATOM     27  H4  UNL     1      19.745  30.002  15.744  1.00  0.00     0.163 HD
BRANCH  26  28
HETATM   28  C17 UNL     1      19.973  28.991  13.881  1.00  0.00     0.177 C 
HETATM   29  C18 UNL     1      20.508  29.593  12.591  1.00  0.00     0.053 C 
HETATM   30  C19 UNL     1      20.985  28.520  11.645  1.00  0.00     0.134 C 
HETATM   31  C22 UNL     1      19.931  27.487  11.346  1.00  0.00     0.339 C 
HETATM   32  N8  UNL     1      19.541  27.489   9.955  1.00  0.00     0.113 N 
HETATM   33  N9  UNL     1      18.728  27.715  12.121  1.00  0.00    -0.318 N 
HETATM   34  C25 UNL     1      18.214  28.077   9.943  1.00  0.00     0.295 C 
HETATM   35  C26 UNL     1      17.636  27.429  11.207  1.00  0.00     0.158 C 
HETATM   36  C27 UNL     1      18.843  28.129  13.479  1.00  0.00     0.244 C 
HETATM   37  O5  UNL     1      17.940  27.718  14.271  1.00  0.00    -0.271 OA
BRANCH  30  38
HETATM   38  C20 UNL     1      22.213  27.864  12.062  1.00  0.00     0.231 C 
HETATM   39  O4  UNL     1      22.386  26.620  12.057  1.00  0.00    -0.273 OA
HETATM   40  N5  UNL     1      23.313  28.644  12.515  1.00  0.00    -0.303 N 
HETATM   41  C21 UNL     1      24.518  28.415  12.122  1.00  0.00     0.203 C 
ATOM     42  H5  UNL     1      23.142  29.407  13.171  1.00  0.00     0.171 HD
HETATM   43  N6  UNL     1      25.564  29.223  12.606  1.00  0.00    -0.066 NA
HETATM   44  N7  UNL     1      24.740  27.361  11.214  1.00  0.00    -0.066 NA
ENDBRANCH  30  38
BRANCH  32  45
HETATM   45  C23 UNL     1      19.604  26.195   9.352  1.00  0.00     0.270 C 
HETATM   46  C24 UNL     1      19.069  26.161   7.950  1.00  0.00     0.037 C 
ENDBRANCH  32  45
ENDBRANCH  26  28
ENDBRANCH   1  24
BRANCH   1  47
HETATM   47  C28 UNL     1      16.839  32.754  14.793  1.00  0.00     0.009 C 
HETATM   48  C29 UNL     1      15.708  32.437  15.741  1.00  0.00     0.012 C 
HETATM   49  C30 UNL     1      16.867  34.214  14.370  1.00  0.00     0.012 C 
ENDBRANCH   1  47
TORSDOF 11
ENDMDL
MODEL 4
REMARK VINA RESULT: -9.140827609      0.841      1.082
REMARK  11 active torsions:
REMARK  status: ('A' for Active; 'I' for Inactive)
REMARK    1  A    between atoms: C2_2  and  C3_3 
REMARK    2  A    between atoms: C3_3  and  C5_5 
REMARK    3  A    between atoms: C5_5  and  N1_6 
REMARK    4  A    between atoms: C5_5  and  C14_19 
REMARK       I    between atoms: N1_6  and  C6_8 
REMARK       I    between atoms: C6_8  and  N2_10 
REMARK    5  A    between atoms: N2_10  and  C7_12 
REMARK       I    between atoms: C14_19  and  N3_21 
REMARK    6  A    between atoms: N3_21  and  C15_23 
REMARK    7  A    between atoms: C15_23  and  C16_24 
REMARK    8  A    between atoms: C15_23  and  C28_47 
REMARK       I    between atoms: C16_24  and  N4_26 
REMARK    9  A    between atoms: N4_26  and  C17_28 
REMARK   10  A    between atoms: C19_30  and  C20_31 
REMARK       I    between atoms: C20_31  and  N5_33 
REMARK   11  A    between atoms: N8_39  and  C23_40 
ROOT
HETATM    1  C15 UNL     1      17.632  33.425  15.658  1.00  0.00     0.180 C 
ENDROOT
BRANCH   1   2
HETATM    2  N3  UNL     1      18.813  34.278  15.744  1.00  0.00    -0.346 N 
HETATM    3  C14 UNL     1      19.983  33.919  16.453  1.00  0.00     0.241 C 
HETATM    4  O2  UNL     1      20.007  32.786  17.011  1.00  0.00    -0.271 OA
ATOM      5  H3  UNL     1      18.793  35.181  15.268  1.00  0.00     0.163 HD
BRANCH   3   6
HETATM    6  C5  UNL     1      21.182  34.774  16.583  1.00  0.00     0.182 C 
BRANCH   6   7
HETATM    7  C3  UNL     1      22.162  34.371  15.467  1.00  0.00     0.013 C 
HETATM    8  C4  UNL     1      23.025  35.566  15.130  1.00  0.00     0.012 C 
BRANCH   7   9
HETATM    9  C2  UNL     1      23.070  33.284  15.925  1.00  0.00     0.002 C 
HETATM   10  C1  UNL     1      22.660  31.993  15.206  1.00  0.00     0.005 C 
ENDBRANCH   7   9
ENDBRANCH   6   7
BRANCH   6  11
HETATM   11  N1  UNL     1      20.736  36.140  16.274  1.00  0.00    -0.330 N 
HETATM   12  C6  UNL     1      21.062  37.244  17.081  1.00  0.00     0.317 C 
HETATM   13  O1  UNL     1      21.770  37.100  18.120  1.00  0.00    -0.247 OA
HETATM   14  N2  UNL     1      20.618  38.548  16.766  1.00  0.00    -0.338 N 
ATOM     15  H2  UNL     1      20.040  38.685  15.936  1.00  0.00     0.164 HD
ATOM     16  H1  UNL     1      20.166  36.293  15.442  1.00  0.00     0.165 HD
BRANCH  14  17
HETATM   17  C7  UNL     1      20.957  39.705  17.587  1.00  0.00     0.089 C 
HETATM   18  C8  UNL     1      22.133  40.469  17.090  1.00  0.00     0.026 C 
HETATM   19  C9  UNL     1      21.854  41.425  15.973  1.00  0.00     0.002 C 
HETATM   20  C10 UNL     1      20.631  42.283  16.232  1.00  0.00     0.001 C 
HETATM   21  C11 UNL     1      19.446  41.412  16.574  1.00  0.00     0.006 C 
HETATM   22  C12 UNL     1      19.750  40.600  17.788  1.00  0.00     0.004 C 
HETATM   23  C13 UNL     1      18.554  39.754  18.176  1.00  0.00     0.012 C 
ENDBRANCH  14  17
ENDBRANCH   6  11
ENDBRANCH   3   6
ENDBRANCH   1   2
BRANCH   1  24
HETATM   24  C16 UNL     1      17.879  32.299  14.762  1.00  0.00     0.241 C 
HETATM   25  O3  UNL     1      16.870  31.542  14.534  1.00  0.00    -0.271 OA
HETATM   26  N4  UNL     1      19.073  31.958  14.138  1.00  0.00    -0.346 N 
ATOM     27  H4  UNL     1      19.890  32.545  14.308  1.00  0.00     0.163 HD
BRANCH  26  28
HETATM   28  C17 UNL     1      19.222  30.813  13.259  1.00  0.00     0.177 C 
HETATM   29  C18 UNL     1      19.555  29.570  14.068  1.00  0.00     0.053 C 
HETATM   30  C19 UNL     1      19.755  28.373  13.173  1.00  0.00     0.134 C 
HETATM   31  C22 UNL     1      20.795  28.602  12.108  1.00  0.00     0.339 C 
HETATM   32  N8  UNL     1      21.939  27.733  12.263  1.00  0.00     0.113 N 
HETATM   33  N9  UNL     1      21.292  29.963  12.133  1.00  0.00    -0.318 N 
HETATM   34  C25 UNL     1      23.000  28.601  12.739  1.00  0.00     0.295 C 
HETATM   35  C26 UNL     1      22.718  29.842  11.885  1.00  0.00     0.158 C 
HETATM   36  C27 UNL     1      20.382  31.032  12.370  1.00  0.00     0.244 C 
HETATM   37  O5  UNL     1      20.638  32.130  11.786  1.00  0.00    -0.271 OA
BRANCH  30  38
HETATM   38  C20 UNL     1      18.531  27.874  12.567  1.00  0.00     0.231 C 
HETATM   39  O4  UNL     1      17.622  28.608  12.106  1.00  0.00    -0.273 OA
HETATM   40  N5  UNL     1      18.309  26.473  12.475  1.00  0.00    -0.303 N 
HETATM   41  C21 UNL     1      17.869  25.922  11.396  1.00  0.00     0.203 C 
ATOM     42  H5  UNL     1      18.503  25.885  13.286  1.00  0.00     0.171 HD
HETATM   43  N6  UNL     1      17.670  24.529  11.366  1.00  0.00    -0.066 NA
HETATM   44  N7  UNL     1      17.607  26.743  10.281  1.00  0.00    -0.066 NA
ENDBRANCH  30  38
BRANCH  32  45
HETATM   45  C23 UNL     1      22.269  27.020  11.070  1.00  0.00     0.270 C 
HETATM   46  C24 UNL     1      21.529  25.722  10.925  1.00  0.00     0.037 C 
ENDBRANCH  32  45
ENDBRANCH  26  28
ENDBRANCH   1  24
BRANCH   1  47
HETATM   47  C28 UNL     1      16.417  34.228  15.488  1.00  0.00     0.009 C 
HETATM   48  C29 UNL     1      15.809  34.793  16.749  1.00  0.00     0.012 C 
HETATM   49  C30 UNL     1      16.472  35.238  14.352  1.00  0.00     0.012 C 
ENDBRANCH   1  47
TORSDOF 11
ENDMDL
MODEL 5
REMARK VINA RESULT: -9.101201762      2.595     11.226
REMARK  11 active torsions:
REMARK  status: ('A' for Active; 'I' for Inactive)
REMARK    1  A    between atoms: C2_2  and  C3_3 
REMARK    2  A    between atoms: C3_3  and  C5_5 
REMARK    3  A    between atoms: C5_5  and  N1_6 
REMARK    4  A    between atoms: C5_5  and  C14_19 
REMARK       I    between atoms: N1_6  and  C6_8 
REMARK       I    between atoms: C6_8  and  N2_10 
REMARK    5  A    between atoms: N2_10  and  C7_12 
REMARK       I    between atoms: C14_19  and  N3_21 
REMARK    6  A    between atoms: N3_21  and  C15_23 
REMARK    7  A    between atoms: C15_23  and  C16_24 
REMARK    8  A    between atoms: C15_23  and  C28_47 
REMARK       I    between atoms: C16_24  and  N4_26 
REMARK    9  A    between atoms: N4_26  and  C17_28 
REMARK   10  A    between atoms: C19_30  and  C20_31 
REMARK       I    between atoms: C20_31  and  N5_33 
REMARK   11  A    between atoms: N8_39  and  C23_40 
ROOT
HETATM    1  C15 UNL     1      21.068  34.966  16.989  1.00  0.00     0.180 C 
ENDROOT
BRANCH   1   2
HETATM    2  N3  UNL     1      19.930  34.635  16.138  1.00  0.00    -0.346 N 
HETATM    3  C14 UNL     1      18.667  34.246  16.643  1.00  0.00     0.241 C 
HETATM    4  O2  UNL     1      18.520  34.215  17.897  1.00  0.00    -0.271 OA
ATOM      5  H3  UNL     1      20.051  34.687  15.126  1.00  0.00     0.163 HD
BRANCH   3   6
HETATM    6  C5  UNL     1      17.505  33.876  15.806  1.00  0.00     0.182 C 
BRANCH   6   7
HETATM    7  C3  UNL     1      16.969  35.167  15.162  1.00  0.00     0.013 C 
HETATM    8  C4  UNL     1      15.986  34.790  14.077  1.00  0.00     0.012 C 
BRANCH   7   9
HETATM    9  C2  UNL     1      16.233  35.992  16.159  1.00  0.00     0.002 C 
HETATM   10  C1  UNL     1      15.155  35.108  16.799  1.00  0.00     0.005 C 
ENDBRANCH   7   9
ENDBRANCH   6   7
BRANCH   6  11
HETATM   11  N1  UNL     1      18.044  33.055  14.712  1.00  0.00    -0.330 N 
HETATM   12  C6  UNL     1      18.070  31.651  14.761  1.00  0.00     0.317 C 
HETATM   13  O1  UNL     1      17.617  31.030  15.766  1.00  0.00    -0.247 OA
HETATM   14  N2  UNL     1      18.597  30.883  13.698  1.00  0.00    -0.338 N 
ATOM     15  H2  UNL     1      18.974  31.365  12.881  1.00  0.00     0.164 HD
ATOM     16  H1  UNL     1      18.415  33.524  13.884  1.00  0.00     0.165 HD
BRANCH  14  17
HETATM   17  C7  UNL     1      18.620  29.425  13.729  1.00  0.00     0.089 C 
HETATM   18  C8  UNL     1      17.880  28.788  12.607  1.00  0.00     0.026 C 
HETATM   19  C9  UNL     1      18.622  28.708  11.310  1.00  0.00     0.002 C 
HETATM   20  C10 UNL     1      20.038  28.193  11.480  1.00  0.00     0.001 C 
HETATM   21  C11 UNL     1      20.765  29.002  12.527  1.00  0.00     0.006 C 
HETATM   22  C12 UNL     1      20.042  28.907  13.829  1.00  0.00     0.004 C 
HETATM   23  C13 UNL     1      20.783  29.674  14.906  1.00  0.00     0.012 C 
ENDBRANCH  14  17
ENDBRANCH   6  11
ENDBRANCH   3   6
ENDBRANCH   1   2
BRANCH   1  24
HETATM   24  C16 UNL     1      21.050  36.383  17.340  1.00  0.00     0.241 C 
HETATM   25  O3  UNL     1      20.601  36.658  18.509  1.00  0.00    -0.271 OA
HETATM   26  N4  UNL     1      21.457  37.456  16.557  1.00  0.00    -0.346 N 
ATOM     27  H4  UNL     1      21.815  37.260  15.622  1.00  0.00     0.163 HD
BRANCH  26  28
HETATM   28  C17 UNL     1      21.402  38.838  16.994  1.00  0.00     0.177 C 
HETATM   29  C18 UNL     1      21.031  39.742  15.830  1.00  0.00     0.053 C 
HETATM   30  C19 UNL     1      21.007  41.190  16.250  1.00  0.00     0.134 C 
HETATM   31  C22 UNL     1      22.298  41.644  16.878  1.00  0.00     0.339 C 
HETATM   32  N8  UNL     1      22.961  42.662  16.096  1.00  0.00     0.113 N 
HETATM   33  N9  UNL     1      23.234  40.547  17.022  1.00  0.00    -0.318 N 
HETATM   34  C25 UNL     1      24.101  41.988  15.502  1.00  0.00     0.295 C 
HETATM   35  C26 UNL     1      24.528  41.115  16.688  1.00  0.00     0.158 C 
HETATM   36  C27 UNL     1      22.751  39.266  17.418  1.00  0.00     0.244 C 
HETATM   37  O5  UNL     1      23.535  38.564  18.127  1.00  0.00    -0.271 OA
BRANCH  30  38
HETATM   38  C20 UNL     1      19.890  41.538  17.114  1.00  0.00     0.231 C 
HETATM   39  O4  UNL     1      18.746  41.848  16.698  1.00  0.00    -0.273 OA
HETATM   40  N5  UNL     1      20.064  41.543  18.525  1.00  0.00    -0.303 N 
HETATM   41  C21 UNL     1      19.199  41.012  19.319  1.00  0.00     0.203 C 
ATOM     42  H5  UNL     1      20.897  41.980  18.921  1.00  0.00     0.171 HD
HETATM   43  N6  UNL     1      19.428  41.049  20.708  1.00  0.00    -0.066 NA
HETATM   44  N7  UNL     1      18.055  40.409  18.761  1.00  0.00    -0.066 NA
ENDBRANCH  30  38
BRANCH  32  45
HETATM   45  C23 UNL     1      23.307  43.819  16.858  1.00  0.00     0.270 C 
HETATM   46  C24 UNL     1      22.118  44.542  17.421  1.00  0.00     0.037 C 
ENDBRANCH  32  45
ENDBRANCH  26  28
ENDBRANCH   1  24
BRANCH   1  47
HETATM   47  C28 UNL     1      22.301  34.367  16.469  1.00  0.00     0.009 C 
HETATM   48  C29 UNL     1      22.612  32.967  16.938  1.00  0.00     0.012 C 
HETATM   49  C30 UNL     1      22.525  34.557  14.978  1.00  0.00     0.012 C 
ENDBRANCH   1  47
TORSDOF 11
ENDMDL
