MODEL 1
REMARK VINA RESULT: -7.492609151      0.000      0.000
REMARK  13 active torsions:
REMARK  status: ('A' for Active; 'I' for Inactive)
REMARK    1  A    between atoms: C2_2  and  C3_3 
REMARK    2  A    between atoms: C3_3  and  C5_5 
REMARK    3  A    between atoms: C7_10  and  C8_11 
REMARK    4  A    between atoms: C8_11  and  C9_12 
REMARK    5  A    between atoms: C11_19  and  C12_20 
REMARK    6  A    between atoms: C12_20  and  C13_21 
REMARK    7  A    between atoms: C17_28  and  C18_29 
REMARK    8  A    between atoms: C18_29  and  C19_30 
REMARK    9  A    between atoms: C19_30  and  C20_31 
REMARK   10  A    between atoms: C20_31  and  N5_32 
REMARK   11  A    between atoms: C26_40  and  O5_41 
REMARK   12  A    between atoms: C27_43  and  C28_44 
REMARK   13  A    between atoms: C31_49  and  O6_50 
ROOT
HETATM    1  C5  UNL     1      21.434  35.967  16.609  1.00  0.00     0.162 C 
HETATM    2  N1  UNL     1      22.367  36.883  17.277  1.00  0.00    -0.347 N 
ATOM      3  H1  UNL     1      22.943  36.470  18.011  1.00  0.00     0.163 HD
HETATM    4  C6  UNL     1      22.572  38.240  17.040  1.00  0.00     0.241 C 
HETATM    5  O1  UNL     1      23.247  38.824  17.979  1.00  0.00    -0.271 OA
HETATM    6  C7  UNL     1      22.180  39.122  15.958  1.00  0.00     0.185 C 
HETATM    7  N3  UNL     1      20.872  39.687  15.980  1.00  0.00    -0.346 N 
ATOM      8  H3  UNL     1      20.237  39.298  15.283  1.00  0.00     0.163 HD
HETATM    9  C10 UNL     1      20.299  40.680  16.784  1.00  0.00     0.241 C 
HETATM   10  O3  UNL     1      19.766  41.665  16.221  1.00  0.00    -0.271 OA
HETATM   11  C11 UNL     1      20.233  40.722  18.282  1.00  0.00     0.177 C 
HETATM   12  N4  UNL     1      18.849  40.751  18.715  1.00  0.00    -0.346 N 
ATOM     13  H4  UNL     1      18.471  41.683  18.882  1.00  0.00     0.163 HD
HETATM   14  C16 UNL     1      17.959  39.711  18.937  1.00  0.00     0.241 C 
HETATM   15  O4  UNL     1      17.419  39.559  20.065  1.00  0.00    -0.271 OA
HETATM   16  C17 UNL     1      17.543  38.674  17.887  1.00  0.00     0.175 C 
HETATM   17  N6  UNL     1      17.006  37.516  18.565  1.00  0.00    -0.359 N 
ATOM     18  H6  UNL     1      16.566  37.735  19.459  1.00  0.00     0.162 HD
HETATM   19  C26 UNL     1      16.969  36.182  18.246  1.00  0.00     0.135 C 
HETATM   20  C27 UNL     1      17.989  35.243  17.650  1.00  0.00     0.161 C 
HETATM   21  N7  UNL     1      19.305  35.548  18.084  1.00  0.00    -0.360 N 
ATOM     22  H7  UNL     1      19.284  36.075  18.957  1.00  0.00     0.162 HD
HETATM   23  C31 UNL     1      20.617  35.339  17.668  1.00  0.00     0.135 C 
ENDROOT
BRANCH  16  24
HETATM   24  C18 UNL     1      16.350  39.291  17.127  1.00  0.00     0.036 C 
BRANCH  24  25
HETATM   25  C19 UNL     1      16.423  40.755  16.940  1.00  0.00     0.030 C 
BRANCH  25  26
HETATM   26  C20 UNL     1      15.259  41.471  17.538  1.00  0.00     0.237 C 
BRANCH  26  27
HETATM   27  N5  UNL     1      15.374  42.847  17.812  1.00  0.00    -0.071 N 
HETATM   28  C21 UNL     1      14.109  43.543  17.846  1.00  0.00     0.272 C 
HETATM   29  C22 UNL     1      16.248  43.571  16.921  1.00  0.00     0.237 C 
HETATM   30  C23 UNL     1      17.524  43.882  17.663  1.00  0.00     0.029 C 
HETATM   31  C24 UNL     1      16.986  44.088  19.069  1.00  0.00     0.029 C 
HETATM   32  C25 UNL     1      15.976  42.974  19.153  1.00  0.00     0.237 C 
ENDBRANCH  26  27
ENDBRANCH  25  26
ENDBRANCH  24  25
ENDBRANCH  16  24
BRANCH  19  33
HETATM   33  O5  UNL     1      15.843  35.573  18.497  1.00  0.00    -0.348 OA
ATOM     34  H5  UNL     1      15.891  34.864  19.129  1.00  0.00     0.219 HD
ENDBRANCH  19  33
BRANCH  11  35
HETATM   35  C12 UNL     1      20.904  41.997  18.741  1.00  0.00     0.038 C 
BRANCH  35  36
HETATM   36  C13 UNL     1      22.385  41.988  18.780  1.00  0.00    -0.020 C 
HETATM   37  C14 UNL     1      22.949  41.665  20.154  1.00  0.00     0.009 C 
HETATM   38  C15 UNL     1      23.112  43.160  18.231  1.00  0.00     0.009 C 
ENDBRANCH  35  36
ENDBRANCH  11  35
BRANCH  20  39
HETATM   39  C28 UNL     1      17.699  35.009  16.218  1.00  0.00     0.008 C 
HETATM   40  C29 UNL     1      17.502  33.563  15.907  1.00  0.00     0.012 C 
HETATM   41  C30 UNL     1      16.380  35.704  15.891  1.00  0.00     0.012 C 
ENDBRANCH  20  39
BRANCH  23  42
HETATM   42  O6  UNL     1      21.286  34.430  18.314  1.00  0.00    -0.348 OA
ATOM     43  H6  UNL     1      20.819  34.136  19.088  1.00  0.00     0.219 HD
ENDBRANCH  23  42
BRANCH   6  44
HETATM   44  C8  UNL     1      23.188  40.281  15.785  1.00  0.00     0.134 C 
BRANCH  44  45
HETATM   45  C9  UNL     1      22.945  41.103  14.606  1.00  0.00     0.233 C 
HETATM   46  N2  UNL     1      22.464  40.551  13.360  1.00  0.00    -0.062 NA
HETATM   47  O2  UNL     1      23.132  42.339  14.589  1.00  0.00    -0.277 OA
ENDBRANCH  44  45
ENDBRANCH   6  44
BRANCH   1  48
HETATM   48  C3  UNL     1      22.295  34.974  15.879  1.00  0.00     0.012 C 
HETATM   49  C4  UNL     1      23.322  35.488  14.954  1.00  0.00     0.012 C 
BRANCH  48  50
HETATM   50  C2  UNL     1      21.430  33.983  15.083  1.00  0.00     0.002 C 
HETATM   51  C1  UNL     1      21.908  32.588  15.358  1.00  0.00     0.005 C 
ENDBRANCH  48  50
ENDBRANCH   1  48
TORSDOF 13
ENDMDL
MODEL 2
REMARK VINA RESULT: -6.870179230      2.147      6.080
REMARK  13 active torsions:
REMARK  status: ('A' for Active; 'I' for Inactive)
REMARK    1  A    between atoms: C2_2  and  C3_3 
REMARK    2  A    between atoms: C3_3  and  C5_5 
REMARK    3  A    between atoms: C7_10  and  C8_11 
REMARK    4  A    between atoms: C8_11  and  C9_12 
REMARK    5  A    between atoms: C11_19  and  C12_20 
REMARK    6  A    between atoms: C12_20  and  C13_21 
REMARK    7  A    between atoms: C17_28  and  C18_29 
REMARK    8  A    between atoms: C18_29  and  C19_30 
REMARK    9  A    between atoms: C19_30  and  C20_31 
REMARK   10  A    between atoms: C20_31  and  N5_32 
REMARK   11  A    between atoms: C26_40  and  O5_41 
REMARK   12  A    between atoms: C27_43  and  C28_44 
REMARK   13  A    between atoms: C31_49  and  O6_50 
ROOT
HETATM    1  C5  UNL     1      23.045  39.766  17.027  1.00  0.00     0.162 C 
HETATM    2  N1  UNL     1      22.251  40.534  17.994  1.00  0.00    -0.347 N 
ATOM      3  H1  UNL     1      22.743  40.824  18.839  1.00  0.00     0.163 HD
HETATM    4  C6  UNL     1      20.915  40.921  17.909  1.00  0.00     0.241 C 
HETATM    5  O1  UNL     1      20.433  41.333  19.038  1.00  0.00    -0.271 OA
HETATM    6  C7  UNL     1      19.965  40.952  16.814  1.00  0.00     0.185 C 
HETATM    7  N3  UNL     1      19.269  39.754  16.482  1.00  0.00    -0.346 N 
ATOM      8  H3  UNL     1      19.569  39.326  15.607  1.00  0.00     0.163 HD
HETATM    9  C10 UNL     1      18.247  39.058  17.139  1.00  0.00     0.241 C 
HETATM   10  O3  UNL     1      17.196  38.809  16.503  1.00  0.00    -0.271 OA
HETATM   11  C11 UNL     1      18.244  38.551  18.550  1.00  0.00     0.177 C 
HETATM   12  N4  UNL     1      18.085  37.109  18.556  1.00  0.00    -0.346 N 
ATOM     13  H4  UNL     1      17.124  36.783  18.660  1.00  0.00     0.163 HD
HETATM   14  C16 UNL     1      19.033  36.103  18.443  1.00  0.00     0.241 C 
HETATM   15  O4  UNL     1      19.162  35.238  19.350  1.00  0.00    -0.271 OA
HETATM   16  C17 UNL     1      19.989  35.930  17.257  1.00  0.00     0.175 C 
HETATM   17  N6  UNL     1      21.105  35.113  17.676  1.00  0.00    -0.359 N 
ATOM     18  H6  UNL     1      20.869  34.446  18.412  1.00  0.00     0.162 HD
HETATM   19  C26 UNL     1      22.418  35.053  17.282  1.00  0.00     0.135 C 
HETATM   20  C27 UNL     1      23.439  36.117  16.959  1.00  0.00     0.161 C 
HETATM   21  N7  UNL     1      23.285  37.264  17.780  1.00  0.00    -0.360 N 
ATOM     22  H7  UNL     1      22.785  37.029  18.638  1.00  0.00     0.162 HD
HETATM   23  C31 UNL     1      23.616  38.615  17.758  1.00  0.00     0.135 C 
ENDROOT
BRANCH  16  24
HETATM   24  C18 UNL     1      19.230  35.080  16.217  1.00  0.00     0.036 C 
BRANCH  24  25
HETATM   25  C19 UNL     1      18.704  33.797  16.728  1.00  0.00     0.030 C 
BRANCH  25  26
HETATM   26  C20 UNL     1      17.706  33.176  15.810  1.00  0.00     0.237 C 
BRANCH  26  27
HETATM   27  N5  UNL     1      16.359  33.577  15.897  1.00  0.00    -0.071 N 
HETATM   28  C21 UNL     1      15.417  32.495  15.729  1.00  0.00     0.272 C 
HETATM   29  C22 UNL     1      15.981  34.632  14.989  1.00  0.00     0.237 C 
HETATM   30  C23 UNL     1      15.834  35.906  15.783  1.00  0.00     0.029 C 
HETATM   31  C24 UNL     1      15.304  35.356  17.096  1.00  0.00     0.029 C 
HETATM   32  C25 UNL     1      16.155  34.123  17.252  1.00  0.00     0.237 C 
ENDBRANCH  26  27
ENDBRANCH  25  26
ENDBRANCH  24  25
ENDBRANCH  16  24
BRANCH  19  33
HETATM   33  O5  UNL     1      22.915  33.854  17.153  1.00  0.00    -0.348 OA
ATOM     34  H5  UNL     1      23.830  33.813  16.899  1.00  0.00     0.219 HD
ENDBRANCH  19  33
BRANCH  11  35
HETATM   35  C12 UNL     1      17.059  39.165  19.262  1.00  0.00     0.038 C 
BRANCH  35  36
HETATM   36  C13 UNL     1      17.127  40.621  19.525  1.00  0.00    -0.020 C 
HETATM   37  C14 UNL     1      17.515  40.956  20.956  1.00  0.00     0.009 C 
HETATM   38  C15 UNL     1      15.968  41.463  19.138  1.00  0.00     0.009 C 
ENDBRANCH  35  36
ENDBRANCH  11  35
BRANCH  20  39
HETATM   39  C28 UNL     1      23.599  36.249  15.494  1.00  0.00     0.008 C 
HETATM   40  C29 UNL     1      23.787  34.930  14.821  1.00  0.00     0.012 C 
HETATM   41  C30 UNL     1      22.306  36.838  14.936  1.00  0.00     0.012 C 
ENDBRANCH  20  39
BRANCH  23  42
HETATM   42  O6  UNL     1      24.609  38.976  18.517  1.00  0.00    -0.348 OA
ATOM     43  H6  UNL     1      25.345  38.380  18.438  1.00  0.00     0.219 HD
ENDBRANCH  23  42
BRANCH   6  44
HETATM   44  C8  UNL     1      18.913  42.066  17.016  1.00  0.00     0.134 C 
BRANCH  44  45
HETATM   45  C9  UNL     1      19.348  43.378  16.554  1.00  0.00     0.233 C 
HETATM   46  N2  UNL     1      18.447  44.503  16.450  1.00  0.00    -0.062 NA
HETATM   47  O2  UNL     1      20.526  43.623  16.216  1.00  0.00    -0.277 OA
ENDBRANCH  44  45
ENDBRANCH   6  44
BRANCH   1  48
HETATM   48  C3  UNL     1      24.099  40.713  16.526  1.00  0.00     0.012 C 
HETATM   49  C4  UNL     1      24.302  41.979  17.255  1.00  0.00     0.012 C 
BRANCH  48  50
HETATM   50  C2  UNL     1      23.850  41.078  15.054  1.00  0.00     0.002 C 
HETATM   51  C1  UNL     1      22.609  40.378  14.582  1.00  0.00     0.005 C 
ENDBRANCH  48  50
ENDBRANCH   1  48
TORSDOF 13
ENDMDL
MODEL 3
REMARK VINA RESULT: -6.778991396      2.148      7.031
REMARK  13 active torsions:
REMARK  status: ('A' for Active; 'I' for Inactive)
REMARK    1  A    between atoms: C2_2  and  C3_3 
REMARK    2  A    between atoms: C3_3  and  C5_5 
REMARK    3  A    between atoms: C7_10  and  C8_11 
REMARK    4  A    between atoms: C8_11  and  C9_12 
REMARK    5  A    between atoms: C11_19  and  C12_20 
REMARK    6  A    between atoms: C12_20  and  C13_21 
REMARK    7  A    between atoms: C17_28  and  C18_29 
REMARK    8  A    between atoms: C18_29  and  C19_30 
REMARK    9  A    between atoms: C19_30  and  C20_31 
REMARK   10  A    between atoms: C20_31  and  N5_32 
REMARK   11  A    between atoms: C26_40  and  O5_41 
REMARK   12  A    between atoms: C27_43  and  C28_44 
REMARK   13  A    between atoms: C31_49  and  O6_50 
ROOT
HETATM    1  C5  UNL     1      23.038  39.612  17.029  1.00  0.00     0.162 C 
HETATM    2  N1  UNL     1      22.271  40.378  18.018  1.00  0.00    -0.347 N 
ATOM      3  H1  UNL     1      22.777  40.639  18.865  1.00  0.00     0.163 HD
HETATM    4  C6  UNL     1      20.944  40.798  17.954  1.00  0.00     0.241 C 
HETATM    5  O1  UNL     1      20.481  41.197  19.096  1.00  0.00    -0.271 OA
HETATM    6  C7  UNL     1      19.985  40.874  16.869  1.00  0.00     0.185 C 
HETATM    7  N3  UNL     1      19.258  39.699  16.520  1.00  0.00    -0.346 N 
ATOM      8  H3  UNL     1      19.540  39.282  15.633  1.00  0.00     0.163 HD
HETATM    9  C10 UNL     1      18.226  39.013  17.172  1.00  0.00     0.241 C 
HETATM   10  O3  UNL     1      17.163  38.801  16.541  1.00  0.00    -0.271 OA
HETATM   11  C11 UNL     1      18.224  38.476  18.572  1.00  0.00     0.177 C 
HETATM   12  N4  UNL     1      18.031  37.039  18.550  1.00  0.00    -0.346 N 
ATOM     13  H4  UNL     1      17.064  36.733  18.656  1.00  0.00     0.163 HD
HETATM   14  C16 UNL     1      18.955  36.014  18.407  1.00  0.00     0.241 C 
HETATM   15  O4  UNL     1      19.072  35.128  19.295  1.00  0.00    -0.271 OA
HETATM   16  C17 UNL     1      19.896  35.844  17.209  1.00  0.00     0.175 C 
HETATM   17  N6  UNL     1      20.996  34.992  17.600  1.00  0.00    -0.359 N 
ATOM     18  H6  UNL     1      20.752  34.316  18.324  1.00  0.00     0.162 HD
HETATM   19  C26 UNL     1      22.304  34.911  17.192  1.00  0.00     0.135 C 
HETATM   20  C27 UNL     1      23.347  35.957  16.882  1.00  0.00     0.161 C 
HETATM   21  N7  UNL     1      23.226  37.090  17.728  1.00  0.00    -0.360 N 
ATOM     22  H7  UNL     1      22.729  36.849  18.585  1.00  0.00     0.162 HD
HETATM   23  C31 UNL     1      23.589  38.434  17.730  1.00  0.00     0.135 C 
ENDROOT
BRANCH  16  24
HETATM   24  C18 UNL     1      19.108  35.033  16.159  1.00  0.00     0.036 C 
BRANCH  24  25
HETATM   25  C19 UNL     1      18.809  33.639  16.547  1.00  0.00     0.030 C 
BRANCH  25  26
HETATM   26  C20 UNL     1      18.547  32.758  15.373  1.00  0.00     0.237 C 
BRANCH  26  27
HETATM   27  N5  UNL     1      19.505  31.787  15.022  1.00  0.00    -0.071 N 
HETATM   28  C21 UNL     1      20.142  31.159  16.157  1.00  0.00     0.272 C 
HETATM   29  C22 UNL     1      20.546  32.256  14.140  1.00  0.00     0.237 C 
HETATM   30  C23 UNL     1      20.286  31.694  12.765  1.00  0.00     0.029 C 
HETATM   31  C24 UNL     1      19.686  30.345  13.124  1.00  0.00     0.029 C 
HETATM   32  C25 UNL     1      18.798  30.727  14.279  1.00  0.00     0.237 C 
ENDBRANCH  26  27
ENDBRANCH  25  26
ENDBRANCH  24  25
ENDBRANCH  16  24
BRANCH  19  33
HETATM   33  O5  UNL     1      22.772  33.704  17.034  1.00  0.00    -0.348 OA
ATOM     34  H5  UNL     1      23.672  33.647  16.735  1.00  0.00     0.219 HD
ENDBRANCH  19  33
BRANCH  11  35
HETATM   35  C12 UNL     1      17.060  39.103  19.308  1.00  0.00     0.038 C 
BRANCH  35  36
HETATM   36  C13 UNL     1      17.107  40.572  19.491  1.00  0.00    -0.020 C 
HETATM   37  C14 UNL     1      17.483  40.990  20.903  1.00  0.00     0.009 C 
HETATM   38  C15 UNL     1      15.938  41.375  19.053  1.00  0.00     0.009 C 
ENDBRANCH  35  36
ENDBRANCH  11  35
BRANCH  20  39
HETATM   39  C28 UNL     1      23.496  36.116  15.418  1.00  0.00     0.008 C 
HETATM   40  C29 UNL     1      23.638  34.807  14.716  1.00  0.00     0.012 C 
HETATM   41  C30 UNL     1      22.216  36.755  14.886  1.00  0.00     0.012 C 
ENDBRANCH  20  39
BRANCH  23  42
HETATM   42  O6  UNL     1      24.597  38.755  18.487  1.00  0.00    -0.348 OA
ATOM     43  H6  UNL     1      24.314  38.990  19.363  1.00  0.00     0.219 HD
ENDBRANCH  23  42
BRANCH   6  44
HETATM   44  C8  UNL     1      18.960  42.007  17.104  1.00  0.00     0.134 C 
BRANCH  44  45
HETATM   45  C9  UNL     1      19.404  43.310  16.626  1.00  0.00     0.233 C 
HETATM   46  N2  UNL     1      18.524  44.455  16.562  1.00  0.00    -0.062 NA
HETATM   47  O2  UNL     1      20.572  43.530  16.240  1.00  0.00    -0.277 OA
ENDBRANCH  44  45
ENDBRANCH   6  44
BRANCH   1  48
HETATM   48  C3  UNL     1      24.109  40.545  16.537  1.00  0.00     0.012 C 
HETATM   49  C4  UNL     1      24.547  41.636  17.428  1.00  0.00     0.012 C 
BRANCH  48  50
HETATM   50  C2  UNL     1      23.700  41.192  15.204  1.00  0.00     0.002 C 
HETATM   51  C1  UNL     1      22.660  40.334  14.545  1.00  0.00     0.005 C 
ENDBRANCH  48  50
ENDBRANCH   1  48
TORSDOF 13
ENDMDL
MODEL 4
REMARK VINA RESULT: -6.641447188      0.899      1.196
REMARK  13 active torsions:
REMARK  status: ('A' for Active; 'I' for Inactive)
REMARK    1  A    between atoms: C2_2  and  C3_3 
REMARK    2  A    between atoms: C3_3  and  C5_5 
REMARK    3  A    between atoms: C7_10  and  C8_11 
REMARK    4  A    between atoms: C8_11  and  C9_12 
REMARK    5  A    between atoms: C11_19  and  C12_20 
REMARK    6  A    between atoms: C12_20  and  C13_21 
REMARK    7  A    between atoms: C17_28  and  C18_29 
REMARK    8  A    between atoms: C18_29  and  C19_30 
REMARK    9  A    between atoms: C19_30  and  C20_31 
REMARK   10  A    between atoms: C20_31  and  N5_32 
REMARK   11  A    between atoms: C26_40  and  O5_41 
REMARK   12  A    between atoms: C27_43  and  C28_44 
REMARK   13  A    between atoms: C31_49  and  O6_50 
ROOT
HETATM    1  C5  UNL     1      21.773  36.321  17.088  1.00  0.00     0.162 C 
HETATM    2  N1  UNL     1      22.665  37.306  17.712  1.00  0.00    -0.347 N 
ATOM      3  H1  UNL     1      23.215  36.967  18.501  1.00  0.00     0.163 HD
HETATM    4  C6  UNL     1      22.861  38.642  17.369  1.00  0.00     0.241 C 
HETATM    5  O1  UNL     1      23.488  39.314  18.281  1.00  0.00    -0.271 OA
HETATM    6  C7  UNL     1      22.502  39.423  16.201  1.00  0.00     0.185 C 
HETATM    7  N3  UNL     1      21.187  39.965  16.122  1.00  0.00    -0.346 N 
ATOM      8  H3  UNL     1      20.588  39.508  15.436  1.00  0.00     0.163 HD
HETATM    9  C10 UNL     1      20.568  41.012  16.815  1.00  0.00     0.241 C 
HETATM   10  O3  UNL     1      20.045  41.937  16.149  1.00  0.00    -0.271 OA
HETATM   11  C11 UNL     1      20.439  41.179  18.300  1.00  0.00     0.177 C 
HETATM   12  N4  UNL     1      19.038  41.221  18.673  1.00  0.00    -0.346 N 
ATOM     13  H4  UNL     1      18.641  42.157  18.745  1.00  0.00     0.163 HD
HETATM   14  C16 UNL     1      18.153  40.188  18.946  1.00  0.00     0.241 C 
HETATM   15  O4  UNL     1      17.569  40.123  20.061  1.00  0.00    -0.271 OA
HETATM   16  C17 UNL     1      17.796  39.059  17.972  1.00  0.00     0.175 C 
HETATM   17  N6  UNL     1      17.247  37.954  18.724  1.00  0.00    -0.359 N 
ATOM     18  H6  UNL     1      16.767  38.240  19.578  1.00  0.00     0.162 HD
HETATM   19  C26 UNL     1      17.241  36.597  18.519  1.00  0.00     0.135 C 
HETATM   20  C27 UNL     1      18.298  35.629  18.046  1.00  0.00     0.161 C 
HETATM   21  N7  UNL     1      19.591  35.992  18.506  1.00  0.00    -0.360 N 
ATOM     22  H7  UNL     1      19.526  36.591  19.330  1.00  0.00     0.162 HD
HETATM   23  C31 UNL     1      20.921  35.771  18.162  1.00  0.00     0.135 C 
ENDROOT
BRANCH  16  24
HETATM   24  C18 UNL     1      16.627  39.589  17.116  1.00  0.00     0.036 C 
BRANCH  24  25
HETATM   25  C19 UNL     1      15.588  40.322  17.868  1.00  0.00     0.030 C 
BRANCH  25  26
HETATM   26  C20 UNL     1      15.347  41.693  17.332  1.00  0.00     0.237 C 
BRANCH  26  27
HETATM   27  N5  UNL     1      15.088  42.742  18.235  1.00  0.00    -0.071 N 
HETATM   28  C21 UNL     1      14.778  42.297  19.574  1.00  0.00     0.272 C 
HETATM   29  C22 UNL     1      14.046  43.651  17.824  1.00  0.00     0.237 C 
HETATM   30  C23 UNL     1      14.694  44.937  17.376  1.00  0.00     0.029 C 
HETATM   31  C24 UNL     1      15.882  44.996  18.322  1.00  0.00     0.029 C 
HETATM   32  C25 UNL     1      16.317  43.554  18.321  1.00  0.00     0.237 C 
ENDBRANCH  26  27
ENDBRANCH  25  26
ENDBRANCH  24  25
ENDBRANCH  16  24
BRANCH  19  33
HETATM   33  O5  UNL     1      16.115  35.992  18.775  1.00  0.00    -0.348 OA
ATOM     34  H5  UNL     1      15.913  35.246  18.222  1.00  0.00     0.219 HD
ENDBRANCH  19  33
BRANCH  11  35
HETATM   35  C12 UNL     1      21.073  42.499  18.676  1.00  0.00     0.038 C 
BRANCH  35  36
HETATM   36  C13 UNL     1      22.089  42.463  19.753  1.00  0.00    -0.020 C 
HETATM   37  C14 UNL     1      23.517  42.515  19.235  1.00  0.00     0.009 C 
HETATM   38  C15 UNL     1      21.994  41.393  20.777  1.00  0.00     0.009 C 
ENDBRANCH  35  36
ENDBRANCH  11  35
BRANCH  20  39
HETATM   39  C28 UNL     1      18.071  35.270  16.629  1.00  0.00     0.008 C 
HETATM   40  C29 UNL     1      18.103  33.795  16.404  1.00  0.00     0.012 C 
HETATM   41  C30 UNL     1      16.667  35.734  16.250  1.00  0.00     0.012 C 
ENDBRANCH  20  39
BRANCH  23  42
HETATM   42  O6  UNL     1      21.575  34.931  18.909  1.00  0.00    -0.348 OA
ATOM     43  H6  UNL     1      22.434  35.265  19.142  1.00  0.00     0.219 HD
ENDBRANCH  23  42
BRANCH   6  44
HETATM   44  C8  UNL     1      23.501  40.580  15.971  1.00  0.00     0.134 C 
BRANCH  44  45
HETATM   45  C9  UNL     1      23.465  41.130  14.622  1.00  0.00     0.233 C 
HETATM   46  N2  UNL     1      24.475  42.036  14.125  1.00  0.00    -0.062 NA
HETATM   47  O2  UNL     1      22.561  40.859  13.802  1.00  0.00    -0.277 OA
ENDBRANCH  44  45
ENDBRANCH   6  44
BRANCH   1  48
HETATM   48  C3  UNL     1      22.677  35.285  16.480  1.00  0.00     0.012 C 
HETATM   49  C4  UNL     1      23.318  35.590  15.187  1.00  0.00     0.012 C 
BRANCH  48  50
HETATM   50  C2  UNL     1      21.937  33.949  16.309  1.00  0.00     0.002 C 
HETATM   51  C1  UNL     1      21.534  33.795  14.871  1.00  0.00     0.005 C 
ENDBRANCH  48  50
ENDBRANCH   1  48
TORSDOF 13
ENDMDL
MODEL 5
REMARK VINA RESULT: -6.332151236     12.936     18.903
REMARK  13 active torsions:
REMARK  status: ('A' for Active; 'I' for Inactive)
REMARK    1  A    between atoms: C2_2  and  C3_3 
REMARK    2  A    between atoms: C3_3  and  C5_5 
REMARK    3  A    between atoms: C7_10  and  C8_11 
REMARK    4  A    between atoms: C8_11  and  C9_12 
REMARK    5  A    between atoms: C11_19  and  C12_20 
REMARK    6  A    between atoms: C12_20  and  C13_21 
REMARK    7  A    between atoms: C17_28  and  C18_29 
REMARK    8  A    between atoms: C18_29  and  C19_30 
REMARK    9  A    between atoms: C19_30  and  C20_31 
REMARK   10  A    between atoms: C20_31  and  N5_32 
REMARK   11  A    between atoms: C26_40  and  O5_41 
REMARK   12  A    between atoms: C27_43  and  C28_44 
REMARK   13  A    between atoms: C31_49  and  O6_50 
ROOT
HETATM    1  C5  UNL     1      19.387  26.654  10.161  1.00  0.00     0.162 C 
HETATM    2  N1  UNL     1      18.478  25.709   9.500  1.00  0.00    -0.347 N 
ATOM      3  H1  UNL     1      17.979  25.069  10.118  1.00  0.00     0.163 HD
HETATM    4  C6  UNL     1      18.206  25.570   8.141  1.00  0.00     0.241 C 
HETATM    5  O1  UNL     1      17.589  24.468   7.855  1.00  0.00    -0.271 OA
HETATM    6  C7  UNL     1      18.478  26.410   6.990  1.00  0.00     0.185 C 
HETATM    7  N3  UNL     1      19.762  26.332   6.378  1.00  0.00    -0.346 N 
ATOM      8  H3  UNL     1      20.352  27.148   6.539  1.00  0.00     0.163 HD
HETATM    9  C10 UNL     1      20.361  25.339   5.594  1.00  0.00     0.241 C 
HETATM   10  O3  UNL     1      20.812  25.663   4.470  1.00  0.00    -0.271 OA
HETATM   11  C11 UNL     1      20.547  23.891   5.934  1.00  0.00     0.177 C 
HETATM   12  N4  UNL     1      21.960  23.561   5.940  1.00  0.00    -0.346 N 
ATOM     13  H4  UNL     1      22.316  23.183   5.062  1.00  0.00     0.163 HD
HETATM   14  C16 UNL     1      22.902  23.678   6.951  1.00  0.00     0.241 C 
HETATM   15  O4  UNL     1      23.536  22.667   7.356  1.00  0.00    -0.271 OA
HETATM   16  C17 UNL     1      23.268  24.987   7.659  1.00  0.00     0.175 C 
HETATM   17  N6  UNL     1      23.900  24.672   8.920  1.00  0.00    -0.359 N 
ATOM     18  H6  UNL     1      24.402  23.784   8.914  1.00  0.00     0.162 HD
HETATM   19  C26 UNL     1      23.959  25.328  10.124  1.00  0.00     0.135 C 
HETATM   20  C27 UNL     1      22.928  26.076  10.934  1.00  0.00     0.161 C 
HETATM   21  N7  UNL     1      21.641  25.487  10.824  1.00  0.00    -0.360 N 
ATOM     22  H7  UNL     1      21.714  24.511  10.538  1.00  0.00     0.162 HD
HETATM   23  C31 UNL     1      20.309  25.853  10.993  1.00  0.00     0.135 C 
ENDROOT
BRANCH  16  24
HETATM   24  C18 UNL     1      24.373  25.641   6.803  1.00  0.00     0.036 C 
BRANCH  24  25
HETATM   25  C19 UNL     1      24.399  25.210   5.390  1.00  0.00     0.030 C 
BRANCH  25  26
HETATM   26  C20 UNL     1      25.653  24.487   5.031  1.00  0.00     0.237 C 
BRANCH  26  27
HETATM   27  N5  UNL     1      25.614  23.525   4.003  1.00  0.00    -0.071 N 
HETATM   28  C21 UNL     1      26.774  23.543   3.143  1.00  0.00     0.272 C 
HETATM   29  C22 UNL     1      24.443  23.586   3.161  1.00  0.00     0.237 C 
HETATM   30  C23 UNL     1      23.544  22.430   3.520  1.00  0.00     0.029 C 
HETATM   31  C24 UNL     1      24.577  21.374   3.877  1.00  0.00     0.029 C 
HETATM   32  C25 UNL     1      25.573  22.200   4.649  1.00  0.00     0.237 C 
ENDBRANCH  26  27
ENDBRANCH  25  26
ENDBRANCH  24  25
ENDBRANCH  16  24
BRANCH  19  33
HETATM   33  O5  UNL     1      25.122  25.321  10.714  1.00  0.00    -0.348 OA
ATOM     34  H5  UNL     1      25.334  24.531  11.197  1.00  0.00     0.219 HD
ENDBRANCH  19  33
BRANCH  11  35
HETATM   35  C12 UNL     1      19.869  23.071   4.859  1.00  0.00     0.038 C 
BRANCH  35  36
HETATM   36  C13 UNL     1      18.424  22.802   5.042  1.00  0.00    -0.020 C 
HETATM   37  C14 UNL     1      18.141  21.465   5.707  1.00  0.00     0.009 C 
HETATM   38  C15 UNL     1      17.524  22.952   3.872  1.00  0.00     0.009 C 
ENDBRANCH  35  36
ENDBRANCH  11  35
BRANCH  20  39
HETATM   39  C28 UNL     1      23.110  27.536  10.777  1.00  0.00     0.008 C 
HETATM   40  C29 UNL     1      23.224  28.239  12.088  1.00  0.00     0.012 C 
HETATM   41  C30 UNL     1      24.432  27.764  10.048  1.00  0.00     0.012 C 
ENDBRANCH  20  39
BRANCH  23  42
HETATM   42  O6  UNL     1      19.727  25.421  12.073  1.00  0.00    -0.348 OA
ATOM     43  H6  UNL     1      20.348  25.309  12.783  1.00  0.00     0.219 HD
ENDBRANCH  23  42
BRANCH   6  44
HETATM   44  C8  UNL     1      17.417  26.207   5.884  1.00  0.00     0.134 C 
BRANCH  44  45
HETATM   45  C9  UNL     1      17.550  27.130   4.764  1.00  0.00     0.233 C 
HETATM   46  N2  UNL     1      17.393  26.711   3.390  1.00  0.00    -0.062 NA
HETATM   47  O2  UNL     1      17.809  28.344   4.911  1.00  0.00    -0.277 OA
ENDBRANCH  44  45
ENDBRANCH   6  44
BRANCH   1  48
HETATM   48  C3  UNL     1      18.506  27.555  10.980  1.00  0.00     0.012 C 
HETATM   49  C4  UNL     1      17.416  28.275  10.296  1.00  0.00     0.012 C 
BRANCH  48  50
HETATM   50  C2  UNL     1      19.344  28.610  11.721  1.00  0.00     0.002 C 
HETATM   51  C1  UNL     1      18.529  29.179  12.845  1.00  0.00     0.005 C 
ENDBRANCH  48  50
ENDBRANCH   1  48
TORSDOF 13
ENDMDL
