MODEL 1
REMARK VINA RESULT: -8.588822275      0.000      0.000
REMARK  13 active torsions:
REMARK  status: ('A' for Active; 'I' for Inactive)
REMARK    1  A    between atoms: C2_2  and  C3_3 
REMARK    2  A    between atoms: C4_6  and  C5_7 
REMARK    3  A    between atoms: C5_7  and  C6_8 
REMARK    4  A    between atoms: C8_12  and  C9_13 
REMARK       I    between atoms: C9_13  and  N3_15 
REMARK    5  A    between atoms: C16_26  and  C17_27 
REMARK    6  A    between atoms: C21_32  and  C22_33 
REMARK    7  A    between atoms: C23_34  and  C24_35 
REMARK    8  A    between atoms: C23_34  and  C26_37 
REMARK       I    between atoms: C26_37  and  N7_39 
REMARK    9  A    between atoms: N7_39  and  C27_41 
REMARK   10  A    between atoms: C27_41  and  C28_42 
REMARK   11  A    between atoms: C28_42  and  C29_43 
REMARK   12  A    between atoms: C29_43  and  C30_44 
REMARK   13  A    between atoms: C30_44  and  N8_45 
ROOT
HETATM    1  C17 UNL     1      26.601  27.147  11.276  1.00  0.00     0.163 C 
HETATM    2  C18 UNL     1      26.026  28.191  12.125  1.00  0.00     0.063 C 
HETATM    3  N6  UNL     1      25.566  29.016  12.819  1.00  0.00    -0.197 NA
ENDROOT
BRANCH   1   4
HETATM    4  C16 UNL     1      25.476  26.586  10.445  1.00  0.00    -0.027 A 
HETATM    5  C15 UNL     1      25.599  26.140   9.149  1.00  0.00     0.106 A 
HETATM    6  N5  UNL     1      24.401  25.711   8.724  1.00  0.00    -0.313 N 
HETATM    7  C14 UNL     1      23.920  25.182   7.580  1.00  0.00     0.136 A 
HETATM    8  C20 UNL     1      23.454  25.884   9.794  1.00  0.00     0.066 A 
HETATM    9  C7  UNL     1      22.584  24.817   7.417  1.00  0.00     0.083 A 
HETATM   10  C13 UNL     1      24.754  24.981   6.505  1.00  0.00     0.275 A 
HETATM   11  N2  UNL     1      21.731  24.994   8.436  1.00  0.00    -0.351 N 
HETATM   12  C8  UNL     1      22.170  24.281   6.210  1.00  0.00     0.076 A 
HETATM   13  C6  UNL     1      22.123  25.512   9.607  1.00  0.00     0.062 A 
ATOM     14  H2  UNL     1      20.755  24.727   8.316  1.00  0.00     0.166 HD
HETATM   15  C12 UNL     1      23.039  24.098   5.164  1.00  0.00     0.111 A 
HETATM   16  N4  UNL     1      24.316  24.449   5.325  1.00  0.00    -0.331 N 
ATOM     17  H4  UNL     1      24.974  24.319   4.556  1.00  0.00     0.168 HD
HETATM   18  O2  UNL     1      25.968  25.298   6.613  1.00  0.00    -0.266 OA
HETATM   19  C19 UNL     1      24.165  26.426  10.829  1.00  0.00     0.041 A 
BRANCH  13  20
HETATM   20  C5  UNL     1      21.181  25.689  10.675  1.00  0.00     0.062 C 
BRANCH  20  21
HETATM   21  C4  UNL     1      19.965  26.201  10.453  1.00  0.00     0.045 A 
HETATM   22  N1  UNL     1      19.012  25.703   9.692  1.00  0.00    -0.355 N 
HETATM   23  C3  UNL     1      17.922  26.484   9.704  1.00  0.00     0.035 A 
ATOM     24  H1  UNL     1      19.092  24.835   9.162  1.00  0.00     0.166 HD
HETATM   25  C32 UNL     1      18.221  27.562  10.546  1.00  0.00    -0.023 A 
HETATM   26  C21 UNL     1      19.497  27.395  11.022  1.00  0.00    -0.001 A 
HETATM   27  C33 UNL     1      17.267  28.694  10.799  1.00  0.00     0.051 C 
BRANCH  23  28
HETATM   28  C2  UNL     1      16.771  26.294   9.055  1.00  0.00    -0.001 C 
HETATM   29  C1  UNL     1      16.458  25.005   8.435  1.00  0.00     0.038 C 
ENDBRANCH  23  28
BRANCH  26  30
HETATM   30  C22 UNL     1      20.311  28.236  11.878  1.00  0.00     0.027 C 
HETATM   31  C23 UNL     1      20.139  28.625  13.089  1.00  0.00     0.010 C 
BRANCH  31  32
HETATM   32  C24 UNL     1      18.973  28.252  13.910  1.00  0.00     0.040 C 
HETATM   33  C25 UNL     1      18.013  29.368  14.173  1.00  0.00     0.010 C 
ENDBRANCH  31  32
BRANCH  31  34
HETATM   34  C26 UNL     1      21.146  29.481  13.713  1.00  0.00     0.247 C 
HETATM   35  O3  UNL     1      22.330  29.015  13.833  1.00  0.00    -0.268 OA
HETATM   36  N7  UNL     1      20.916  30.781  14.198  1.00  0.00    -0.357 N 
ATOM     37  H7  UNL     1      19.987  31.197  14.129  1.00  0.00     0.162 HD
BRANCH  36  38
HETATM   38  C27 UNL     1      22.006  31.531  14.796  1.00  0.00     0.123 C 
BRANCH  38  39
HETATM   39  C28 UNL     1      21.569  32.272  16.023  1.00  0.00     0.021 C 
BRANCH  39  40
HETATM   40  C29 UNL     1      20.141  31.969  16.377  1.00  0.00     0.021 C 
BRANCH  40  41
HETATM   41  C30 UNL     1      19.342  33.252  16.551  1.00  0.00     0.122 C 
BRANCH  41  42
HETATM   42  N8  UNL     1      19.998  34.180  17.421  1.00  0.00    -0.367 N 
HETATM   43  C31 UNL     1      19.426  35.087  18.132  1.00  0.00     0.196 C 
HETATM   44  N9  UNL     1      20.317  35.897  18.928  1.00  0.00    -0.067 NA
HETATM   45  N10 UNL     1      18.023  35.317  18.167  1.00  0.00    -0.067 NA
ATOM     46  H8  UNL     1      21.014  34.116  17.483  1.00  0.00     0.161 HD
ENDBRANCH  41  42
ENDBRANCH  40  41
ENDBRANCH  39  40
ENDBRANCH  38  39
ENDBRANCH  36  38
ENDBRANCH  31  34
ENDBRANCH  26  30
ENDBRANCH  20  21
ENDBRANCH  13  20
BRANCH  12  47
HETATM   47  C9  UNL     1      20.776  23.914   6.079  1.00  0.00     0.256 C 
HETATM   48  O1  UNL     1      20.363  22.763   6.437  1.00  0.00    -0.267 OA
HETATM   49  N3  UNL     1      19.864  24.856   5.543  1.00  0.00    -0.357 N 
HETATM   50  C10 UNL     1      20.303  26.157   5.134  1.00  0.00     0.152 C 
HETATM   51  C11 UNL     1      18.463  24.514   5.401  1.00  0.00     0.152 C 
ENDBRANCH  12  47
ENDBRANCH   1   4
TORSDOF 13
ENDMDL
MODEL 2
REMARK VINA RESULT: -8.568849474      1.881      5.265
REMARK  13 active torsions:
REMARK  status: ('A' for Active; 'I' for Inactive)
REMARK    1  A    between atoms: C2_2  and  C3_3 
REMARK    2  A    between atoms: C4_6  and  C5_7 
REMARK    3  A    between atoms: C5_7  and  C6_8 
REMARK    4  A    between atoms: C8_12  and  C9_13 
REMARK       I    between atoms: C9_13  and  N3_15 
REMARK    5  A    between atoms: C16_26  and  C17_27 
REMARK    6  A    between atoms: C21_32  and  C22_33 
REMARK    7  A    between atoms: C23_34  and  C24_35 
REMARK    8  A    between atoms: C23_34  and  C26_37 
REMARK       I    between atoms: C26_37  and  N7_39 
REMARK    9  A    between atoms: N7_39  and  C27_41 
REMARK   10  A    between atoms: C27_41  and  C28_42 
REMARK   11  A    between atoms: C28_42  and  C29_43 
REMARK   12  A    between atoms: C29_43  and  C30_44 
REMARK   13  A    between atoms: C30_44  and  N8_45 
ROOT
HETATM    1  C17 UNL     1      17.108  27.902  11.060  1.00  0.00     0.163 C 
HETATM    2  C18 UNL     1      17.364  27.885  12.500  1.00  0.00     0.063 C 
HETATM    3  N6  UNL     1      17.574  27.888  13.654  1.00  0.00    -0.197 NA
ENDROOT
BRANCH   1   4
HETATM    4  C16 UNL     1      18.283  27.230  10.396  1.00  0.00    -0.027 A 
HETATM    5  C15 UNL     1      18.317  26.818   9.083  1.00  0.00     0.106 A 
HETATM    6  N5  UNL     1      19.514  26.263   8.836  1.00  0.00    -0.313 N 
HETATM    7  C14 UNL     1      20.109  25.701   7.764  1.00  0.00     0.136 A 
HETATM    8  C20 UNL     1      20.295  26.318  10.044  1.00  0.00     0.066 A 
HETATM    9  C7  UNL     1      21.407  25.191   7.799  1.00  0.00     0.083 A 
HETATM   10  C13 UNL     1      19.437  25.606   6.568  1.00  0.00     0.275 A 
HETATM   11  N2  UNL     1      22.103  25.259   8.942  1.00  0.00    -0.351 N 
HETATM   12  C8  UNL     1      21.944  24.629   6.654  1.00  0.00     0.076 A 
HETATM   13  C6  UNL     1      21.590  25.801  10.054  1.00  0.00     0.062 A 
ATOM     14  H2  UNL     1      23.051  24.886   8.966  1.00  0.00     0.166 HD
HETATM   15  C12 UNL     1      21.236  24.557   5.482  1.00  0.00     0.111 A 
HETATM   16  N4  UNL     1      19.995  25.045   5.454  1.00  0.00    -0.331 N 
ATOM     17  H4  UNL     1      19.455  24.999   4.589  1.00  0.00     0.168 HD
HETATM   18  O2  UNL     1      18.263  26.056   6.497  1.00  0.00    -0.266 OA
HETATM   19  C19 UNL     1      19.493  26.920  10.972  1.00  0.00     0.041 A 
BRANCH  13  20
HETATM   20  C5  UNL     1      22.365  25.854  11.260  1.00  0.00     0.062 C 
BRANCH  20  21
HETATM   21  C4  UNL     1      23.458  26.620  11.353  1.00  0.00     0.045 A 
HETATM   22  N1  UNL     1      24.714  26.247  11.213  1.00  0.00    -0.355 N 
HETATM   23  C3  UNL     1      25.550  27.283  11.372  1.00  0.00     0.035 A 
ATOM     24  H1  UNL     1      25.012  25.292  11.011  1.00  0.00     0.166 HD
HETATM   25  C32 UNL     1      24.746  28.399  11.632  1.00  0.00    -0.023 A 
HETATM   26  C21 UNL     1      23.434  27.997  11.621  1.00  0.00    -0.001 A 
HETATM   27  C33 UNL     1      25.305  29.766  11.910  1.00  0.00     0.051 C 
BRANCH  23  28
HETATM   28  C2  UNL     1      26.883  27.279  11.300  1.00  0.00    -0.001 C 
HETATM   29  C1  UNL     1      27.569  27.130  10.015  1.00  0.00     0.038 C 
ENDBRANCH  23  28
BRANCH  26  30
HETATM   30  C22 UNL     1      22.211  28.732  11.882  1.00  0.00     0.027 C 
HETATM   31  C23 UNL     1      21.735  29.221  12.969  1.00  0.00     0.010 C 
BRANCH  31  32
HETATM   32  C24 UNL     1      22.408  29.117  14.276  1.00  0.00     0.040 C 
HETATM   33  C25 UNL     1      23.069  30.377  14.737  1.00  0.00     0.010 C 
ENDBRANCH  31  32
BRANCH  31  34
HETATM   34  C26 UNL     1      20.459  29.931  12.932  1.00  0.00     0.247 C 
HETATM   35  O3  UNL     1      19.944  30.171  11.787  1.00  0.00    -0.268 OA
HETATM   36  N7  UNL     1      19.747  30.377  14.061  1.00  0.00    -0.357 N 
ATOM     37  H7  UNL     1      20.116  30.213  14.997  1.00  0.00     0.162 HD
BRANCH  36  38
HETATM   38  C27 UNL     1      18.483  31.071  13.888  1.00  0.00     0.123 C 
BRANCH  38  39
HETATM   39  C28 UNL     1      17.822  31.364  15.201  1.00  0.00     0.021 C 
BRANCH  39  40
HETATM   40  C29 UNL     1      17.203  32.732  15.219  1.00  0.00     0.021 C 
BRANCH  40  41
HETATM   41  C30 UNL     1      18.116  33.749  14.550  1.00  0.00     0.122 C 
BRANCH  41  42
HETATM   42  N8  UNL     1      19.070  34.299  15.465  1.00  0.00    -0.367 N 
HETATM   43  C31 UNL     1      20.345  34.139  15.418  1.00  0.00     0.196 C 
HETATM   44  N9  UNL     1      21.087  34.801  16.462  1.00  0.00    -0.067 NA
HETATM   45  N10 UNL     1      21.024  33.374  14.429  1.00  0.00    -0.067 NA
ATOM     46  H8  UNL     1      18.704  34.871  16.225  1.00  0.00     0.161 HD
ENDBRANCH  41  42
ENDBRANCH  40  41
ENDBRANCH  39  40
ENDBRANCH  38  39
ENDBRANCH  36  38
ENDBRANCH  31  34
ENDBRANCH  26  30
ENDBRANCH  20  21
ENDBRANCH  13  20
BRANCH  12  47
HETATM   47  C9  UNL     1      23.295  24.111   6.729  1.00  0.00     0.256 C 
HETATM   48  O1  UNL     1      24.297  24.895   6.803  1.00  0.00    -0.267 OA
HETATM   49  N3  UNL     1      23.494  22.708   6.718  1.00  0.00    -0.357 N 
HETATM   50  C10 UNL     1      22.385  21.806   6.636  1.00  0.00     0.152 C 
HETATM   51  C11 UNL     1      24.835  22.164   6.792  1.00  0.00     0.152 C 
ENDBRANCH  12  47
ENDBRANCH   1   4
TORSDOF 13
ENDMDL
MODEL 3
REMARK VINA RESULT: -8.181371660      8.196     14.691
REMARK  13 active torsions:
REMARK  status: ('A' for Active; 'I' for Inactive)
REMARK    1  A    between atoms: C2_2  and  C3_3 
REMARK    2  A    between atoms: C4_6  and  C5_7 
REMARK    3  A    between atoms: C5_7  and  C6_8 
REMARK    4  A    between atoms: C8_12  and  C9_13 
REMARK       I    between atoms: C9_13  and  N3_15 
REMARK    5  A    between atoms: C16_26  and  C17_27 
REMARK    6  A    between atoms: C21_32  and  C22_33 
REMARK    7  A    between atoms: C23_34  and  C24_35 
REMARK    8  A    between atoms: C23_34  and  C26_37 
REMARK       I    between atoms: C26_37  and  N7_39 
REMARK    9  A    between atoms: N7_39  and  C27_41 
REMARK   10  A    between atoms: C27_41  and  C28_42 
REMARK   11  A    between atoms: C28_42  and  C29_43 
REMARK   12  A    between atoms: C29_43  and  C30_44 
REMARK   13  A    between atoms: C30_44  and  N8_45 
ROOT
HETATM    1  C17 UNL     1      20.954  32.194  15.413  1.00  0.00     0.163 C 
HETATM    2  C18 UNL     1      20.607  32.185  13.991  1.00  0.00     0.063 C 
HETATM    3  N6  UNL     1      20.346  32.179  12.848  1.00  0.00    -0.197 NA
ENDROOT
BRANCH   1   4
HETATM    4  C16 UNL     1      20.616  33.565  15.939  1.00  0.00    -0.027 A 
HETATM    5  C15 UNL     1      19.429  33.906  16.547  1.00  0.00     0.106 A 
HETATM    6  N5  UNL     1      19.475  35.204  16.887  1.00  0.00    -0.313 N 
HETATM    7  C14 UNL     1      18.635  36.069  17.491  1.00  0.00     0.136 A 
HETATM    8  C20 UNL     1      20.752  35.731  16.482  1.00  0.00     0.066 A 
HETATM    9  C7  UNL     1      18.961  37.405  17.721  1.00  0.00     0.083 A 
HETATM   10  C13 UNL     1      17.395  35.651  17.911  1.00  0.00     0.275 A 
HETATM   11  N2  UNL     1      20.159  37.860  17.329  1.00  0.00    -0.351 N 
HETATM   12  C8  UNL     1      18.042  38.228  18.347  1.00  0.00     0.076 A 
HETATM   13  C6  UNL     1      21.055  37.071  16.723  1.00  0.00     0.062 A 
ATOM     14  H2  UNL     1      20.396  38.838  17.498  1.00  0.00     0.166 HD
HETATM   15  C12 UNL     1      16.814  37.767  18.750  1.00  0.00     0.111 A 
HETATM   16  N4  UNL     1      16.507  36.488  18.528  1.00  0.00    -0.331 N 
ATOM     17  H4  UNL     1      15.598  36.130  18.821  1.00  0.00     0.168 HD
HETATM   18  O2  UNL     1      17.064  34.451  17.722  1.00  0.00    -0.266 OA
HETATM   19  C19 UNL     1      21.415  34.684  15.905  1.00  0.00     0.041 A 
BRANCH  13  20
HETATM   20  C5  UNL     1      22.327  37.594  16.315  1.00  0.00     0.062 C 
BRANCH  20  21
HETATM   21  C4  UNL     1      22.416  38.639  15.484  1.00  0.00     0.045 A 
HETATM   22  N1  UNL     1      22.053  38.691  14.219  1.00  0.00    -0.355 N 
HETATM   23  C3  UNL     1      22.288  39.903  13.695  1.00  0.00     0.035 A 
ATOM     24  H1  UNL     1      21.645  37.910  13.704  1.00  0.00     0.166 HD
HETATM   25  C32 UNL     1      22.845  40.673  14.722  1.00  0.00    -0.023 A 
HETATM   26  C21 UNL     1      22.929  39.893  15.848  1.00  0.00    -0.001 A 
HETATM   27  C33 UNL     1      23.291  42.095  14.532  1.00  0.00     0.051 C 
BRANCH  23  28
HETATM   28  C2  UNL     1      22.046  40.317  12.449  1.00  0.00    -0.001 C 
HETATM   29  C1  UNL     1      23.104  40.320  11.437  1.00  0.00     0.038 C 
ENDBRANCH  23  28
BRANCH  26  30
HETATM   30  C22 UNL     1      23.471  40.175  17.164  1.00  0.00     0.027 C 
HETATM   31  C23 UNL     1      23.044  40.932  18.108  1.00  0.00     0.010 C 
BRANCH  31  32
HETATM   32  C24 UNL     1      21.805  41.727  18.023  1.00  0.00     0.040 C 
HETATM   33  C25 UNL     1      22.018  43.201  17.896  1.00  0.00     0.010 C 
ENDBRANCH  31  32
BRANCH  31  34
HETATM   34  C26 UNL     1      23.807  41.021  19.351  1.00  0.00     0.247 C 
HETATM   35  O3  UNL     1      23.158  40.984  20.452  1.00  0.00    -0.268 OA
HETATM   36  N7  UNL     1      25.206  41.148  19.436  1.00  0.00    -0.357 N 
ATOM     37  H7  UNL     1      25.769  41.185  18.586  1.00  0.00     0.162 HD
BRANCH  36  38
HETATM   38  C27 UNL     1      25.845  41.224  20.737  1.00  0.00     0.123 C 
BRANCH  38  39
HETATM   39  C28 UNL     1      26.798  40.088  20.959  1.00  0.00     0.021 C 
BRANCH  39  40
HETATM   40  C29 UNL     1      27.283  39.506  19.663  1.00  0.00     0.021 C 
BRANCH  40  41
HETATM   41  C30 UNL     1      28.686  39.996  19.340  1.00  0.00     0.122 C 
BRANCH  41  42
HETATM   42  N8  UNL     1      29.570  38.919  19.011  1.00  0.00    -0.367 N 
HETATM   43  C31 UNL     1      30.316  38.271  19.835  1.00  0.00     0.196 C 
HETATM   44  N9  UNL     1      31.118  37.226  19.247  1.00  0.00    -0.067 NA
HETATM   45  N10 UNL     1      30.384  38.529  21.233  1.00  0.00    -0.067 NA
ATOM     46  H8  UNL     1      29.612  38.639  18.032  1.00  0.00     0.161 HD
ENDBRANCH  41  42
ENDBRANCH  40  41
ENDBRANCH  39  40
ENDBRANCH  38  39
ENDBRANCH  36  38
ENDBRANCH  31  34
ENDBRANCH  26  30
ENDBRANCH  20  21
ENDBRANCH  13  20
BRANCH  12  47
HETATM   47  C9  UNL     1      18.416  39.609  18.569  1.00  0.00     0.256 C 
HETATM   48  O1  UNL     1      19.376  39.913  19.351  1.00  0.00    -0.267 OA
HETATM   49  N3  UNL     1      17.698  40.632  17.902  1.00  0.00    -0.357 N 
HETATM   50  C10 UNL     1      16.615  40.317  17.018  1.00  0.00     0.152 C 
HETATM   51  C11 UNL     1      18.052  42.022  18.106  1.00  0.00     0.152 C 
ENDBRANCH  12  47
ENDBRANCH   1   4
TORSDOF 13
ENDMDL
MODEL 4
REMARK VINA RESULT: -7.981566147      5.193     14.746
REMARK  13 active torsions:
REMARK  status: ('A' for Active; 'I' for Inactive)
REMARK    1  A    between atoms: C2_2  and  C3_3 
REMARK    2  A    between atoms: C4_6  and  C5_7 
REMARK    3  A    between atoms: C5_7  and  C6_8 
REMARK    4  A    between atoms: C8_12  and  C9_13 
REMARK       I    between atoms: C9_13  and  N3_15 
REMARK    5  A    between atoms: C16_26  and  C17_27 
REMARK    6  A    between atoms: C21_32  and  C22_33 
REMARK    7  A    between atoms: C23_34  and  C24_35 
REMARK    8  A    between atoms: C23_34  and  C26_37 
REMARK       I    between atoms: C26_37  and  N7_39 
REMARK    9  A    between atoms: N7_39  and  C27_41 
REMARK   10  A    between atoms: C27_41  and  C28_42 
REMARK   11  A    between atoms: C28_42  and  C29_43 
REMARK   12  A    between atoms: C29_43  and  C30_44 
REMARK   13  A    between atoms: C30_44  and  N8_45 
ROOT
HETATM    1  C17 UNL     1      14.681  34.871  16.947  1.00  0.00     0.163 C 
HETATM    2  C18 UNL     1      15.359  33.725  16.341  1.00  0.00     0.063 C 
HETATM    3  N6  UNL     1      15.900  32.798  15.870  1.00  0.00    -0.197 NA
ENDROOT
BRANCH   1   4
HETATM    4  C16 UNL     1      15.745  35.881  17.291  1.00  0.00    -0.027 A 
HETATM    5  C15 UNL     1      15.531  37.234  17.437  1.00  0.00     0.106 A 
HETATM    6  N5  UNL     1      16.698  37.824  17.742  1.00  0.00    -0.313 N 
HETATM    7  C14 UNL     1      17.097  39.087  17.994  1.00  0.00     0.136 A 
HETATM    8  C20 UNL     1      17.717  36.809  17.797  1.00  0.00     0.066 A 
HETATM    9  C7  UNL     1      18.419  39.418  18.293  1.00  0.00     0.083 A 
HETATM   10  C13 UNL     1      16.191  40.120  17.962  1.00  0.00     0.275 A 
HETATM   11  N2  UNL     1      19.340  38.446  18.334  1.00  0.00    -0.351 N 
HETATM   12  C8  UNL     1      18.747  40.740  18.538  1.00  0.00     0.076 A 
HETATM   13  C6  UNL     1      19.031  37.165  18.098  1.00  0.00     0.062 A 
ATOM     14  H2  UNL     1      20.306  38.689  18.553  1.00  0.00     0.166 HD
HETATM   15  C12 UNL     1      17.807  41.739  18.496  1.00  0.00     0.111 A 
HETATM   16  N4  UNL     1      16.545  41.417  18.210  1.00  0.00    -0.331 N 
ATOM     17  H4  UNL     1      15.835  42.149  18.175  1.00  0.00     0.168 HD
HETATM   18  O2  UNL     1      14.987  39.862  17.697  1.00  0.00    -0.266 OA
HETATM   19  C19 UNL     1      17.080  35.633  17.512  1.00  0.00     0.041 A 
BRANCH  13  20
HETATM   20  C5  UNL     1      20.046  36.151  18.149  1.00  0.00     0.062 C 
BRANCH  20  21
HETATM   21  C4  UNL     1      21.188  36.274  17.465  1.00  0.00     0.045 A 
HETATM   22  N1  UNL     1      22.182  37.106  17.705  1.00  0.00    -0.355 N 
HETATM   23  C3  UNL     1      23.172  36.952  16.814  1.00  0.00     0.035 A 
ATOM     24  H1  UNL     1      22.196  37.780  18.471  1.00  0.00     0.166 HD
HETATM   25  C32 UNL     1      22.760  35.936  15.942  1.00  0.00    -0.023 A 
HETATM   26  C21 UNL     1      21.520  35.503  16.341  1.00  0.00    -0.001 A 
HETATM   27  C33 UNL     1      23.577  35.484  14.766  1.00  0.00     0.051 C 
BRANCH  23  28
HETATM   28  C2  UNL     1      24.326  37.618  16.749  1.00  0.00    -0.001 C 
HETATM   29  C1  UNL     1      24.602  38.740  17.649  1.00  0.00     0.038 C 
ENDBRANCH  23  28
BRANCH  26  30
HETATM   30  C22 UNL     1      20.626  34.517  15.765  1.00  0.00     0.027 C 
HETATM   31  C23 UNL     1      20.630  33.235  15.829  1.00  0.00     0.010 C 
BRANCH  31  32
HETATM   32  C24 UNL     1      21.638  32.456  16.571  1.00  0.00     0.040 C 
HETATM   33  C25 UNL     1      22.853  32.094  15.778  1.00  0.00     0.010 C 
ENDBRANCH  31  32
BRANCH  31  34
HETATM   34  C26 UNL     1      19.582  32.484  15.142  1.00  0.00     0.247 C 
HETATM   35  O3  UNL     1      18.847  33.115  14.307  1.00  0.00    -0.268 OA
HETATM   36  N7  UNL     1      19.311  31.116  15.326  1.00  0.00    -0.357 N 
ATOM     37  H7  UNL     1      19.867  30.568  15.983  1.00  0.00     0.162 HD
BRANCH  36  38
HETATM   38  C27 UNL     1      18.240  30.485  14.577  1.00  0.00     0.123 C 
BRANCH  38  39
HETATM   39  C28 UNL     1      18.764  29.548  13.531  1.00  0.00     0.021 C 
BRANCH  39  40
HETATM   40  C29 UNL     1      18.344  28.130  13.793  1.00  0.00     0.021 C 
BRANCH  40  41
HETATM   41  C30 UNL     1      18.012  27.414  12.493  1.00  0.00     0.122 C 
BRANCH  41  42
HETATM   42  N8  UNL     1      19.085  26.576  12.051  1.00  0.00    -0.367 N 
HETATM   43  C31 UNL     1      18.967  25.462  11.419  1.00  0.00     0.196 C 
HETATM   44  N9  UNL     1      20.209  24.809  11.087  1.00  0.00    -0.067 NA
HETATM   45  N10 UNL     1      17.725  24.873  11.052  1.00  0.00    -0.067 NA
ATOM     46  H8  UNL     1      20.033  26.892  12.257  1.00  0.00     0.161 HD
ENDBRANCH  41  42
ENDBRANCH  40  41
ENDBRANCH  39  40
ENDBRANCH  38  39
ENDBRANCH  36  38
ENDBRANCH  31  34
ENDBRANCH  26  30
ENDBRANCH  20  21
ENDBRANCH  13  20
BRANCH  12  47
HETATM   47  C9  UNL     1      20.129  41.044  18.845  1.00  0.00     0.256 C 
HETATM   48  O1  UNL     1      20.573  40.958  20.037  1.00  0.00    -0.267 OA
HETATM   49  N3  UNL     1      20.994  41.445  17.797  1.00  0.00    -0.357 N 
HETATM   50  C10 UNL     1      20.520  41.550  16.449  1.00  0.00     0.152 C 
HETATM   51  C11 UNL     1      22.382  41.755  18.077  1.00  0.00     0.152 C 
ENDBRANCH  12  47
ENDBRANCH   1   4
TORSDOF 13
ENDMDL
MODEL 5
REMARK VINA RESULT: -7.920525715      8.010     15.249
REMARK  13 active torsions:
REMARK  status: ('A' for Active; 'I' for Inactive)
REMARK    1  A    between atoms: C2_2  and  C3_3 
REMARK    2  A    between atoms: C4_6  and  C5_7 
REMARK    3  A    between atoms: C5_7  and  C6_8 
REMARK    4  A    between atoms: C8_12  and  C9_13 
REMARK       I    between atoms: C9_13  and  N3_15 
REMARK    5  A    between atoms: C16_26  and  C17_27 
REMARK    6  A    between atoms: C21_32  and  C22_33 
REMARK    7  A    between atoms: C23_34  and  C24_35 
REMARK    8  A    between atoms: C23_34  and  C26_37 
REMARK       I    between atoms: C26_37  and  N7_39 
REMARK    9  A    between atoms: N7_39  and  C27_41 
REMARK   10  A    between atoms: C27_41  and  C28_42 
REMARK   11  A    between atoms: C28_42  and  C29_43 
REMARK   12  A    between atoms: C29_43  and  C30_44 
REMARK   13  A    between atoms: C30_44  and  N8_45 
ROOT
HETATM    1  C17 UNL     1      22.410  34.901  17.231  1.00  0.00     0.163 C 
HETATM    2  C18 UNL     1      22.068  34.515  15.862  1.00  0.00     0.063 C 
HETATM    3  N6  UNL     1      21.810  34.202  14.762  1.00  0.00    -0.197 NA
ENDROOT
BRANCH   1   4
HETATM    4  C16 UNL     1      22.329  36.405  17.297  1.00  0.00    -0.027 A 
HETATM    5  C15 UNL     1      23.364  37.235  17.665  1.00  0.00     0.106 A 
HETATM    6  N5  UNL     1      22.938  38.506  17.611  1.00  0.00    -0.313 N 
HETATM    7  C14 UNL     1      23.487  39.714  17.852  1.00  0.00     0.136 A 
HETATM    8  C20 UNL     1      21.562  38.503  17.188  1.00  0.00     0.066 A 
HETATM    9  C7  UNL     1      22.782  40.909  17.708  1.00  0.00     0.083 A 
HETATM   10  C13 UNL     1      24.796  39.811  18.261  1.00  0.00     0.275 A 
HETATM   11  N2  UNL     1      21.502  40.867  17.312  1.00  0.00    -0.351 N 
HETATM   12  C8  UNL     1      23.419  42.108  17.976  1.00  0.00     0.076 A 
HETATM   13  C6  UNL     1      20.878  39.711  17.051  1.00  0.00     0.062 A 
ATOM     14  H2  UNL     1      20.988  41.741  17.207  1.00  0.00     0.166 HD
HETATM   15  C12 UNL     1      24.729  42.156  18.382  1.00  0.00     0.111 A 
HETATM   16  N4  UNL     1      25.399  41.011  18.518  1.00  0.00    -0.331 N 
ATOM     17  H4  UNL     1      26.374  41.031  18.819  1.00  0.00     0.168 HD
HETATM   18  O2  UNL     1      25.466  38.754  18.403  1.00  0.00    -0.266 OA
HETATM   19  C19 UNL     1      21.236  37.188  17.008  1.00  0.00     0.041 A 
BRANCH  13  20
HETATM   20  C5  UNL     1      19.506  39.705  16.631  1.00  0.00     0.062 C 
BRANCH  20  21
HETATM   21  C4  UNL     1      18.561  40.343  17.331  1.00  0.00     0.045 A 
HETATM   22  N1  UNL     1      18.694  41.449  18.036  1.00  0.00    -0.355 N 
HETATM   23  C3  UNL     1      17.533  41.804  18.606  1.00  0.00     0.035 A 
ATOM     24  H1  UNL     1      19.566  41.968  18.134  1.00  0.00     0.166 HD
HETATM   25  C32 UNL     1      16.596  40.836  18.225  1.00  0.00    -0.023 A 
HETATM   26  C21 UNL     1      17.228  39.917  17.425  1.00  0.00    -0.001 A 
HETATM   27  C33 UNL     1      15.168  40.848  18.690  1.00  0.00     0.051 C 
BRANCH  23  28
HETATM   28  C2  UNL     1      17.293  42.861  19.384  1.00  0.00    -0.001 C 
HETATM   29  C1  UNL     1      18.116  43.133  20.564  1.00  0.00     0.038 C 
ENDBRANCH  23  28
BRANCH  26  30
HETATM   30  C22 UNL     1      16.741  38.698  16.808  1.00  0.00     0.027 C 
HETATM   31  C23 UNL     1      16.757  37.481  17.216  1.00  0.00     0.010 C 
BRANCH  31  32
HETATM   32  C24 UNL     1      17.324  37.059  18.510  1.00  0.00     0.040 C 
HETATM   33  C25 UNL     1      18.445  36.075  18.407  1.00  0.00     0.010 C 
ENDBRANCH  31  32
BRANCH  31  34
HETATM   34  C26 UNL     1      16.178  36.438  16.372  1.00  0.00     0.247 C 
HETATM   35  O3  UNL     1      15.001  36.028  16.655  1.00  0.00    -0.268 OA
HETATM   36  N7  UNL     1      16.815  35.843  15.268  1.00  0.00    -0.357 N 
ATOM     37  H7  UNL     1      17.757  36.133  15.002  1.00  0.00     0.162 HD
BRANCH  36  38
HETATM   38  C27 UNL     1      16.128  34.816  14.506  1.00  0.00     0.123 C 
BRANCH  38  39
HETATM   39  C28 UNL     1      16.558  33.438  14.910  1.00  0.00     0.021 C 
BRANCH  39  40
HETATM   40  C29 UNL     1      17.769  33.471  15.798  1.00  0.00     0.021 C 
BRANCH  40  41
HETATM   41  C30 UNL     1      18.716  32.328  15.466  1.00  0.00     0.122 C 
BRANCH  41  42
HETATM   42  N8  UNL     1      19.420  32.552  14.240  1.00  0.00    -0.367 N 
HETATM   43  C31 UNL     1      19.489  31.739  13.245  1.00  0.00     0.196 C 
HETATM   44  N9  UNL     1      20.266  32.205  12.123  1.00  0.00    -0.067 NA
HETATM   45  N10 UNL     1      18.862  30.463  13.204  1.00  0.00    -0.067 NA
ATOM     46  H8  UNL     1      19.915  33.439  14.147  1.00  0.00     0.161 HD
ENDBRANCH  41  42
ENDBRANCH  40  41
ENDBRANCH  39  40
ENDBRANCH  38  39
ENDBRANCH  36  38
ENDBRANCH  31  34
ENDBRANCH  26  30
ENDBRANCH  20  21
ENDBRANCH  13  20
BRANCH  12  47
HETATM   47  C9  UNL     1      22.655  43.327  17.815  1.00  0.00     0.256 C 
HETATM   48  O1  UNL     1      21.859  43.730  18.725  1.00  0.00    -0.267 OA
HETATM   49  N3  UNL     1      22.800  44.076  16.621  1.00  0.00    -0.357 N 
HETATM   50  C10 UNL     1      23.687  43.644  15.582  1.00  0.00     0.152 C 
HETATM   51  C11 UNL     1      22.046  45.300  16.433  1.00  0.00     0.152 C 
ENDBRANCH  12  47
ENDBRANCH   1   4
TORSDOF 13
ENDMDL
