MODEL 1
REMARK VINA RESULT: -5.924065719      0.000      0.000
REMARK  4 active torsions:
REMARK  status: ('A' for Active; 'I' for Inactive)
REMARK    1  A    between atoms: C2_2  and  C3_3 
REMARK    2  A    between atoms: N1_5  and  C5_6 
REMARK    3  A    between atoms: C7_11  and  C8_12 
REMARK    4  A    between atoms: C8_12  and  N3_13 
ROOT
HETATM    1  C5  UNL     1      27.349   2.225   3.556  1.00  0.00     0.684 A 
HETATM    2  N2  UNL     1      27.711   2.208   4.851  1.00  0.00    -0.165 N 
ATOM      3  H2  UNL     1      27.228   2.829   5.500  1.00  0.00     0.186 HD
HETATM    4  C6  UNL     1      28.670   1.419   5.323  1.00  0.00     0.217 A 
HETATM    5  F1  UNL     1      29.006   1.433   6.633  1.00  0.00    -0.185 F 
HETATM    6  C7  UNL     1      29.384   0.530   4.489  1.00  0.00     0.075 A 
HETATM    7  C13 UNL     1      29.015   0.550   3.170  1.00  0.00     0.130 A 
HETATM    8  N4  UNL     1      29.588  -0.139   2.304  1.00  0.00    -0.384 N 
ATOM      9  H41 UNL     1      29.313  -0.125   1.322  1.00  0.00     0.157 HD
ATOM     10  H42 UNL     1      30.332  -0.766   2.611  1.00  0.00     0.157 HD
HETATM   11  N5  UNL     1      27.999   1.405   2.751  1.00  0.00    -0.176 N 
ATOM     12  H5  UNL     1      27.741   1.397   1.763  1.00  0.00     0.186 HD
ENDROOT
BRANCH   1  13
HETATM   13  N1  UNL     1      26.308   3.104   3.125  1.00  0.00    -0.217 N 
HETATM   14  C4  UNL     1      26.324   4.535   3.269  1.00  0.00     0.149 C 
HETATM   15  C3  UNL     1      25.195   5.008   4.159  1.00  0.00     0.043 C 
HETATM   16  C16 UNL     1      24.165   3.948   4.377  1.00  0.00     0.106 C 
HETATM   17  C15 UNL     1      23.912   3.060   3.208  1.00  0.00     0.064 C 
HETATM   18  C17 UNL     1      22.838   4.503   4.842  1.00  0.00     0.052 C 
HETATM   19  F4  UNL     1      24.599   3.117   5.424  1.00  0.00    -0.243 F 
HETATM   20  C14 UNL     1      25.122   2.558   2.491  1.00  0.00     0.144 C 
BRANCH  15  21
HETATM   21  C2  UNL     1      24.694   6.327   3.704  1.00  0.00     0.005 C 
HETATM   22  C1  UNL     1      25.551   7.115   2.793  1.00  0.00     0.005 C 
ENDBRANCH  15  21
ENDBRANCH   1  13
BRANCH   6  23
HETATM   23  C8  UNL     1      30.447  -0.270   5.124  1.00  0.00     0.079 C 
BRANCH  23  24
HETATM   24  N3  UNL     1      31.683   0.347   5.400  1.00  0.00    -0.286 NA
HETATM   25  C9  UNL     1      31.352   1.789   5.630  1.00  0.00     0.101 C 
HETATM   26  C10 UNL     1      32.524   2.284   6.445  1.00  0.00     0.095 C 
HETATM   27  C11 UNL     1      33.053   1.027   7.122  1.00  0.00     0.256 C 
HETATM   28  F2  UNL     1      33.171   1.202   8.487  1.00  0.00    -0.205 F 
HETATM   29  F3  UNL     1      34.203   0.564   6.559  1.00  0.00    -0.205 F 
HETATM   30  C12 UNL     1      31.941   0.052   6.854  1.00  0.00     0.173 C 
ENDBRANCH  23  24
ENDBRANCH   6  23
TORSDOF 4
ENDMDL
MODEL 2
REMARK VINA RESULT: -5.739601286      1.026      1.585
REMARK  4 active torsions:
REMARK  status: ('A' for Active; 'I' for Inactive)
REMARK    1  A    between atoms: C2_2  and  C3_3 
REMARK    2  A    between atoms: N1_5  and  C5_6 
REMARK    3  A    between atoms: C7_11  and  C8_12 
REMARK    4  A    between atoms: C8_12  and  N3_13 
ROOT
HETATM    1  C5  UNL     1      27.440   2.304   3.699  1.00  0.00     0.684 A 
HETATM    2  N2  UNL     1      28.111   1.485   2.869  1.00  0.00    -0.165 N 
ATOM      3  H2  UNL     1      27.845   1.463   1.885  1.00  0.00     0.186 HD
HETATM    4  C6  UNL     1      29.105   0.703   3.275  1.00  0.00     0.217 A 
HETATM    5  F1  UNL     1      29.756  -0.107   2.408  1.00  0.00    -0.185 F 
HETATM    6  C7  UNL     1      29.535   0.676   4.620  1.00  0.00     0.075 A 
HETATM    7  C13 UNL     1      28.849   1.509   5.464  1.00  0.00     0.130 A 
HETATM    8  N4  UNL     1      29.077   1.558   6.688  1.00  0.00    -0.384 N 
ATOM      9  H41 UNL     1      28.566   2.178   7.317  1.00  0.00     0.157 HD
ATOM     10  H42 UNL     1      29.833   0.979   7.054  1.00  0.00     0.157 HD
HETATM   11  N5  UNL     1      27.818   2.300   4.964  1.00  0.00    -0.176 N 
ATOM     12  H5  UNL     1      27.325   2.914   5.614  1.00  0.00     0.186 HD
ENDROOT
BRANCH   1  13
HETATM   13  N1  UNL     1      26.379   3.113   3.188  1.00  0.00    -0.217 N 
HETATM   14  C4  UNL     1      26.327   4.549   3.260  1.00  0.00     0.149 C 
HETATM   15  C3  UNL     1      25.145   5.012   4.084  1.00  0.00     0.043 C 
HETATM   16  C16 UNL     1      24.154   3.917   4.317  1.00  0.00     0.106 C 
HETATM   17  C15 UNL     1      23.986   2.964   3.185  1.00  0.00     0.064 C 
HETATM   18  C17 UNL     1      22.787   4.433   4.705  1.00  0.00     0.052 C 
HETATM   19  F4  UNL     1      24.584   3.159   5.419  1.00  0.00    -0.243 F 
HETATM   20  C14 UNL     1      25.243   2.484   2.538  1.00  0.00     0.144 C 
BRANCH  15  21
HETATM   21  C2  UNL     1      24.605   6.284   3.546  1.00  0.00     0.005 C 
HETATM   22  C1  UNL     1      25.526   7.163   2.795  1.00  0.00     0.005 C 
ENDBRANCH  15  21
ENDBRANCH   1  13
BRANCH   6  23
HETATM   23  C8  UNL     1      30.627  -0.257   4.952  1.00  0.00     0.079 C 
BRANCH  23  24
HETATM   24  N3  UNL     1      31.856   0.272   5.392  1.00  0.00    -0.286 NA
HETATM   25  C9  UNL     1      31.625   1.747   5.500  1.00  0.00     0.101 C 
HETATM   26  C10 UNL     1      32.698   2.192   6.466  1.00  0.00     0.095 C 
HETATM   27  C11 UNL     1      33.002   0.938   7.275  1.00  0.00     0.256 C 
HETATM   28  F2  UNL     1      32.924   1.184   8.632  1.00  0.00    -0.205 F 
HETATM   29  F3  UNL     1      34.178   0.351   6.923  1.00  0.00    -0.205 F 
HETATM   30  C12 UNL     1      31.860   0.043   6.880  1.00  0.00     0.173 C 
ENDBRANCH  23  24
ENDBRANCH   6  23
TORSDOF 4
ENDMDL
MODEL 3
REMARK VINA RESULT: -5.264815003      1.232      1.248
REMARK  4 active torsions:
REMARK  status: ('A' for Active; 'I' for Inactive)
REMARK    1  A    between atoms: C2_2  and  C3_3 
REMARK    2  A    between atoms: N1_5  and  C5_6 
REMARK    3  A    between atoms: C7_11  and  C8_12 
REMARK    4  A    between atoms: C8_12  and  N3_13 
ROOT
HETATM    1  C5  UNL     1      27.251   2.395   3.724  1.00  0.00     0.684 A 
HETATM    2  N2  UNL     1      28.495   2.861   3.937  1.00  0.00    -0.165 N 
ATOM      3  H2  UNL     1      28.685   3.845   3.751  1.00  0.00     0.186 HD
HETATM    4  C6  UNL     1      29.487   2.097   4.380  1.00  0.00     0.217 A 
HETATM    5  F1  UNL     1      30.724   2.604   4.582  1.00  0.00    -0.185 F 
HETATM    6  C7  UNL     1      29.304   0.725   4.664  1.00  0.00     0.075 A 
HETATM    7  C13 UNL     1      28.038   0.251   4.444  1.00  0.00     0.130 A 
HETATM    8  N4  UNL     1      27.735  -0.948   4.599  1.00  0.00    -0.384 N 
ATOM      9  H41 UNL     1      26.792  -1.300   4.435  1.00  0.00     0.157 HD
ATOM     10  H42 UNL     1      28.459  -1.580   4.939  1.00  0.00     0.157 HD
HETATM   11  N5  UNL     1      27.049   1.115   3.980  1.00  0.00    -0.176 N 
ATOM     12  H5  UNL     1      26.114   0.737   3.827  1.00  0.00     0.186 HD
ENDROOT
BRANCH   1  13
HETATM   13  N1  UNL     1      26.237   3.280   3.244  1.00  0.00    -0.217 N 
HETATM   14  C4  UNL     1      26.224   4.705   3.441  1.00  0.00     0.149 C 
HETATM   15  C3  UNL     1      25.023   5.133   4.255  1.00  0.00     0.043 C 
HETATM   16  C16 UNL     1      23.991   4.056   4.351  1.00  0.00     0.106 C 
HETATM   17  C15 UNL     1      23.843   3.211   3.134  1.00  0.00     0.064 C 
HETATM   18  C17 UNL     1      22.625   4.581   4.729  1.00  0.00     0.052 C 
HETATM   19  F4  UNL     1      24.351   3.191   5.398  1.00  0.00    -0.243 F 
HETATM   20  C14 UNL     1      25.112   2.747   2.497  1.00  0.00     0.144 C 
BRANCH  15  21
HETATM   21  C2  UNL     1      24.543   6.464   3.810  1.00  0.00     0.005 C 
HETATM   22  C1  UNL     1      25.328   7.171   2.776  1.00  0.00     0.005 C 
ENDBRANCH  15  21
ENDBRANCH   1  13
BRANCH   6  23
HETATM   23  C8  UNL     1      30.489  -0.024   5.119  1.00  0.00     0.079 C 
BRANCH  23  24
HETATM   24  N3  UNL     1      31.563   0.690   5.685  1.00  0.00    -0.286 NA
HETATM   25  C9  UNL     1      31.143   0.964   7.096  1.00  0.00     0.101 C 
HETATM   26  C10 UNL     1      32.457   1.197   7.805  1.00  0.00     0.095 C 
HETATM   27  C11 UNL     1      33.469   0.442   6.954  1.00  0.00     0.256 C 
HETATM   28  F2  UNL     1      34.227  -0.422   7.721  1.00  0.00    -0.205 F 
HETATM   29  F3  UNL     1      34.239   1.264   6.189  1.00  0.00    -0.205 F 
HETATM   30  C12 UNL     1      32.567  -0.367   6.063  1.00  0.00     0.173 C 
ENDBRANCH  23  24
ENDBRANCH   6  23
TORSDOF 4
ENDMDL
MODEL 4
REMARK VINA RESULT: -4.750318277      1.280      1.599
REMARK  4 active torsions:
REMARK  status: ('A' for Active; 'I' for Inactive)
REMARK    1  A    between atoms: C2_2  and  C3_3 
REMARK    2  A    between atoms: N1_5  and  C5_6 
REMARK    3  A    between atoms: C7_11  and  C8_12 
REMARK    4  A    between atoms: C8_12  and  N3_13 
ROOT
HETATM    1  C5  UNL     1      27.551   2.556   3.758  1.00  0.00     0.684 A 
HETATM    2  N2  UNL     1      27.540   1.211   3.783  1.00  0.00    -0.165 N 
ATOM      3  H2  UNL     1      26.722   0.723   3.418  1.00  0.00     0.186 HD
HETATM    4  C6  UNL     1      28.548   0.489   4.260  1.00  0.00     0.217 A 
HETATM    5  F1  UNL     1      28.499  -0.862   4.267  1.00  0.00    -0.185 F 
HETATM    6  C7  UNL     1      29.716   1.090   4.781  1.00  0.00     0.075 A 
HETATM    7  C13 UNL     1      29.724   2.459   4.757  1.00  0.00     0.130 A 
HETATM    8  N4  UNL     1      30.661   3.132   5.228  1.00  0.00    -0.384 N 
ATOM      9  H41 UNL     1      30.667   4.151   5.211  1.00  0.00     0.157 HD
ATOM     10  H42 UNL     1      31.463   2.629   5.608  1.00  0.00     0.157 HD
HETATM   11  N5  UNL     1      28.629   3.146   4.239  1.00  0.00    -0.176 N 
ATOM     12  H5  UNL     1      28.662   4.166   4.230  1.00  0.00     0.186 HD
ENDROOT
BRANCH   1  13
HETATM   13  N1  UNL     1      26.426   3.261   3.230  1.00  0.00    -0.217 N 
HETATM   14  C4  UNL     1      26.274   4.691   3.228  1.00  0.00     0.149 C 
HETATM   15  C3  UNL     1      25.079   5.115   4.055  1.00  0.00     0.043 C 
HETATM   16  C16 UNL     1      24.172   3.969   4.368  1.00  0.00     0.106 C 
HETATM   17  C15 UNL     1      24.049   2.946   3.292  1.00  0.00     0.064 C 
HETATM   18  C17 UNL     1      22.781   4.409   4.761  1.00  0.00     0.052 C 
HETATM   19  F4  UNL     1      24.676   3.302   5.498  1.00  0.00    -0.243 F 
HETATM   20  C14 UNL     1      25.324   2.520   2.642  1.00  0.00     0.144 C 
BRANCH  15  21
HETATM   21  C2  UNL     1      24.439   6.315   3.463  1.00  0.00     0.005 C 
HETATM   22  C1  UNL     1      25.305   7.279   2.751  1.00  0.00     0.005 C 
ENDBRANCH  15  21
ENDBRANCH   1  13
BRANCH   6  23
HETATM   23  C8  UNL     1      30.751   0.183   5.311  1.00  0.00     0.079 C 
BRANCH  23  24
HETATM   24  N3  UNL     1      31.894   0.743   5.915  1.00  0.00    -0.286 NA
HETATM   25  C9  UNL     1      31.499   0.983   7.339  1.00  0.00     0.101 C 
HETATM   26  C10 UNL     1      32.827   1.031   8.059  1.00  0.00     0.095 C 
HETATM   27  C11 UNL     1      33.754   0.217   7.167  1.00  0.00     0.256 C 
HETATM   28  F2  UNL     1      34.408  -0.766   7.884  1.00  0.00    -0.205 F 
HETATM   29  F3  UNL     1      34.614   0.991   6.448  1.00  0.00    -0.205 F 
HETATM   30  C12 UNL     1      32.774  -0.437   6.233  1.00  0.00     0.173 C 
ENDBRANCH  23  24
ENDBRANCH   6  23
TORSDOF 4
ENDMDL
MODEL 5
REMARK VINA RESULT: -3.497130264      1.389      1.678
REMARK  4 active torsions:
REMARK  status: ('A' for Active; 'I' for Inactive)
REMARK    1  A    between atoms: C2_2  and  C3_3 
REMARK    2  A    between atoms: N1_5  and  C5_6 
REMARK    3  A    between atoms: C7_11  and  C8_12 
REMARK    4  A    between atoms: C8_12  and  N3_13 
ROOT
HETATM    1  C5  UNL     1      27.028   2.080   3.463  1.00  0.00     0.684 A 
HETATM    2  N2  UNL     1      28.326   2.322   3.204  1.00  0.00    -0.165 N 
ATOM      3  H2  UNL     1      28.576   3.193   2.737  1.00  0.00     0.186 HD
HETATM    4  C6  UNL     1      29.297   1.475   3.527  1.00  0.00     0.217 A 
HETATM    5  F1  UNL     1      30.591   1.755   3.248  1.00  0.00    -0.185 F 
HETATM    6  C7  UNL     1      29.034   0.248   4.176  1.00  0.00     0.075 A 
HETATM    7  C13 UNL     1      27.712   0.002   4.438  1.00  0.00     0.130 A 
HETATM    8  N4  UNL     1      27.318  -1.059   4.957  1.00  0.00    -0.384 N 
ATOM      9  H41 UNL     1      26.334  -1.242   5.152  1.00  0.00     0.157 HD
ATOM     10  H42 UNL     1      28.022  -1.746   5.228  1.00  0.00     0.157 HD
HETATM   11  N5  UNL     1      26.750   0.940   4.069  1.00  0.00    -0.176 N 
ATOM     12  H5  UNL     1      25.773   0.733   4.278  1.00  0.00     0.186 HD
ENDROOT
BRANCH   1  13
HETATM   13  N1  UNL     1      26.041   3.040   3.081  1.00  0.00    -0.217 N 
HETATM   14  C4  UNL     1      26.175   4.464   3.227  1.00  0.00     0.149 C 
HETATM   15  C3  UNL     1      25.127   5.019   4.168  1.00  0.00     0.043 C 
HETATM   16  C16 UNL     1      24.028   4.041   4.431  1.00  0.00     0.106 C 
HETATM   17  C15 UNL     1      23.655   3.182   3.273  1.00  0.00     0.064 C 
HETATM   18  C17 UNL     1      22.771   4.694   4.957  1.00  0.00     0.052 C 
HETATM   19  F4  UNL     1      24.444   3.173   5.456  1.00  0.00    -0.243 F 
HETATM   20  C14 UNL     1      24.788   2.591   2.501  1.00  0.00     0.144 C 
BRANCH  15  21
HETATM   21  C2  UNL     1      24.710   6.375   3.739  1.00  0.00     0.005 C 
HETATM   22  C1  UNL     1      25.563   7.083   2.760  1.00  0.00     0.005 C 
ENDBRANCH  15  21
ENDBRANCH   1  13
BRANCH   6  23
HETATM   23  C8  UNL     1      30.193  -0.620   4.454  1.00  0.00     0.079 C 
BRANCH  23  24
HETATM   24  N3  UNL     1      30.905  -0.432   5.654  1.00  0.00    -0.286 NA
HETATM   25  C9  UNL     1      32.348  -0.470   5.256  1.00  0.00     0.101 C 
HETATM   26  C10 UNL     1      33.033   0.269   6.383  1.00  0.00     0.095 C 
HETATM   27  C11 UNL     1      31.942   1.170   6.944  1.00  0.00     0.256 C 
HETATM   28  F2  UNL     1      32.361   2.484   7.014  1.00  0.00    -0.205 F 
HETATM   29  F3  UNL     1      31.441   0.723   8.128  1.00  0.00    -0.205 F 
HETATM   30  C12 UNL     1      30.884   1.057   5.882  1.00  0.00     0.173 C 
ENDBRANCH  23  24
ENDBRANCH   6  23
TORSDOF 4
ENDMDL
