MODEL 1
REMARK VINA RESULT: -5.367745930      0.000      0.000
REMARK  5 active torsions:
REMARK  status: ('A' for Active; 'I' for Inactive)
REMARK    1  A    between atoms: C5_5  and  C6_6 
REMARK    2  A    between atoms: N3_19  and  C12_21 
REMARK    3  A    between atoms: C12_21  and  C13_22 
REMARK    4  A    between atoms: C13_22  and  O1_23 
REMARK    5  A    between atoms: O1_23  and  C14_24 
ROOT
HETATM    1  C1  UNL     1      26.418   2.149   1.775  1.00  0.00     0.045 C 
HETATM    2  C2  UNL     1      26.708   1.573   3.089  1.00  0.00    -0.065 C 
HETATM    3  C3  UNL     1      27.129   0.312   3.178  1.00  0.00    -0.021 C 
HETATM    4  C4  UNL     1      27.400  -0.201   4.541  1.00  0.00     0.038 C 
HETATM    5  C5  UNL     1      28.218   0.753   5.367  1.00  0.00     0.051 C 
HETATM    6  C9  UNL     1      27.991   2.196   5.000  1.00  0.00     0.033 C 
HETATM    7  C10 UNL     1      29.006   2.790   4.081  1.00  0.00     0.090 C 
HETATM    8  S1  UNL     1      28.671   4.598   4.041  1.00  0.00    -0.094 SA
HETATM    9  C11 UNL     1      26.880   4.732   3.840  1.00  0.00     0.136 C 
HETATM   10  N3  UNL     1      26.432   5.805   3.336  1.00  0.00    -0.369 N 
ATOM     11  H3  UNL     1      27.117   6.517   3.083  1.00  0.00     0.161 HD
HETATM   12  N4  UNL     1      26.116   3.617   4.263  1.00  0.00    -0.362 N 
ATOM     13  H4  UNL     1      25.137   3.784   4.492  1.00  0.00     0.162 HD
HETATM   14  C15 UNL     1      26.593   2.286   4.395  1.00  0.00     0.117 C 
ENDROOT
BRANCH   5  15
HETATM   15  C6  UNL     1      29.636   0.339   5.307  1.00  0.00     0.074 A 
HETATM   16  N1  UNL     1      30.191  -0.504   4.439  1.00  0.00    -0.299 N 
HETATM   17  N2  UNL     1      31.483  -0.653   4.646  1.00  0.00    -0.273 N 
ATOM     18  H1  UNL     1      29.675  -0.979   3.698  1.00  0.00     0.186 HD
HETATM   19  C7  UNL     1      31.807   0.120   5.692  1.00  0.00     0.243 A 
ATOM     20  H2  UNL     1      32.118  -1.245   4.111  1.00  0.00     0.189 HD
HETATM   21  F1  UNL     1      33.068   0.241   6.226  1.00  0.00    -0.181 F 
HETATM   22  C8  UNL     1      30.654   0.756   6.128  1.00  0.00     0.197 A 
HETATM   23  F2  UNL     1      30.619   1.609   7.177  1.00  0.00    -0.199 F 
ENDBRANCH   5  15
BRANCH  10  24
HETATM   24  C12 UNL     1      25.045   6.115   3.088  1.00  0.00     0.148 C 
BRANCH  24  25
HETATM   25  C13 UNL     1      24.301   6.297   4.376  1.00  0.00     0.193 C 
BRANCH  25  26
HETATM   26  O1  UNL     1      23.684   5.145   4.748  1.00  0.00    -0.331 OA
BRANCH  26  27
HETATM   27  C14 UNL     1      22.970   4.461   3.815  1.00  0.00     0.500 C 
HETATM   28  F3  UNL     1      23.326   3.129   3.708  1.00  0.00    -0.185 F 
HETATM   29  F4  UNL     1      21.626   4.500   4.203  1.00  0.00    -0.185 F 
ENDBRANCH  26  27
ENDBRANCH  25  26
ENDBRANCH  24  25
ENDBRANCH  10  24
TORSDOF 5
ENDMDL
MODEL 2
REMARK VINA RESULT: -4.975098873      3.014      7.049
REMARK  5 active torsions:
REMARK  status: ('A' for Active; 'I' for Inactive)
REMARK    1  A    between atoms: C5_5  and  C6_6 
REMARK    2  A    between atoms: N3_19  and  C12_21 
REMARK    3  A    between atoms: C12_21  and  C13_22 
REMARK    4  A    between atoms: C13_22  and  O1_23 
REMARK    5  A    between atoms: O1_23  and  C14_24 
ROOT
HETATM    1  C1  UNL     1      27.894  -0.185   4.602  1.00  0.00     0.045 C 
HETATM    2  C2  UNL     1      27.681   0.949   3.701  1.00  0.00    -0.065 C 
HETATM    3  C3  UNL     1      26.475   1.151   3.171  1.00  0.00    -0.021 C 
HETATM    4  C4  UNL     1      26.337   2.318   2.267  1.00  0.00     0.038 C 
HETATM    5  C5  UNL     1      26.948   3.568   2.836  1.00  0.00     0.051 C 
HETATM    6  C9  UNL     1      28.120   3.293   3.743  1.00  0.00     0.033 C 
HETATM    7  C10 UNL     1      27.811   3.288   5.203  1.00  0.00     0.090 C 
HETATM    8  S1  UNL     1      29.431   3.233   6.072  1.00  0.00    -0.094 SA
HETATM    9  C11 UNL     1      30.379   1.962   5.205  1.00  0.00     0.136 C 
HETATM   10  N3  UNL     1      31.320   1.404   5.844  1.00  0.00    -0.369 N 
ATOM     11  H3  UNL     1      31.475   1.715   6.803  1.00  0.00     0.161 HD
HETATM   12  N4  UNL     1      29.988   1.690   3.871  1.00  0.00    -0.362 N 
ATOM     13  H4  UNL     1      30.686   1.265   3.260  1.00  0.00     0.162 HD
HETATM   14  C15 UNL     1      28.712   1.955   3.310  1.00  0.00     0.117 C 
ENDROOT
BRANCH   5  15
HETATM   15  C6  UNL     1      25.882   4.373   3.468  1.00  0.00     0.074 A 
HETATM   16  N1  UNL     1      24.774   3.923   4.053  1.00  0.00    -0.299 N 
HETATM   17  N2  UNL     1      24.032   4.899   4.531  1.00  0.00    -0.273 N 
ATOM     18  H1  UNL     1      24.529   2.935   4.122  1.00  0.00     0.186 HD
HETATM   19  C7  UNL     1      24.666   6.048   4.258  1.00  0.00     0.243 A 
ATOM     20  H2  UNL     1      23.141   4.800   5.018  1.00  0.00     0.189 HD
HETATM   21  F1  UNL     1      24.212   7.302   4.594  1.00  0.00    -0.181 F 
HETATM   22  C8  UNL     1      25.839   5.740   3.585  1.00  0.00     0.197 A 
HETATM   23  F2  UNL     1      26.720   6.669   3.151  1.00  0.00    -0.199 F 
ENDBRANCH   5  15
BRANCH  10  24
HETATM   24  C12 UNL     1      32.193   0.370   5.343  1.00  0.00     0.148 C 
BRANCH  24  25
HETATM   25  C13 UNL     1      31.494  -0.955   5.327  1.00  0.00     0.193 C 
BRANCH  25  26
HETATM   26  O1  UNL     1      30.582  -1.011   4.320  1.00  0.00    -0.331 OA
BRANCH  26  27
HETATM   27  C14 UNL     1      30.878  -1.748   3.216  1.00  0.00     0.500 C 
HETATM   28  F3  UNL     1      30.998  -3.102   3.469  1.00  0.00    -0.185 F 
HETATM   29  F4  UNL     1      29.824  -1.588   2.310  1.00  0.00    -0.185 F 
ENDBRANCH  26  27
ENDBRANCH  25  26
ENDBRANCH  24  25
ENDBRANCH  10  24
TORSDOF 5
ENDMDL
MODEL 3
REMARK VINA RESULT: -4.711637038      1.822      1.892
REMARK  5 active torsions:
REMARK  status: ('A' for Active; 'I' for Inactive)
REMARK    1  A    between atoms: C5_5  and  C6_6 
REMARK    2  A    between atoms: N3_19  and  C12_21 
REMARK    3  A    between atoms: C12_21  and  C13_22 
REMARK    4  A    between atoms: C13_22  and  O1_23 
REMARK    5  A    between atoms: O1_23  and  C14_24 
ROOT
HETATM    1  C1  UNL     1      25.254   2.449   2.342  1.00  0.00     0.045 C 
HETATM    2  C2  UNL     1      25.940   1.925   3.524  1.00  0.00    -0.065 C 
HETATM    3  C3  UNL     1      26.101   0.610   3.662  1.00  0.00    -0.021 C 
HETATM    4  C4  UNL     1      26.803   0.154   4.885  1.00  0.00     0.038 C 
HETATM    5  C5  UNL     1      28.059   0.934   5.157  1.00  0.00     0.051 C 
HETATM    6  C9  UNL     1      27.991   2.355   4.661  1.00  0.00     0.033 C 
HETATM    7  C10 UNL     1      28.632   2.601   3.336  1.00  0.00     0.090 C 
HETATM    8  S1  UNL     1      28.674   4.426   3.115  1.00  0.00    -0.094 SA
HETATM    9  C11 UNL     1      27.024   4.989   3.592  1.00  0.00     0.136 C 
HETATM   10  N3  UNL     1      26.630   6.097   3.120  1.00  0.00    -0.369 N 
ATOM     11  H3  UNL     1      27.276   6.592   2.505  1.00  0.00     0.161 HD
HETATM   12  N4  UNL     1      26.299   4.137   4.461  1.00  0.00    -0.362 N 
ATOM     13  H4  UNL     1      25.555   4.562   5.015  1.00  0.00     0.162 HD
HETATM   14  C15 UNL     1      26.516   2.745   4.630  1.00  0.00     0.117 C 
ENDROOT
BRANCH   5  15
HETATM   15  C6  UNL     1      29.213   0.175   4.633  1.00  0.00     0.074 A 
HETATM   16  N1  UNL     1      30.378  -0.038   5.240  1.00  0.00    -0.299 N 
HETATM   17  N2  UNL     1      31.196  -0.765   4.509  1.00  0.00    -0.273 N 
ATOM     18  H1  UNL     1      30.611   0.322   6.166  1.00  0.00     0.186 HD
HETATM   19  C7  UNL     1      30.555  -1.053   3.367  1.00  0.00     0.243 A 
ATOM     20  H2  UNL     1      32.140  -1.056   4.763  1.00  0.00     0.189 HD
HETATM   21  F1  UNL     1      31.074  -1.796   2.334  1.00  0.00    -0.181 F 
HETATM   22  C8  UNL     1      29.299  -0.467   3.422  1.00  0.00     0.197 A 
HETATM   23  F2  UNL     1      28.388  -0.552   2.427  1.00  0.00    -0.199 F 
ENDBRANCH   5  15
BRANCH  10  24
HETATM   24  C12 UNL     1      25.355   6.724   3.370  1.00  0.00     0.148 C 
BRANCH  24  25
HETATM   25  C13 UNL     1      24.514   5.877   4.276  1.00  0.00     0.193 C 
BRANCH  25  26
HETATM   26  O1  UNL     1      23.548   5.227   3.575  1.00  0.00    -0.331 OA
BRANCH  26  27
HETATM   27  C14 UNL     1      22.911   4.180   4.165  1.00  0.00     0.500 C 
HETATM   28  F3  UNL     1      23.387   3.880   5.428  1.00  0.00    -0.185 F 
HETATM   29  F4  UNL     1      21.564   4.534   4.305  1.00  0.00    -0.185 F 
ENDBRANCH  26  27
ENDBRANCH  25  26
ENDBRANCH  24  25
ENDBRANCH  10  24
TORSDOF 5
ENDMDL
MODEL 4
REMARK VINA RESULT: -4.511641711      1.925      2.352
REMARK  5 active torsions:
REMARK  status: ('A' for Active; 'I' for Inactive)
REMARK    1  A    between atoms: C5_5  and  C6_6 
REMARK    2  A    between atoms: N3_19  and  C12_21 
REMARK    3  A    between atoms: C12_21  and  C13_22 
REMARK    4  A    between atoms: C13_22  and  O1_23 
REMARK    5  A    between atoms: O1_23  and  C14_24 
ROOT
HETATM    1  C1  UNL     1      27.754   1.036   2.271  1.00  0.00     0.045 C 
HETATM    2  C2  UNL     1      28.226   0.754   3.627  1.00  0.00    -0.065 C 
HETATM    3  C3  UNL     1      29.276  -0.046   3.806  1.00  0.00    -0.021 C 
HETATM    4  C4  UNL     1      29.694  -0.286   5.207  1.00  0.00     0.038 C 
HETATM    5  C5  UNL     1      29.773   0.980   6.014  1.00  0.00     0.051 C 
HETATM    6  C9  UNL     1      28.799   2.034   5.556  1.00  0.00     0.033 C 
HETATM    7  C10 UNL     1      29.363   3.078   4.651  1.00  0.00     0.090 C 
HETATM    8  S1  UNL     1      28.071   4.377   4.493  1.00  0.00    -0.094 SA
HETATM    9  C11 UNL     1      26.535   3.470   4.204  1.00  0.00     0.136 C 
HETATM   10  N3  UNL     1      25.597   4.091   3.620  1.00  0.00    -0.369 N 
ATOM     11  H3  UNL     1      25.777   5.060   3.358  1.00  0.00     0.161 HD
HETATM   12  N4  UNL     1      26.506   2.128   4.655  1.00  0.00    -0.362 N 
ATOM     13  H4  UNL     1      25.589   1.716   4.830  1.00  0.00     0.162 HD
HETATM   14  C15 UNL     1      27.639   1.305   4.884  1.00  0.00     0.117 C 
ENDROOT
BRANCH   5  15
HETATM   15  C6  UNL     1      31.177   1.440   6.041  1.00  0.00     0.074 A 
HETATM   16  N1  UNL     1      31.611   2.698   6.084  1.00  0.00    -0.299 N 
HETATM   17  N2  UNL     1      32.925   2.772   6.111  1.00  0.00    -0.273 N 
ATOM     18  H1  UNL     1      30.995   3.511   6.095  1.00  0.00     0.186 HD
HETATM   19  C7  UNL     1      33.392   1.515   6.086  1.00  0.00     0.243 A 
ATOM     20  H2  UNL     1      33.484   3.625   6.145  1.00  0.00     0.189 HD
HETATM   21  F1  UNL     1      34.721   1.164   6.099  1.00  0.00    -0.181 F 
HETATM   22  C8  UNL     1      32.305   0.656   6.040  1.00  0.00     0.197 A 
HETATM   23  F2  UNL     1      32.415  -0.691   5.997  1.00  0.00    -0.199 F 
ENDBRANCH   5  15
BRANCH  10  24
HETATM   24  C12 UNL     1      24.298   3.556   3.293  1.00  0.00     0.148 C 
BRANCH  24  25
HETATM   25  C13 UNL     1      23.217   4.536   3.635  1.00  0.00     0.193 C 
BRANCH  25  26
HETATM   26  O1  UNL     1      23.665   5.463   4.523  1.00  0.00    -0.331 OA
BRANCH  26  27
HETATM   27  C14 UNL     1      24.441   6.480   4.062  1.00  0.00     0.500 C 
HETATM   28  F3  UNL     1      24.257   6.755   2.719  1.00  0.00    -0.185 F 
HETATM   29  F4  UNL     1      24.087   7.633   4.772  1.00  0.00    -0.185 F 
ENDBRANCH  26  27
ENDBRANCH  25  26
ENDBRANCH  24  25
ENDBRANCH  10  24
TORSDOF 5
ENDMDL
MODEL 5
REMARK VINA RESULT: -4.397686394      1.453      1.548
REMARK  5 active torsions:
REMARK  status: ('A' for Active; 'I' for Inactive)
REMARK    1  A    between atoms: C5_5  and  C6_6 
REMARK    2  A    between atoms: N3_19  and  C12_21 
REMARK    3  A    between atoms: C12_21  and  C13_22 
REMARK    4  A    between atoms: C13_22  and  O1_23 
REMARK    5  A    between atoms: O1_23  and  C14_24 
ROOT
HETATM    1  C1  UNL     1      24.978   2.484   2.726  1.00  0.00     0.045 C 
HETATM    2  C2  UNL     1      25.786   1.826   3.753  1.00  0.00    -0.065 C 
HETATM    3  C3  UNL     1      25.830   0.495   3.804  1.00  0.00    -0.021 C 
HETATM    4  C4  UNL     1      26.668  -0.099   4.872  1.00  0.00     0.038 C 
HETATM    5  C5  UNL     1      28.026   0.539   4.966  1.00  0.00     0.051 C 
HETATM    6  C9  UNL     1      28.027   1.988   4.551  1.00  0.00     0.033 C 
HETATM    7  C10 UNL     1      28.469   2.252   3.150  1.00  0.00     0.090 C 
HETATM    8  S1  UNL     1      28.665   4.075   3.007  1.00  0.00    -0.094 SA
HETATM    9  C11 UNL     1      27.181   4.762   3.776  1.00  0.00     0.136 C 
HETATM   10  N3  UNL     1      26.834   5.929   3.426  1.00  0.00    -0.369 N 
ATOM     11  H3  UNL     1      27.420   6.397   2.735  1.00  0.00     0.161 HD
HETATM   12  N4  UNL     1      26.521   3.932   4.715  1.00  0.00    -0.362 N 
ATOM     13  H4  UNL     1      25.924   4.392   5.403  1.00  0.00     0.162 HD
HETATM   14  C15 UNL     1      26.615   2.518   4.783  1.00  0.00     0.117 C 
ENDROOT
BRANCH   5  15
HETATM   15  C6  UNL     1      28.995  -0.293   4.224  1.00  0.00     0.074 A 
HETATM   16  N1  UNL     1      28.761  -1.023   3.136  1.00  0.00    -0.299 N 
HETATM   17  N2  UNL     1      29.842  -1.641   2.708  1.00  0.00    -0.273 N 
ATOM     18  H1  UNL     1      27.849  -1.096   2.685  1.00  0.00     0.186 HD
HETATM   19  C7  UNL     1      30.840  -1.313   3.541  1.00  0.00     0.243 A 
ATOM     20  H2  UNL     1      29.908  -2.255   1.896  1.00  0.00     0.189 HD
HETATM   21  F1  UNL     1      32.137  -1.758   3.436  1.00  0.00    -0.181 F 
HETATM   22  C8  UNL     1      30.328  -0.462   4.508  1.00  0.00     0.197 A 
HETATM   23  F2  UNL     1      31.065   0.058   5.516  1.00  0.00    -0.199 F 
ENDBRANCH   5  15
BRANCH  10  24
HETATM   24  C12 UNL     1      25.689   6.659   3.912  1.00  0.00     0.148 C 
BRANCH  24  25
HETATM   25  C13 UNL     1      24.414   6.019   3.450  1.00  0.00     0.193 C 
BRANCH  25  26
HETATM   26  O1  UNL     1      23.751   5.449   4.490  1.00  0.00    -0.331 OA
BRANCH  26  27
HETATM   27  C14 UNL     1      23.032   4.318   4.259  1.00  0.00     0.500 C 
HETATM   28  F3  UNL     1      23.182   3.354   5.239  1.00  0.00    -0.185 F 
HETATM   29  F4  UNL     1      21.680   4.678   4.237  1.00  0.00    -0.185 F 
ENDBRANCH  26  27
ENDBRANCH  25  26
ENDBRANCH  24  25
ENDBRANCH  10  24
TORSDOF 5
ENDMDL
