MODEL 1
REMARK VINA RESULT: -8.024625811      0.000      0.000
REMARK  4 active torsions:
REMARK  status: ('A' for Active; 'I' for Inactive)
REMARK    1  A    between atoms: N1_2  and  C3_4 
REMARK    2  A    between atoms: C3_4  and  C4_5 
REMARK    3  A    between atoms: C11_17  and  N4_18 
REMARK    4  A    between atoms: N4_18  and  C12_20 
ROOT
HETATM    1  C4  UNL     1      30.149   0.483   5.783  1.00  0.00     0.123 A 
HETATM    2  N2  UNL     1      28.911   0.960   5.594  1.00  0.00    -0.342 N 
ATOM      3  H2  UNL     1      28.478   1.507   6.338  1.00  0.00     0.167 HD
HETATM    4  C5  UNL     1      28.201   0.743   4.437  1.00  0.00     0.045 A 
HETATM    5  C6  UNL     1      28.795   0.009   3.452  1.00  0.00     0.035 A 
HETATM    6  C7  UNL     1      30.076  -0.497   3.623  1.00  0.00     0.255 A 
HETATM    7  O1  UNL     1      30.594  -1.166   2.703  1.00  0.00    -0.268 OA
HETATM    8  N3  UNL     1      30.698  -0.236   4.787  1.00  0.00    -0.308 N 
ATOM      9  H3  UNL     1      31.640  -0.604   4.921  1.00  0.00     0.170 HD
HETATM   10  C8  UNL     1      28.085  -0.257   2.163  1.00  0.00     0.046 C 
HETATM   11  C9  UNL     1      27.394   1.065   1.835  1.00  0.00     0.007 C 
HETATM   12  C10 UNL     1      26.412   1.440   2.890  1.00  0.00     0.032 C 
HETATM   13  C11 UNL     1      26.838   1.287   4.297  1.00  0.00     0.132 C 
ENDROOT
BRANCH  13  14
HETATM   14  N4  UNL     1      26.779   2.528   5.052  1.00  0.00    -0.377 N 
ATOM     15  H4  UNL     1      27.265   2.554   5.948  1.00  0.00     0.160 HD
BRANCH  14  16
HETATM   16  C12 UNL     1      26.105   3.699   4.649  1.00  0.00     0.074 A 
HETATM   17  C13 UNL     1      24.743   3.895   4.709  1.00  0.00     0.078 A 
HETATM   18  C14 UNL     1      24.148   5.077   4.303  1.00  0.00     0.160 A 
HETATM   19  F1  UNL     1      22.809   5.231   4.377  1.00  0.00    -0.203 F 
HETATM   20  C15 UNL     1      24.901   6.120   3.816  1.00  0.00     0.196 A 
HETATM   21  F2  UNL     1      24.310   7.293   3.414  1.00  0.00    -0.199 F 
HETATM   22  C16 UNL     1      26.265   5.950   3.747  1.00  0.00     0.198 A 
HETATM   23  F3  UNL     1      27.006   6.990   3.263  1.00  0.00    -0.199 F 
HETATM   24  C17 UNL     1      26.835   4.771   4.154  1.00  0.00     0.184 A 
HETATM   25  F4  UNL     1      28.190   4.688   4.051  1.00  0.00    -0.200 F 
ENDBRANCH  14  16
ENDBRANCH  13  14
BRANCH   1  26
HETATM   26  C3  UNL     1      30.892   0.730   7.047  1.00  0.00     0.133 C 
BRANCH  26  27
HETATM   27  N1  UNL     1      32.138   1.374   6.915  1.00  0.00    -0.395 N 
HETATM   28  C1  UNL     1      32.192   2.587   6.183  1.00  0.00     0.148 C 
HETATM   29  C2  UNL     1      33.307   0.562   6.911  1.00  0.00     0.148 C 
ENDBRANCH  26  27
ENDBRANCH   1  26
TORSDOF 4
ENDMDL
MODEL 2
REMARK VINA RESULT: -8.015852289      0.537      1.838
REMARK  4 active torsions:
REMARK  status: ('A' for Active; 'I' for Inactive)
REMARK    1  A    between atoms: N1_2  and  C3_4 
REMARK    2  A    between atoms: C3_4  and  C4_5 
REMARK    3  A    between atoms: C11_17  and  N4_18 
REMARK    4  A    between atoms: N4_18  and  C12_20 
ROOT
HETATM    1  C4  UNL     1      30.115   0.479   5.760  1.00  0.00     0.123 A 
HETATM    2  N2  UNL     1      28.875   0.959   5.589  1.00  0.00    -0.342 N 
ATOM      3  H2  UNL     1      28.448   1.493   6.346  1.00  0.00     0.167 HD
HETATM    4  C5  UNL     1      28.156   0.760   4.435  1.00  0.00     0.045 A 
HETATM    5  C6  UNL     1      28.742   0.043   3.433  1.00  0.00     0.035 A 
HETATM    6  C7  UNL     1      30.025  -0.465   3.585  1.00  0.00     0.255 A 
HETATM    7  O1  UNL     1      30.536  -1.118   2.650  1.00  0.00    -0.268 OA
HETATM    8  N3  UNL     1      30.656  -0.222   4.748  1.00  0.00    -0.308 N 
ATOM      9  H3  UNL     1      31.600  -0.592   4.869  1.00  0.00     0.170 HD
HETATM   10  C8  UNL     1      28.022  -0.202   2.146  1.00  0.00     0.046 C 
HETATM   11  C9  UNL     1      27.328   1.124   1.845  1.00  0.00     0.007 C 
HETATM   12  C10 UNL     1      26.353   1.481   2.914  1.00  0.00     0.032 C 
HETATM   13  C11 UNL     1      26.791   1.305   4.315  1.00  0.00     0.132 C 
ENDROOT
BRANCH  13  14
HETATM   14  N4  UNL     1      26.737   2.534   5.091  1.00  0.00    -0.377 N 
ATOM     15  H4  UNL     1      27.133   2.512   6.030  1.00  0.00     0.160 HD
BRANCH  14  16
HETATM   16  C12 UNL     1      26.183   3.754   4.653  1.00  0.00     0.074 A 
HETATM   17  C13 UNL     1      26.897   4.813   4.136  1.00  0.00     0.078 A 
HETATM   18  C14 UNL     1      26.285   5.981   3.716  1.00  0.00     0.160 A 
HETATM   19  F1  UNL     1      27.019   6.997   3.214  1.00  0.00    -0.203 F 
HETATM   20  C15 UNL     1      24.921   6.137   3.798  1.00  0.00     0.196 A 
HETATM   21  F2  UNL     1      24.314   7.296   3.380  1.00  0.00    -0.199 F 
HETATM   22  C16 UNL     1      24.185   5.093   4.310  1.00  0.00     0.198 A 
HETATM   23  F3  UNL     1      22.832   5.255   4.387  1.00  0.00    -0.199 F 
HETATM   24  C17 UNL     1      24.809   3.944   4.721  1.00  0.00     0.184 A 
HETATM   25  F4  UNL     1      24.006   2.962   5.214  1.00  0.00    -0.200 F 
ENDBRANCH  14  16
ENDBRANCH  13  14
BRANCH   1  26
HETATM   26  C3  UNL     1      30.868   0.707   7.022  1.00  0.00     0.133 C 
BRANCH  26  27
HETATM   27  N1  UNL     1      32.100   1.378   6.894  1.00  0.00    -0.395 N 
HETATM   28  C1  UNL     1      32.124   2.603   6.181  1.00  0.00     0.148 C 
HETATM   29  C2  UNL     1      33.285   0.592   6.872  1.00  0.00     0.148 C 
ENDBRANCH  26  27
ENDBRANCH   1  26
TORSDOF 4
ENDMDL
MODEL 3
REMARK VINA RESULT: -7.155969666      0.796      1.005
REMARK  4 active torsions:
REMARK  status: ('A' for Active; 'I' for Inactive)
REMARK    1  A    between atoms: N1_2  and  C3_4 
REMARK    2  A    between atoms: C3_4  and  C4_5 
REMARK    3  A    between atoms: C11_17  and  N4_18 
REMARK    4  A    between atoms: N4_18  and  C12_20 
ROOT
HETATM    1  C4  UNL     1      30.279   1.785   5.029  1.00  0.00     0.123 A 
HETATM    2  N2  UNL     1      28.949   1.857   5.177  1.00  0.00    -0.342 N 
ATOM      3  H2  UNL     1      28.573   2.293   6.019  1.00  0.00     0.167 HD
HETATM    4  C5  UNL     1      28.072   1.366   4.240  1.00  0.00     0.045 A 
HETATM    5  C6  UNL     1      28.591   0.786   3.120  1.00  0.00     0.035 A 
HETATM    6  C7  UNL     1      29.965   0.699   2.942  1.00  0.00     0.255 A 
HETATM    7  O1  UNL     1      30.412   0.162   1.906  1.00  0.00    -0.268 OA
HETATM    8  N3  UNL     1      30.751   1.206   3.910  1.00  0.00    -0.308 N 
ATOM      9  H3  UNL     1      31.763   1.146   3.788  1.00  0.00     0.170 HD
HETATM   10  C8  UNL     1      27.695   0.242   2.054  1.00  0.00     0.046 C 
HETATM   11  C9  UNL     1      26.574   1.273   1.943  1.00  0.00     0.007 C 
HETATM   12  C10 UNL     1      25.824   1.399   3.224  1.00  0.00     0.032 C 
HETATM   13  C11 UNL     1      26.618   1.466   4.470  1.00  0.00     0.132 C 
ENDROOT
BRANCH  13  14
HETATM   14  N4  UNL     1      26.376   2.676   5.239  1.00  0.00    -0.377 N 
ATOM     15  H4  UNL     1      26.651   2.669   6.221  1.00  0.00     0.160 HD
BRANCH  14  16
HETATM   16  C12 UNL     1      25.791   3.858   4.741  1.00  0.00     0.074 A 
HETATM   17  C13 UNL     1      24.443   4.140   4.736  1.00  0.00     0.078 A 
HETATM   18  C14 UNL     1      23.938   5.329   4.238  1.00  0.00     0.160 A 
HETATM   19  F1  UNL     1      22.609   5.568   4.251  1.00  0.00    -0.203 F 
HETATM   20  C15 UNL     1      24.772   6.291   3.719  1.00  0.00     0.196 A 
HETATM   21  F2  UNL     1      24.270   7.471   3.225  1.00  0.00    -0.199 F 
HETATM   22  C16 UNL     1      26.123   6.035   3.713  1.00  0.00     0.198 A 
HETATM   23  F3  UNL     1      26.945   6.996   3.197  1.00  0.00    -0.199 F 
HETATM   24  C17 UNL     1      26.604   4.852   4.211  1.00  0.00     0.184 A 
HETATM   25  F4  UNL     1      27.954   4.680   4.166  1.00  0.00    -0.200 F 
ENDBRANCH  14  16
ENDBRANCH  13  14
BRANCH   1  26
HETATM   26  C3  UNL     1      31.206   2.321   6.061  1.00  0.00     0.133 C 
BRANCH  26  27
HETATM   27  N1  UNL     1      31.929   1.363   6.799  1.00  0.00    -0.395 N 
HETATM   28  C1  UNL     1      33.268   1.095   6.418  1.00  0.00     0.148 C 
HETATM   29  C2  UNL     1      31.200   0.298   7.398  1.00  0.00     0.148 C 
ENDBRANCH  26  27
ENDBRANCH   1  26
TORSDOF 4
ENDMDL
MODEL 4
REMARK VINA RESULT: -7.069927043      0.969      2.120
REMARK  4 active torsions:
REMARK  status: ('A' for Active; 'I' for Inactive)
REMARK    1  A    between atoms: N1_2  and  C3_4 
REMARK    2  A    between atoms: C3_4  and  C4_5 
REMARK    3  A    between atoms: C11_17  and  N4_18 
REMARK    4  A    between atoms: N4_18  and  C12_20 
ROOT
HETATM    1  C4  UNL     1      30.231   1.757   5.005  1.00  0.00     0.123 A 
HETATM    2  N2  UNL     1      28.903   1.848   5.168  1.00  0.00    -0.342 N 
ATOM      3  H2  UNL     1      28.544   2.300   6.010  1.00  0.00     0.167 HD
HETATM    4  C5  UNL     1      28.008   1.359   4.248  1.00  0.00     0.045 A 
HETATM    5  C6  UNL     1      28.506   0.757   3.129  1.00  0.00     0.035 A 
HETATM    6  C7  UNL     1      29.876   0.650   2.936  1.00  0.00     0.255 A 
HETATM    7  O1  UNL     1      30.303   0.094   1.901  1.00  0.00    -0.268 OA
HETATM    8  N3  UNL     1      30.681   1.157   3.888  1.00  0.00    -0.308 N 
ATOM      9  H3  UNL     1      31.690   1.082   3.754  1.00  0.00     0.170 HD
HETATM   10  C8  UNL     1      27.589   0.213   2.081  1.00  0.00     0.046 C 
HETATM   11  C9  UNL     1      26.481   1.257   1.971  1.00  0.00     0.007 C 
HETATM   12  C10 UNL     1      25.749   1.409   3.260  1.00  0.00     0.032 C 
HETATM   13  C11 UNL     1      26.559   1.482   4.494  1.00  0.00     0.132 C 
ENDROOT
BRANCH  13  14
HETATM   14  N4  UNL     1      26.342   2.704   5.251  1.00  0.00    -0.377 N 
ATOM     15  H4  UNL     1      26.555   2.681   6.248  1.00  0.00     0.160 HD
BRANCH  14  16
HETATM   16  C12 UNL     1      25.863   3.919   4.722  1.00  0.00     0.074 A 
HETATM   17  C13 UNL     1      26.645   4.917   4.182  1.00  0.00     0.078 A 
HETATM   18  C14 UNL     1      26.104   6.084   3.671  1.00  0.00     0.160 A 
HETATM   19  F1  UNL     1      26.904   7.038   3.149  1.00  0.00    -0.203 F 
HETATM   20  C15 UNL     1      24.746   6.301   3.680  1.00  0.00     0.196 A 
HETATM   21  F2  UNL     1      24.211   7.459   3.172  1.00  0.00    -0.199 F 
HETATM   22  C16 UNL     1      23.943   5.320   4.214  1.00  0.00     0.198 A 
HETATM   23  F3  UNL     1      22.596   5.542   4.219  1.00  0.00    -0.199 F 
HETATM   24  C17 UNL     1      24.497   4.170   4.715  1.00  0.00     0.184 A 
HETATM   25  F4  UNL     1      23.630   3.252   5.224  1.00  0.00    -0.200 F 
ENDBRANCH  14  16
ENDBRANCH  13  14
BRANCH   1  26
HETATM   26  C3  UNL     1      31.177   2.293   6.019  1.00  0.00     0.133 C 
BRANCH  26  27
HETATM   27  N1  UNL     1      31.858   1.334   6.795  1.00  0.00    -0.395 N 
HETATM   28  C1  UNL     1      33.206   1.043   6.467  1.00  0.00     0.148 C 
HETATM   29  C2  UNL     1      31.092   0.288   7.380  1.00  0.00     0.148 C 
ENDBRANCH  26  27
ENDBRANCH   1  26
TORSDOF 4
ENDMDL
MODEL 5
REMARK VINA RESULT: -6.378982579      3.318      7.015
REMARK  4 active torsions:
REMARK  status: ('A' for Active; 'I' for Inactive)
REMARK    1  A    between atoms: N1_2  and  C3_4 
REMARK    2  A    between atoms: C3_4  and  C4_5 
REMARK    3  A    between atoms: C11_17  and  N4_18 
REMARK    4  A    between atoms: N4_18  and  C12_20 
ROOT
HETATM    1  C4  UNL     1      25.426   3.405   4.391  1.00  0.00     0.123 A 
HETATM    2  N2  UNL     1      26.760   3.410   4.261  1.00  0.00    -0.342 N 
ATOM      3  H2  UNL     1      27.302   4.092   4.792  1.00  0.00     0.167 HD
HETATM    4  C5  UNL     1      27.428   2.531   3.442  1.00  0.00     0.045 A 
HETATM    5  C6  UNL     1      26.688   1.625   2.739  1.00  0.00     0.035 A 
HETATM    6  C7  UNL     1      25.305   1.600   2.856  1.00  0.00     0.255 A 
HETATM    7  O1  UNL     1      24.654   0.759   2.199  1.00  0.00    -0.268 OA
HETATM    8  N3  UNL     1      24.734   2.496   3.681  1.00  0.00    -0.308 N 
ATOM      9  H3  UNL     1      23.718   2.485   3.773  1.00  0.00     0.170 HD
HETATM   10  C8  UNL     1      27.350   0.632   1.838  1.00  0.00     0.046 C 
HETATM   11  C9  UNL     1      28.587   0.187   2.613  1.00  0.00     0.007 C 
HETATM   12  C10 UNL     1      29.506   1.331   2.873  1.00  0.00     0.032 C 
HETATM   13  C11 UNL     1      28.897   2.596   3.335  1.00  0.00     0.132 C 
ENDROOT
BRANCH  13  14
HETATM   14  N4  UNL     1      29.413   3.045   4.619  1.00  0.00    -0.377 N 
ATOM     15  H4  UNL     1      29.060   3.930   4.981  1.00  0.00     0.160 HD
BRANCH  14  16
HETATM   16  C12 UNL     1      30.361   2.358   5.404  1.00  0.00     0.074 A 
HETATM   17  C13 UNL     1      31.724   2.556   5.363  1.00  0.00     0.078 A 
HETATM   18  C14 UNL     1      32.597   1.850   6.172  1.00  0.00     0.160 A 
HETATM   19  F1  UNL     1      33.927   2.073   6.102  1.00  0.00    -0.203 F 
HETATM   20  C15 UNL     1      32.137   0.908   7.062  1.00  0.00     0.196 A 
HETATM   21  F2  UNL     1      33.005   0.208   7.864  1.00  0.00    -0.199 F 
HETATM   22  C16 UNL     1      30.780   0.692   7.123  1.00  0.00     0.198 A 
HETATM   23  F3  UNL     1      30.330  -0.244   8.010  1.00  0.00    -0.199 F 
HETATM   24  C17 UNL     1      29.930   1.401   6.314  1.00  0.00     0.184 A 
HETATM   25  F4  UNL     1      28.603   1.124   6.439  1.00  0.00    -0.200 F 
ENDBRANCH  14  16
ENDBRANCH  13  14
BRANCH   1  26
HETATM   26  C3  UNL     1      24.730   4.371   5.283  1.00  0.00     0.133 C 
BRANCH  26  27
HETATM   27  N1  UNL     1      23.870   5.288   4.648  1.00  0.00    -0.395 N 
HETATM   28  C1  UNL     1      22.686   4.791   4.046  1.00  0.00     0.148 C 
HETATM   29  C2  UNL     1      24.450   6.452   4.073  1.00  0.00     0.148 C 
ENDBRANCH  26  27
ENDBRANCH   1  26
TORSDOF 4
ENDMDL
