MODEL 1
REMARK VINA RESULT: -4.995560540      0.000      0.000
REMARK  5 active torsions:
REMARK  status: ('A' for Active; 'I' for Inactive)
REMARK    1  A    between atoms: S1_2  and  C2_3 
REMARK    2  A    between atoms: C2_3  and  C3_4 
REMARK    3  A    between atoms: C3_4  and  C4_5 
REMARK    4  A    between atoms: C4_5  and  N1_6 
REMARK    5  A    between atoms: N1_6  and  C5_8 
ROOT
HETATM    1  C5  UNL     1      94.202  18.984  -2.075  1.00  0.00     0.010 C 
HETATM    2  C6  UNL     1      93.215  18.438  -2.998  1.00  0.00     0.220 C 
HETATM    3  O1  UNL     1      92.984  17.094  -2.655  1.00  0.00    -0.380 OA
HETATM    4  C7  UNL     1      94.074  16.301  -2.521  1.00  0.00     0.122 C 
HETATM    5  C8  UNL     1      94.478  16.022  -1.060  1.00  0.00     0.033 C 
HETATM    6  C9  UNL     1      95.201  17.263  -0.633  1.00  0.00     0.013 C 
HETATM    7  C10 UNL     1      95.423  18.063  -1.933  1.00  0.00     0.035 C 
HETATM    8  C11 UNL     1      95.388  16.954  -2.958  1.00  0.00     0.042 C 
ENDROOT
BRANCH   1   9
HETATM    9  N1  UNL     1      94.499  20.322  -1.843  1.00  0.00    -0.394 N 
ATOM     10  H1  UNL     1      95.097  20.824  -2.499  1.00  0.00     0.159 HD
BRANCH   9  11
HETATM   11  C4  UNL     1      93.981  21.001  -0.705  1.00  0.00     0.120 C 
BRANCH  11  12
HETATM   12  C3  UNL     1      92.978  22.039  -1.088  1.00  0.00     0.029 C 
BRANCH  12  13
HETATM   13  C2  UNL     1      91.587  21.674  -1.430  1.00  0.00     0.075 C 
BRANCH  13  14
HETATM   14  S1  UNL     1      90.366  22.904  -1.036  1.00  0.00    -0.173 SA
HETATM   15  C1  UNL     1      88.881  22.341  -0.235  1.00  0.00     0.089 C 
ENDBRANCH  13  14
ENDBRANCH  12  13
ENDBRANCH  11  12
ENDBRANCH   9  11
ENDBRANCH   1   9
TORSDOF 5
ENDMDL
MODEL 2
REMARK VINA RESULT: -4.939547734      4.419      6.728
REMARK  5 active torsions:
REMARK  status: ('A' for Active; 'I' for Inactive)
REMARK    1  A    between atoms: S1_2  and  C2_3 
REMARK    2  A    between atoms: C2_3  and  C3_4 
REMARK    3  A    between atoms: C3_4  and  C4_5 
REMARK    4  A    between atoms: C4_5  and  N1_6 
REMARK    5  A    between atoms: N1_6  and  C5_8 
ROOT
HETATM    1  C5  UNL     1      94.226  16.372  -1.874  1.00  0.00     0.010 C 
HETATM    2  C6  UNL     1      94.889  16.169  -0.591  1.00  0.00     0.220 C 
HETATM    3  O1  UNL     1      95.109  17.426  -0.002  1.00  0.00    -0.380 OA
HETATM    4  C7  UNL     1      95.721  18.361  -0.766  1.00  0.00     0.122 C 
HETATM    5  C8  UNL     1      94.769  19.424  -1.350  1.00  0.00     0.033 C 
HETATM    6  C9  UNL     1      94.125  18.742  -2.518  1.00  0.00     0.013 C 
HETATM    7  C10 UNL     1      94.934  17.443  -2.718  1.00  0.00     0.035 C 
HETATM    8  C11 UNL     1      96.256  17.835  -2.100  1.00  0.00     0.042 C 
ENDROOT
BRANCH   1   9
HETATM    9  N1  UNL     1      93.554  15.429  -2.642  1.00  0.00    -0.394 N 
ATOM     10  H1  UNL     1      92.540  15.348  -2.563  1.00  0.00     0.159 HD
BRANCH   9  11
HETATM   11  C4  UNL     1      94.259  14.575  -3.537  1.00  0.00     0.120 C 
BRANCH  11  12
HETATM   12  C3  UNL     1      94.508  13.231  -2.938  1.00  0.00     0.029 C 
BRANCH  12  13
HETATM   13  C2  UNL     1      93.479  12.548  -2.126  1.00  0.00     0.075 C 
BRANCH  13  14
HETATM   14  S1  UNL     1      93.463  10.776  -2.262  1.00  0.00    -0.173 SA
HETATM   15  C1  UNL     1      91.891   9.965  -2.078  1.00  0.00     0.089 C 
ENDBRANCH  13  14
ENDBRANCH  12  13
ENDBRANCH  11  12
ENDBRANCH   9  11
ENDBRANCH   1   9
TORSDOF 5
ENDMDL
MODEL 3
REMARK VINA RESULT: -4.850924867      4.441      6.898
REMARK  5 active torsions:
REMARK  status: ('A' for Active; 'I' for Inactive)
REMARK    1  A    between atoms: S1_2  and  C2_3 
REMARK    2  A    between atoms: C2_3  and  C3_4 
REMARK    3  A    between atoms: C3_4  and  C4_5 
REMARK    4  A    between atoms: C4_5  and  N1_6 
REMARK    5  A    between atoms: N1_6  and  C5_8 
ROOT
HETATM    1  C5  UNL     1      94.205  16.416  -1.877  1.00  0.00     0.010 C 
HETATM    2  C6  UNL     1      94.829  16.166  -0.582  1.00  0.00     0.220 C 
HETATM    3  O1  UNL     1      95.061  17.403   0.044  1.00  0.00    -0.380 OA
HETATM    4  C7  UNL     1      95.714  18.342  -0.681  1.00  0.00     0.122 C 
HETATM    5  C8  UNL     1      94.802  19.440  -1.262  1.00  0.00     0.033 C 
HETATM    6  C9  UNL     1      94.175  18.802  -2.463  1.00  0.00     0.013 C 
HETATM    7  C10 UNL     1      94.959  17.490  -2.675  1.00  0.00     0.035 C 
HETATM    8  C11 UNL     1      96.272  17.836  -2.013  1.00  0.00     0.042 C 
ENDROOT
BRANCH   1   9
HETATM    9  N1  UNL     1      93.533  15.508  -2.685  1.00  0.00    -0.394 N 
ATOM     10  H1  UNL     1      92.533  15.357  -2.548  1.00  0.00     0.159 HD
BRANCH   9  11
HETATM   11  C4  UNL     1      94.218  14.784  -3.702  1.00  0.00     0.120 C 
BRANCH  11  12
HETATM   12  C3  UNL     1      94.641  13.433  -3.231  1.00  0.00     0.029 C 
BRANCH  12  13
HETATM   13  C2  UNL     1      93.745  12.589  -2.412  1.00  0.00     0.075 C 
BRANCH  13  14
HETATM   14  S1  UNL     1      93.996  10.837  -2.579  1.00  0.00    -0.173 SA
HETATM   15  C1  UNL     1      95.608  10.298  -3.101  1.00  0.00     0.089 C 
ENDBRANCH  13  14
ENDBRANCH  12  13
ENDBRANCH  11  12
ENDBRANCH   9  11
ENDBRANCH   1   9
TORSDOF 5
ENDMDL
MODEL 4
REMARK VINA RESULT: -4.829402145      3.498      4.490
REMARK  5 active torsions:
REMARK  status: ('A' for Active; 'I' for Inactive)
REMARK    1  A    between atoms: S1_2  and  C2_3 
REMARK    2  A    between atoms: C2_3  and  C3_4 
REMARK    3  A    between atoms: C3_4  and  C4_5 
REMARK    4  A    between atoms: C4_5  and  N1_6 
REMARK    5  A    between atoms: N1_6  and  C5_8 
ROOT
HETATM    1  C5  UNL     1      93.435  16.286  -3.174  1.00  0.00     0.010 C 
HETATM    2  C6  UNL     1      92.344  15.495  -3.733  1.00  0.00     0.220 C 
HETATM    3  O1  UNL     1      92.082  14.424  -2.860  1.00  0.00    -0.380 OA
HETATM    4  C7  UNL     1      93.141  13.668  -2.485  1.00  0.00     0.122 C 
HETATM    5  C8  UNL     1      93.660  13.966  -1.065  1.00  0.00     0.033 C 
HETATM    6  C9  UNL     1      94.476  15.212  -1.224  1.00  0.00     0.013 C 
HETATM    7  C10 UNL     1      94.619  15.405  -2.748  1.00  0.00     0.035 C 
HETATM    8  C11 UNL     1      94.439  13.985  -3.230  1.00  0.00     0.042 C 
ENDROOT
BRANCH   1   9
HETATM    9  N1  UNL     1      93.814  17.576  -3.523  1.00  0.00    -0.394 N 
ATOM     10  H1  UNL     1      94.214  17.750  -4.446  1.00  0.00     0.159 HD
BRANCH   9  11
HETATM   11  C4  UNL     1      93.652  18.660  -2.614  1.00  0.00     0.120 C 
BRANCH  11  12
HETATM   12  C3  UNL     1      94.954  19.081  -2.018  1.00  0.00     0.029 C 
BRANCH  12  13
HETATM   13  C2  UNL     1      95.287  18.784  -0.609  1.00  0.00     0.075 C 
BRANCH  13  14
HETATM   14  S1  UNL     1      96.848  17.970  -0.358  1.00  0.00    -0.173 SA
HETATM   15  C1  UNL     1      97.176  17.336   1.270  1.00  0.00     0.089 C 
ENDBRANCH  13  14
ENDBRANCH  12  13
ENDBRANCH  11  12
ENDBRANCH   9  11
ENDBRANCH   1   9
TORSDOF 5
ENDMDL
MODEL 5
REMARK VINA RESULT: -4.802788104      4.071      5.983
REMARK  5 active torsions:
REMARK  status: ('A' for Active; 'I' for Inactive)
REMARK    1  A    between atoms: S1_2  and  C2_3 
REMARK    2  A    between atoms: C2_3  and  C3_4 
REMARK    3  A    between atoms: C3_4  and  C4_5 
REMARK    4  A    between atoms: C4_5  and  N1_6 
REMARK    5  A    between atoms: N1_6  and  C5_8 
ROOT
HETATM    1  C5  UNL     1      95.700  17.661  -0.768  1.00  0.00     0.010 C 
HETATM    2  C6  UNL     1      94.578  16.739  -0.625  1.00  0.00     0.220 C 
HETATM    3  O1  UNL     1      94.303  16.178  -1.884  1.00  0.00    -0.380 OA
HETATM    4  C7  UNL     1      94.146  17.040  -2.916  1.00  0.00     0.122 C 
HETATM    5  C8  UNL     1      95.369  17.139  -3.850  1.00  0.00     0.033 C 
HETATM    6  C9  UNL     1      96.323  18.031  -3.116  1.00  0.00     0.013 C 
HETATM    7  C10 UNL     1      95.502  18.621  -1.950  1.00  0.00     0.035 C 
HETATM    8  C11 UNL     1      94.102  18.514  -2.508  1.00  0.00     0.042 C 
ENDROOT
BRANCH   1   9
HETATM    9  N1  UNL     1      96.495  18.193   0.239  1.00  0.00    -0.394 N 
ATOM     10  H1  UNL     1      96.188  19.032   0.732  1.00  0.00     0.159 HD
BRANCH   9  11
HETATM   11  C4  UNL     1      97.732  17.585   0.595  1.00  0.00     0.120 C 
BRANCH  11  12
HETATM   12  C3  UNL     1      97.557  16.557   1.664  1.00  0.00     0.029 C 
BRANCH  12  13
HETATM   13  C2  UNL     1      97.938  15.146   1.443  1.00  0.00     0.075 C 
BRANCH  13  14
HETATM   14  S1  UNL     1      96.586  14.041   1.110  1.00  0.00    -0.173 SA
HETATM   15  C1  UNL     1      96.075  12.967   2.432  1.00  0.00     0.089 C 
ENDBRANCH  13  14
ENDBRANCH  12  13
ENDBRANCH  11  12
ENDBRANCH   9  11
ENDBRANCH   1   9
TORSDOF 5
ENDMDL
