MODEL 1
REMARK VINA RESULT: -8.302289756      0.000      0.000
REMARK  8 active torsions:
REMARK  status: ('A' for Active; 'I' for Inactive)
REMARK    1  A    between atoms: C2_2  and  C3_3 
REMARK    2  A    between atoms: C3_3  and  C4_4 
REMARK    3  A    between atoms: C9_10  and  C11_12 
REMARK    4  A    between atoms: C11_12  and  C12_13 
REMARK       I    between atoms: C12_13  and  N1_15 
REMARK    5  A    between atoms: N1_15  and  C13_17 
REMARK    6  A    between atoms: C22_28  and  C23_29 
REMARK    7  A    between atoms: C26_32  and  C27_33 
REMARK    8  A    between atoms: C27_33  and  C28_34 
ROOT
HETATM    1  C3  UNL     1      38.314   2.414  15.130  1.00  0.00     0.038 C 
HETATM    2  C6  UNL     1      38.480   2.699  16.579  1.00  0.00    -0.006 C 
HETATM    3  C7  UNL     1      37.792   2.474  17.623  1.00  0.00     0.050 C 
HETATM    4  C8  UNL     1      36.538   1.842  17.946  1.00  0.00     0.184 C 
HETATM    5  O1  UNL     1      35.501   2.578  18.145  1.00  0.00    -0.290 OA
HETATM    6  C9  UNL     1      36.253   0.378  18.096  1.00  0.00     0.139 C 
HETATM    7  C10 UNL     1      36.174   0.126  19.630  1.00  0.00     0.056 C 
HETATM    8  O3  UNL     1      37.245  -0.295  17.529  1.00  0.00    -0.301 OA
HETATM    9  C21 UNL     1      38.444  -0.601  17.170  1.00  0.00     0.265 C 
HETATM   10  O4  UNL     1      39.430  -0.496  17.998  1.00  0.00    -0.265 OA
HETATM   11  C22 UNL     1      38.864  -1.093  15.839  1.00  0.00     0.100 C 
HETATM   12  C26 UNL     1      38.765  -0.182  14.692  1.00  0.00     0.080 C 
HETATM   13  C29 UNL     1      37.912   1.014  14.809  1.00  0.00     0.144 C 
HETATM   14  O7  UNL     1      36.682   0.905  14.619  1.00  0.00    -0.296 OA
ENDROOT
BRANCH   6  15
HETATM   15  C11 UNL     1      34.836   0.148  17.610  1.00  0.00     0.149 C 
BRANCH  15  16
HETATM   16  C12 UNL     1      34.376  -1.221  17.815  1.00  0.00     0.221 C 
HETATM   17  O2  UNL     1      34.052  -1.959  16.853  1.00  0.00    -0.273 OA
HETATM   18  N1  UNL     1      34.283  -1.749  19.124  1.00  0.00    -0.356 N 
ATOM     19  H1  UNL     1      34.545  -1.151  19.908  1.00  0.00     0.162 HD
BRANCH  18  20
HETATM   20  C13 UNL     1      33.831  -3.110  19.408  1.00  0.00     0.085 C 
HETATM   21  C14 UNL     1      34.816  -3.847  20.227  1.00  0.00     0.029 C 
HETATM   22  C15 UNL     1      34.403  -4.036  21.648  1.00  0.00    -0.012 C 
HETATM   23  C16 UNL     1      34.258  -2.715  22.377  1.00  0.00     0.005 C 
HETATM   24  C19 UNL     1      32.980  -4.581  21.753  1.00  0.00     0.009 C 
HETATM   25  C17 UNL     1      32.820  -2.283  22.140  1.00  0.00     0.005 C 
HETATM   26  C18 UNL     1      32.200  -3.375  21.301  1.00  0.00    -0.012 C 
HETATM   27  C20 UNL     1      32.420  -3.094  19.857  1.00  0.00     0.029 C 
ENDBRANCH  18  20
ENDBRANCH  15  16
ENDBRANCH   6  15
BRANCH  11  28
HETATM   28  C23 UNL     1      40.257  -1.716  15.942  1.00  0.00    -0.008 C 
HETATM   29  C24 UNL     1      41.233  -0.956  15.067  1.00  0.00     0.010 C 
HETATM   30  C25 UNL     1      40.306  -3.160  15.565  1.00  0.00     0.010 C 
ENDBRANCH  11  28
BRANCH   1  31
HETATM   31  C2  UNL     1      37.253   3.367  14.563  1.00  0.00     0.017 C 
HETATM   32  C1  UNL     1      37.365   4.788  14.959  1.00  0.00     0.006 C 
ENDBRANCH   1  31
BRANCH   1  33
HETATM   33  C4  UNL     1      39.599   2.646  14.408  1.00  0.00     0.017 C 
HETATM   34  C5  UNL     1      39.621   2.780  12.941  1.00  0.00     0.006 C 
ENDBRANCH   1  33
BRANCH  12  35
HETATM   35  C27 UNL     1      38.135  -0.901  13.462  1.00  0.00     0.126 C 
BRANCH  35  36
HETATM   36  C28 UNL     1      37.528  -2.171  13.720  1.00  0.00     0.173 C 
HETATM   37  O5  UNL     1      38.104  -3.229  13.288  1.00  0.00    -0.648 OA
HETATM   38  O6  UNL     1      36.351  -2.344  14.409  1.00  0.00    -0.648 OA
ENDBRANCH  35  36
ENDBRANCH  12  35
TORSDOF 8
ENDMDL
MODEL 2
REMARK VINA RESULT: -8.154366788      1.044      1.311
REMARK  8 active torsions:
REMARK  status: ('A' for Active; 'I' for Inactive)
REMARK    1  A    between atoms: C2_2  and  C3_3 
REMARK    2  A    between atoms: C3_3  and  C4_4 
REMARK    3  A    between atoms: C9_10  and  C11_12 
REMARK    4  A    between atoms: C11_12  and  C12_13 
REMARK       I    between atoms: C12_13  and  N1_15 
REMARK    5  A    between atoms: N1_15  and  C13_17 
REMARK    6  A    between atoms: C22_28  and  C23_29 
REMARK    7  A    between atoms: C26_32  and  C27_33 
REMARK    8  A    between atoms: C27_33  and  C28_34 
ROOT
HETATM    1  C3  UNL     1      38.162   2.608  15.260  1.00  0.00     0.038 C 
HETATM    2  C6  UNL     1      38.472   2.743  16.708  1.00  0.00    -0.006 C 
HETATM    3  C7  UNL     1      37.883   2.418  17.786  1.00  0.00     0.050 C 
HETATM    4  C8  UNL     1      36.655   1.766  18.164  1.00  0.00     0.184 C 
HETATM    5  O1  UNL     1      35.654   2.485  18.535  1.00  0.00    -0.290 OA
HETATM    6  C9  UNL     1      36.362   0.296  18.194  1.00  0.00     0.139 C 
HETATM    7  C10 UNL     1      36.425  -0.110  19.695  1.00  0.00     0.056 C 
HETATM    8  O3  UNL     1      37.283  -0.323  17.468  1.00  0.00    -0.301 OA
HETATM    9  C21 UNL     1      38.437  -0.599  16.966  1.00  0.00     0.265 C 
HETATM   10  O4  UNL     1      39.499  -0.586  17.700  1.00  0.00    -0.265 OA
HETATM   11  C22 UNL     1      38.720  -0.957  15.558  1.00  0.00     0.100 C 
HETATM   12  C26 UNL     1      38.526   0.066  14.522  1.00  0.00     0.080 C 
HETATM   13  C29 UNL     1      37.709   1.250  14.841  1.00  0.00     0.144 C 
HETATM   14  O7  UNL     1      36.464   1.169  14.761  1.00  0.00    -0.296 OA
ENDROOT
BRANCH   6  15
HETATM   15  C11 UNL     1      34.901   0.126  17.826  1.00  0.00     0.149 C 
BRANCH  15  16
HETATM   16  C12 UNL     1      34.423  -1.241  17.996  1.00  0.00     0.221 C 
HETATM   17  O2  UNL     1      34.080  -1.947  17.016  1.00  0.00    -0.273 OA
HETATM   18  N1  UNL     1      34.336  -1.807  19.289  1.00  0.00    -0.356 N 
ATOM     19  H1  UNL     1      34.614  -1.236  20.088  1.00  0.00     0.162 HD
BRANCH  18  20
HETATM   20  C13 UNL     1      33.868  -3.169  19.538  1.00  0.00     0.085 C 
HETATM   21  C14 UNL     1      34.827  -3.927  20.368  1.00  0.00     0.029 C 
HETATM   22  C15 UNL     1      34.378  -4.138  21.774  1.00  0.00    -0.012 C 
HETATM   23  C16 UNL     1      34.224  -2.829  22.523  1.00  0.00     0.005 C 
HETATM   24  C19 UNL     1      32.949  -4.675  21.835  1.00  0.00     0.009 C 
HETATM   25  C17 UNL     1      32.796  -2.383  22.259  1.00  0.00     0.005 C 
HETATM   26  C18 UNL     1      32.189  -3.455  21.386  1.00  0.00    -0.012 C 
HETATM   27  C20 UNL     1      32.447  -3.151  19.953  1.00  0.00     0.029 C 
ENDBRANCH  18  20
ENDBRANCH  15  16
ENDBRANCH   6  15
BRANCH  11  28
HETATM   28  C23 UNL     1      40.105  -1.597  15.462  1.00  0.00    -0.008 C 
HETATM   29  C24 UNL     1      40.982  -0.802  14.516  1.00  0.00     0.010 C 
HETATM   30  C25 UNL     1      40.087  -3.020  15.010  1.00  0.00     0.010 C 
ENDBRANCH  11  28
BRANCH   1  31
HETATM   31  C2  UNL     1      37.068   3.620  14.897  1.00  0.00     0.017 C 
HETATM   32  C1  UNL     1      37.017   4.054  13.483  1.00  0.00     0.006 C 
ENDBRANCH   1  31
BRANCH   1  33
HETATM   33  C4  UNL     1      39.376   2.903  14.445  1.00  0.00     0.017 C 
HETATM   34  C5  UNL     1      40.239   4.052  14.773  1.00  0.00     0.006 C 
ENDBRANCH   1  33
BRANCH  12  35
HETATM   35  C27 UNL     1      37.769  -0.520  13.294  1.00  0.00     0.126 C 
BRANCH  35  36
HETATM   36  C28 UNL     1      37.926   0.191  12.062  1.00  0.00     0.173 C 
HETATM   37  O5  UNL     1      36.879   0.555  11.421  1.00  0.00    -0.648 OA
HETATM   38  O6  UNL     1      39.139   0.520  11.504  1.00  0.00    -0.648 OA
ENDBRANCH  35  36
ENDBRANCH  12  35
TORSDOF 8
ENDMDL
MODEL 3
REMARK VINA RESULT: -7.957025579      0.972      1.120
REMARK  8 active torsions:
REMARK  status: ('A' for Active; 'I' for Inactive)
REMARK    1  A    between atoms: C2_2  and  C3_3 
REMARK    2  A    between atoms: C3_3  and  C4_4 
REMARK    3  A    between atoms: C9_10  and  C11_12 
REMARK    4  A    between atoms: C11_12  and  C12_13 
REMARK       I    between atoms: C12_13  and  N1_15 
REMARK    5  A    between atoms: N1_15  and  C13_17 
REMARK    6  A    between atoms: C22_28  and  C23_29 
REMARK    7  A    between atoms: C26_32  and  C27_33 
REMARK    8  A    between atoms: C27_33  and  C28_34 
ROOT
HETATM    1  C3  UNL     1      38.062   1.699  14.349  1.00  0.00     0.038 C 
HETATM    2  C6  UNL     1      38.631   2.444  15.503  1.00  0.00    -0.006 C 
HETATM    3  C7  UNL     1      38.284   2.629  16.711  1.00  0.00     0.050 C 
HETATM    4  C8  UNL     1      37.202   2.227  17.573  1.00  0.00     0.184 C 
HETATM    5  O1  UNL     1      36.240   3.053  17.795  1.00  0.00    -0.290 OA
HETATM    6  C9  UNL     1      37.028   0.921  18.288  1.00  0.00     0.139 C 
HETATM    7  C10 UNL     1      37.406   1.206  19.771  1.00  0.00     0.056 C 
HETATM    8  O3  UNL     1      37.836   0.033  17.727  1.00  0.00    -0.301 OA
HETATM    9  C21 UNL     1      38.891  -0.454  17.169  1.00  0.00     0.265 C 
HETATM   10  O4  UNL     1      40.070  -0.142  17.594  1.00  0.00    -0.265 OA
HETATM   11  C22 UNL     1      38.925  -1.393  16.025  1.00  0.00     0.100 C 
HETATM   12  C26 UNL     1      38.463  -0.917  14.714  1.00  0.00     0.080 C 
HETATM   13  C29 UNL     1      37.638   0.302  14.654  1.00  0.00     0.144 C 
HETATM   14  O7  UNL     1      36.410   0.216  14.871  1.00  0.00    -0.296 OA
ENDROOT
BRANCH   6  15
HETATM   15  C11 UNL     1      35.540   0.634  18.335  1.00  0.00     0.149 C 
BRANCH  15  16
HETATM   16  C12 UNL     1      35.233  -0.791  18.367  1.00  0.00     0.221 C 
HETATM   17  O2  UNL     1      35.254  -1.494  17.327  1.00  0.00    -0.273 OA
HETATM   18  N1  UNL     1      34.901  -1.418  19.590  1.00  0.00    -0.356 N 
ATOM     19  H1  UNL     1      34.882  -0.850  20.437  1.00  0.00     0.162 HD
BRANCH  18  20
HETATM   20  C13 UNL     1      34.581  -2.841  19.701  1.00  0.00     0.085 C 
HETATM   21  C14 UNL     1      35.328  -3.477  20.805  1.00  0.00     0.029 C 
HETATM   22  C15 UNL     1      34.491  -3.793  22.000  1.00  0.00    -0.012 C 
HETATM   23  C16 UNL     1      33.918  -2.543  22.637  1.00  0.00     0.005 C 
HETATM   24  C19 UNL     1      33.212  -4.531  21.612  1.00  0.00     0.009 C 
HETATM   25  C17 UNL     1      32.598  -2.299  21.925  1.00  0.00     0.005 C 
HETATM   26  C18 UNL     1      32.464  -3.421  20.923  1.00  0.00    -0.012 C 
HETATM   27  C20 UNL     1      33.116  -3.039  19.641  1.00  0.00     0.029 C 
ENDBRANCH  18  20
ENDBRANCH  15  16
ENDBRANCH   6  15
BRANCH  11  28
HETATM   28  C23 UNL     1      40.310  -2.035  15.932  1.00  0.00    -0.008 C 
HETATM   29  C24 UNL     1      41.099  -1.410  14.800  1.00  0.00     0.010 C 
HETATM   30  C25 UNL     1      40.282  -3.514  15.733  1.00  0.00     0.010 C 
ENDBRANCH  11  28
BRANCH   1  31
HETATM   31  C2  UNL     1      36.848   2.472  13.818  1.00  0.00     0.017 C 
HETATM   32  C1  UNL     1      37.095   3.861  13.374  1.00  0.00     0.006 C 
ENDBRANCH   1  31
BRANCH   1  33
HETATM   33  C4  UNL     1      39.074   1.589  13.257  1.00  0.00     0.017 C 
HETATM   34  C5  UNL     1      40.462   2.031  13.476  1.00  0.00     0.006 C 
ENDBRANCH   1  33
BRANCH  12  35
HETATM   35  C27 UNL     1      37.531  -1.965  14.038  1.00  0.00     0.126 C 
BRANCH  35  36
HETATM   36  C28 UNL     1      38.184  -3.057  13.382  1.00  0.00     0.173 C 
HETATM   37  O5  UNL     1      37.856  -4.253  13.699  1.00  0.00    -0.648 OA
HETATM   38  O6  UNL     1      39.156  -2.916  12.420  1.00  0.00    -0.648 OA
ENDBRANCH  35  36
ENDBRANCH  12  35
TORSDOF 8
ENDMDL
MODEL 4
REMARK VINA RESULT: -7.706420646      1.547      2.332
REMARK  8 active torsions:
REMARK  status: ('A' for Active; 'I' for Inactive)
REMARK    1  A    between atoms: C2_2  and  C3_3 
REMARK    2  A    between atoms: C3_3  and  C4_4 
REMARK    3  A    between atoms: C9_10  and  C11_12 
REMARK    4  A    between atoms: C11_12  and  C12_13 
REMARK       I    between atoms: C12_13  and  N1_15 
REMARK    5  A    between atoms: N1_15  and  C13_17 
REMARK    6  A    between atoms: C22_28  and  C23_29 
REMARK    7  A    between atoms: C26_32  and  C27_33 
REMARK    8  A    between atoms: C27_33  and  C28_34 
ROOT
HETATM    1  C3  UNL     1      38.243   0.716  13.650  1.00  0.00     0.038 C 
HETATM    2  C6  UNL     1      38.835   1.650  14.643  1.00  0.00    -0.006 C 
HETATM    3  C7  UNL     1      38.561   1.981  15.839  1.00  0.00     0.050 C 
HETATM    4  C8  UNL     1      37.574   1.637  16.831  1.00  0.00     0.184 C 
HETATM    5  O1  UNL     1      36.572   2.424  17.014  1.00  0.00    -0.290 OA
HETATM    6  C9  UNL     1      37.547   0.436  17.728  1.00  0.00     0.139 C 
HETATM    7  C10 UNL     1      38.006   0.950  19.123  1.00  0.00     0.056 C 
HETATM    8  O3  UNL     1      38.377  -0.469  17.230  1.00  0.00    -0.301 OA
HETATM    9  C21 UNL     1      39.423  -0.962  16.661  1.00  0.00     0.265 C 
HETATM   10  O4  UNL     1      40.603  -0.520  16.944  1.00  0.00    -0.265 OA
HETATM   11  C22 UNL     1      39.446  -2.049  15.655  1.00  0.00     0.100 C 
HETATM   12  C26 UNL     1      38.860  -1.792  14.333  1.00  0.00     0.080 C 
HETATM   13  C29 UNL     1      37.944  -0.649  14.174  1.00  0.00     0.144 C 
HETATM   14  O7  UNL     1      36.744  -0.780  14.498  1.00  0.00    -0.296 OA
ENDROOT
BRANCH   6  15
HETATM   15  C11 UNL     1      36.091   0.065  17.931  1.00  0.00     0.149 C 
BRANCH  15  16
HETATM   16  C12 UNL     1      35.760  -0.210  19.324  1.00  0.00     0.221 C 
HETATM   17  O2  UNL     1      35.543   0.714  20.146  1.00  0.00    -0.273 OA
HETATM   18  N1  UNL     1      35.675  -1.546  19.783  1.00  0.00    -0.356 N 
ATOM     19  H1  UNL     1      35.852  -2.299  19.118  1.00  0.00     0.162 HD
BRANCH  18  20
HETATM   20  C13 UNL     1      35.349  -1.900  21.163  1.00  0.00     0.085 C 
HETATM   21  C14 UNL     1      33.897  -2.105  21.340  1.00  0.00     0.029 C 
HETATM   22  C15 UNL     1      33.501  -3.535  21.493  1.00  0.00    -0.012 C 
HETATM   23  C16 UNL     1      33.824  -4.349  20.256  1.00  0.00     0.005 C 
HETATM   24  C19 UNL     1      34.357  -4.247  22.538  1.00  0.00     0.009 C 
HETATM   25  C17 UNL     1      35.246  -4.844  20.463  1.00  0.00     0.005 C 
HETATM   26  C18 UNL     1      35.672  -4.307  21.808  1.00  0.00    -0.012 C 
HETATM   27  C20 UNL     1      36.269  -2.953  21.650  1.00  0.00     0.029 C 
ENDBRANCH  18  20
ENDBRANCH  15  16
ENDBRANCH   6  15
BRANCH  11  28
HETATM   28  C23 UNL     1      40.864  -2.608  15.541  1.00  0.00    -0.008 C 
HETATM   29  C24 UNL     1      41.505  -2.143  14.250  1.00  0.00     0.010 C 
HETATM   30  C25 UNL     1      40.935  -4.099  15.597  1.00  0.00     0.010 C 
ENDBRANCH  11  28
BRANCH   1  31
HETATM   31  C2  UNL     1      36.941   1.328  13.117  1.00  0.00     0.017 C 
HETATM   32  C1  UNL     1      37.065   2.615  12.399  1.00  0.00     0.006 C 
ENDBRANCH   1  31
BRANCH   1  33
HETATM   33  C4  UNL     1      39.181   0.518  12.507  1.00  0.00     0.017 C 
HETATM   34  C5  UNL     1      40.543   1.078  12.549  1.00  0.00     0.006 C 
ENDBRANCH   1  33
BRANCH  12  35
HETATM   35  C27 UNL     1      37.962  -2.982  13.881  1.00  0.00     0.126 C 
BRANCH  35  36
HETATM   36  C28 UNL     1      38.644  -4.102  13.309  1.00  0.00     0.173 C 
HETATM   37  O5  UNL     1      39.434  -3.904  12.321  1.00  0.00    -0.648 OA
HETATM   38  O6  UNL     1      38.514  -5.398  13.748  1.00  0.00    -0.648 OA
ENDBRANCH  35  36
ENDBRANCH  12  35
TORSDOF 8
ENDMDL
MODEL 5
REMARK VINA RESULT: -7.630523805      2.846      5.980
REMARK  8 active torsions:
REMARK  status: ('A' for Active; 'I' for Inactive)
REMARK    1  A    between atoms: C2_2  and  C3_3 
REMARK    2  A    between atoms: C3_3  and  C4_4 
REMARK    3  A    between atoms: C9_10  and  C11_12 
REMARK    4  A    between atoms: C11_12  and  C12_13 
REMARK       I    between atoms: C12_13  and  N1_15 
REMARK    5  A    between atoms: N1_15  and  C13_17 
REMARK    6  A    between atoms: C22_28  and  C23_29 
REMARK    7  A    between atoms: C26_32  and  C27_33 
REMARK    8  A    between atoms: C27_33  and  C28_34 
ROOT
HETATM    1  C3  UNL     1      40.646   1.395  12.214  1.00  0.00     0.038 C 
HETATM    2  C6  UNL     1      39.975   0.274  11.504  1.00  0.00    -0.006 C 
HETATM    3  C7  UNL     1      39.622  -0.905  11.820  1.00  0.00     0.050 C 
HETATM    4  C8  UNL     1      39.674  -1.747  12.988  1.00  0.00     0.184 C 
HETATM    5  O1  UNL     1      40.595  -2.641  13.073  1.00  0.00    -0.290 OA
HETATM    6  C9  UNL     1      38.760  -1.733  14.177  1.00  0.00     0.139 C 
HETATM    7  C10 UNL     1      37.813  -2.952  13.986  1.00  0.00     0.056 C 
HETATM    8  O3  UNL     1      38.102  -0.583  14.178  1.00  0.00    -0.301 OA
HETATM    9  C21 UNL     1      37.470   0.445  13.725  1.00  0.00     0.265 C 
HETATM   10  O4  UNL     1      36.589   0.322  12.790  1.00  0.00    -0.265 OA
HETATM   11  C22 UNL     1      37.636   1.846  14.174  1.00  0.00     0.100 C 
HETATM   12  C26 UNL     1      38.910   2.523  13.902  1.00  0.00     0.080 C 
HETATM   13  C29 UNL     1      40.088   1.706  13.562  1.00  0.00     0.144 C 
HETATM   14  O7  UNL     1      40.752   1.182  14.483  1.00  0.00    -0.296 OA
ENDROOT
BRANCH   6  15
HETATM   15  C11 UNL     1      39.598  -2.101  15.386  1.00  0.00     0.149 C 
BRANCH  15  16
HETATM   16  C12 UNL     1      39.547  -1.100  16.444  1.00  0.00     0.221 C 
HETATM   17  O2  UNL     1      40.587  -0.552  16.886  1.00  0.00    -0.273 OA
HETATM   18  N1  UNL     1      38.304  -0.720  17.002  1.00  0.00    -0.356 N 
ATOM     19  H1  UNL     1      37.457  -1.163  16.646  1.00  0.00     0.162 HD
BRANCH  18  20
HETATM   20  C13 UNL     1      38.174   0.276  18.065  1.00  0.00     0.085 C 
HETATM   21  C14 UNL     1      37.568   1.526  17.562  1.00  0.00     0.029 C 
HETATM   22  C15 UNL     1      36.155   1.732  17.993  1.00  0.00    -0.012 C 
HETATM   23  C16 UNL     1      35.235   0.655  17.455  1.00  0.00     0.005 C 
HETATM   24  C19 UNL     1      35.991   1.527  19.498  1.00  0.00     0.009 C 
HETATM   25  C17 UNL     1      35.267  -0.454  18.495  1.00  0.00     0.005 C 
HETATM   26  C18 UNL     1      36.188   0.037  19.585  1.00  0.00    -0.012 C 
HETATM   27  C20 UNL     1      37.592  -0.345  19.276  1.00  0.00     0.029 C 
ENDBRANCH  18  20
ENDBRANCH  15  16
ENDBRANCH   6  15
BRANCH  11  28
HETATM   28  C23 UNL     1      36.445   2.680  13.697  1.00  0.00    -0.008 C 
HETATM   29  C24 UNL     1      36.900   3.697  12.672  1.00  0.00     0.010 C 
HETATM   30  C25 UNL     1      35.727   3.396  14.793  1.00  0.00     0.010 C 
ENDBRANCH  11  28
BRANCH   1  31
HETATM   31  C2  UNL     1      42.134   1.055  12.370  1.00  0.00     0.017 C 
HETATM   32  C1  UNL     1      42.686   0.063  11.421  1.00  0.00     0.006 C 
ENDBRANCH   1  31
BRANCH   1  33
HETATM   33  C4  UNL     1      40.524   2.653  11.421  1.00  0.00     0.017 C 
HETATM   34  C5  UNL     1      41.565   3.692  11.500  1.00  0.00     0.006 C 
ENDBRANCH   1  33
BRANCH  12  35
HETATM   35  C27 UNL     1      39.412   3.293  15.160  1.00  0.00     0.126 C 
BRANCH  35  36
HETATM   36  C28 UNL     1      39.407   4.721  15.066  1.00  0.00     0.173 C 
HETATM   37  O5  UNL     1      38.469   5.374  15.644  1.00  0.00    -0.648 OA
HETATM   38  O6  UNL     1      40.349   5.459  14.390  1.00  0.00    -0.648 OA
ENDBRANCH  35  36
ENDBRANCH  12  35
TORSDOF 8
ENDMDL
