MODEL 1
REMARK VINA RESULT: -9.185441348      0.000      0.000
REMARK  11 active torsions:
REMARK  status: ('A' for Active; 'I' for Inactive)
REMARK    1  A    between atoms: C2_2  and  C3_3 
REMARK    2  A    between atoms: C2_2  and  C22_25 
REMARK    3  A    between atoms: C3_3  and  O2_5 
REMARK    4  A    between atoms: O2_5  and  C4_6 
REMARK    5  A    between atoms: C13_15  and  C15_17 
REMARK    6  A    between atoms: C15_17  and  N1_18 
REMARK    7  A    between atoms: C22_25  and  C23_27 
REMARK    8  A    between atoms: C26_30  and  C27_31 
REMARK    9  A    between atoms: C27_31  and  O4_33 
REMARK   10  A    between atoms: C27_31  and  C29_35 
REMARK   11  A    between atoms: C29_35  and  O5_36 
ROOT
HETATM    1  O2  UNL     1      32.833  -3.472  22.376  1.00  0.00    -0.315 OA
ENDROOT
BRANCH   1   2
HETATM    2  C3  UNL     1      34.232  -3.424  22.322  1.00  0.00     0.270 C 
HETATM    3  O1  UNL     1      34.796  -4.283  23.044  1.00  0.00    -0.264 OA
BRANCH   2   4
HETATM    4  C2  UNL     1      35.030  -2.496  21.528  1.00  0.00     0.151 C 
HETATM    5  C1  UNL     1      36.493  -2.951  21.621  1.00  0.00     0.029 C 
BRANCH   4   6
HETATM    6  C22 UNL     1      34.719  -2.549  20.062  1.00  0.00     0.144 C 
HETATM    7  O3  UNL     1      34.501  -3.570  19.465  1.00  0.00    -0.297 OA
BRANCH   6   8
HETATM    8  C23 UNL     1      34.701  -1.210  19.382  1.00  0.00     0.060 C 
HETATM    9  C24 UNL     1      34.170  -1.280  17.984  1.00  0.00     0.013 C 
HETATM   10  C25 UNL     1      35.268  -0.828  17.061  1.00  0.00     0.009 C 
HETATM   11  C26 UNL     1      36.486  -0.767  17.896  1.00  0.00     0.026 C 
HETATM   12  C30 UNL     1      36.057  -0.573  19.303  1.00  0.00    -0.000 C 
HETATM   13  C31 UNL     1      35.901   0.876  19.726  1.00  0.00     0.011 C 
BRANCH  11  14
HETATM   14  C27 UNL     1      37.494   0.257  17.434  1.00  0.00     0.079 C 
HETATM   15  C28 UNL     1      38.601   0.459  18.446  1.00  0.00     0.048 C 
BRANCH  14  16
HETATM   16  O4  UNL     1      36.865   1.469  17.147  1.00  0.00    -0.388 OA
ATOM     17  H4  UNL     1      37.196   1.832  16.334  1.00  0.00     0.210 HD
ENDBRANCH  14  16
BRANCH  14  18
HETATM   18  C29 UNL     1      38.158  -0.249  16.177  1.00  0.00     0.201 C 
BRANCH  18  19
HETATM   19  O5  UNL     1      39.190  -1.149  16.424  1.00  0.00    -0.398 OA
ATOM     20  H5  UNL     1      39.947  -0.748  16.834  1.00  0.00     0.209 HD
ENDBRANCH  18  19
ENDBRANCH  14  18
ENDBRANCH  11  14
ENDBRANCH   6   8
ENDBRANCH   4   6
ENDBRANCH   2   4
ENDBRANCH   1   2
BRANCH   1  21
HETATM   21  C4  UNL     1      32.087  -2.755  23.331  1.00  0.00     0.136 C 
HETATM   22  C5  UNL     1      31.922  -1.289  23.155  1.00  0.00     0.038 C 
HETATM   23  C6  UNL     1      32.594  -1.084  24.493  1.00  0.00    -0.001 C 
HETATM   24  C7  UNL     1      32.959  -2.526  24.587  1.00  0.00     0.020 C 
HETATM   25  C11 UNL     1      31.769  -0.540  25.594  1.00  0.00    -0.005 C 
HETATM   26  C8  UNL     1      32.444  -3.299  25.729  1.00  0.00     0.008 C 
HETATM   27  C9  UNL     1      32.176  -2.580  26.990  1.00  0.00     0.006 C 
HETATM   28  C10 UNL     1      32.140  -1.088  26.950  1.00  0.00    -0.006 C 
HETATM   29  C20 UNL     1      31.074  -0.471  27.808  1.00  0.00    -0.004 C 
HETATM   30  C13 UNL     1      29.860  -0.295  26.920  1.00  0.00    -0.014 C 
HETATM   31  C21 UNL     1      30.836  -1.108  29.117  1.00  0.00     0.011 C 
HETATM   32  C12 UNL     1      30.312  -0.783  25.526  1.00  0.00     0.016 C 
HETATM   33  C14 UNL     1      29.527   1.159  26.735  1.00  0.00     0.017 C 
BRANCH  30  34
HETATM   34  C15 UNL     1      28.704  -1.068  27.413  1.00  0.00     0.281 C 
BRANCH  34  35
HETATM   35  N1  UNL     1      27.786  -1.616  26.489  1.00  0.00     0.089 N 
HETATM   36  C16 UNL     1      27.289  -2.930  27.025  1.00  0.00     0.272 C 
HETATM   37  C17 UNL     1      26.511  -2.440  28.246  1.00  0.00     0.032 C 
HETATM   38  C18 UNL     1      25.924  -1.120  27.816  1.00  0.00     0.032 C 
HETATM   39  C19 UNL     1      26.501  -0.963  26.404  1.00  0.00     0.272 C 
ENDBRANCH  34  35
ENDBRANCH  30  34
ENDBRANCH   1  21
TORSDOF 11
ENDMDL
MODEL 2
REMARK VINA RESULT: -8.820321887      1.258      2.037
REMARK  11 active torsions:
REMARK  status: ('A' for Active; 'I' for Inactive)
REMARK    1  A    between atoms: C2_2  and  C3_3 
REMARK    2  A    between atoms: C2_2  and  C22_25 
REMARK    3  A    between atoms: C3_3  and  O2_5 
REMARK    4  A    between atoms: O2_5  and  C4_6 
REMARK    5  A    between atoms: C13_15  and  C15_17 
REMARK    6  A    between atoms: C15_17  and  N1_18 
REMARK    7  A    between atoms: C22_25  and  C23_27 
REMARK    8  A    between atoms: C26_30  and  C27_31 
REMARK    9  A    between atoms: C27_31  and  O4_33 
REMARK   10  A    between atoms: C27_31  and  C29_35 
REMARK   11  A    between atoms: C29_35  and  O5_36 
ROOT
HETATM    1  O2  UNL     1      32.996  -3.338  22.222  1.00  0.00    -0.315 OA
ENDROOT
BRANCH   1   2
HETATM    2  C3  UNL     1      33.389  -2.715  21.031  1.00  0.00     0.270 C 
HETATM    3  O1  UNL     1      32.601  -2.912  20.074  1.00  0.00    -0.264 OA
BRANCH   2   4
HETATM    4  C2  UNL     1      34.583  -1.899  20.841  1.00  0.00     0.151 C 
HETATM    5  C1  UNL     1      35.785  -2.725  21.321  1.00  0.00     0.029 C 
BRANCH   4   6
HETATM    6  C22 UNL     1      34.884  -1.612  19.401  1.00  0.00     0.144 C 
HETATM    7  O3  UNL     1      34.261  -2.079  18.485  1.00  0.00    -0.297 OA
BRANCH   6   8
HETATM    8  C23 UNL     1      36.042  -0.680  19.183  1.00  0.00     0.060 C 
HETATM    9  C24 UNL     1      35.940   0.569  20.004  1.00  0.00     0.013 C 
HETATM   10  C25 UNL     1      35.873   1.731  19.051  1.00  0.00     0.009 C 
HETATM   11  C26 UNL     1      35.662   1.135  17.715  1.00  0.00     0.026 C 
HETATM   12  C30 UNL     1      36.189  -0.251  17.753  1.00  0.00    -0.000 C 
HETATM   13  C31 UNL     1      37.657  -0.383  17.392  1.00  0.00     0.011 C 
BRANCH  11  14
HETATM   14  C27 UNL     1      36.227   1.957  16.583  1.00  0.00     0.079 C 
HETATM   15  C28 UNL     1      36.030   1.284  15.241  1.00  0.00     0.048 C 
BRANCH  14  16
HETATM   16  O4  UNL     1      37.577   2.229  16.801  1.00  0.00    -0.388 OA
ATOM     17  H4  UNL     1      37.970   2.614  16.026  1.00  0.00     0.210 HD
ENDBRANCH  14  16
BRANCH  14  18
HETATM   18  C29 UNL     1      35.479   3.265  16.513  1.00  0.00     0.201 C 
BRANCH  18  19
HETATM   19  O5  UNL     1      34.122   3.110  16.247  1.00  0.00    -0.398 OA
ATOM     20  H5  UNL     1      33.824   2.212  16.328  1.00  0.00     0.209 HD
ENDBRANCH  18  19
ENDBRANCH  14  18
ENDBRANCH  11  14
ENDBRANCH   6   8
ENDBRANCH   4   6
ENDBRANCH   2   4
ENDBRANCH   1   2
BRANCH   1  21
HETATM   21  C4  UNL     1      32.223  -2.682  23.200  1.00  0.00     0.136 C 
HETATM   22  C5  UNL     1      32.017  -1.215  23.082  1.00  0.00     0.038 C 
HETATM   23  C6  UNL     1      32.673  -1.046  24.433  1.00  0.00    -0.001 C 
HETATM   24  C7  UNL     1      33.078  -2.479  24.471  1.00  0.00     0.020 C 
HETATM   25  C11 UNL     1      31.823  -0.571  25.548  1.00  0.00    -0.005 C 
HETATM   26  C8  UNL     1      32.576  -3.313  25.576  1.00  0.00     0.008 C 
HETATM   27  C9  UNL     1      32.279  -2.655  26.863  1.00  0.00     0.006 C 
HETATM   28  C10 UNL     1      32.200  -1.163  26.883  1.00  0.00    -0.006 C 
HETATM   29  C20 UNL     1      31.110  -0.613  27.757  1.00  0.00    -0.004 C 
HETATM   30  C13 UNL     1      29.899  -0.435  26.866  1.00  0.00    -0.014 C 
HETATM   31  C21 UNL     1      30.881  -1.309  29.036  1.00  0.00     0.011 C 
HETATM   32  C12 UNL     1      30.375  -0.852  25.457  1.00  0.00     0.016 C 
HETATM   33  C14 UNL     1      29.526   1.016  26.737  1.00  0.00     0.017 C 
BRANCH  30  34
HETATM   34  C15 UNL     1      28.761  -1.260  27.317  1.00  0.00     0.281 C 
BRANCH  34  35
HETATM   35  N1  UNL     1      27.826  -1.735  26.370  1.00  0.00     0.089 N 
HETATM   36  C16 UNL     1      27.368  -3.105  26.791  1.00  0.00     0.272 C 
HETATM   37  C17 UNL     1      26.619  -2.750  28.075  1.00  0.00     0.032 C 
HETATM   38  C18 UNL     1      25.996  -1.407  27.791  1.00  0.00     0.032 C 
HETATM   39  C19 UNL     1      26.527  -1.103  26.385  1.00  0.00     0.272 C 
ENDBRANCH  34  35
ENDBRANCH  30  34
ENDBRANCH   1  21
TORSDOF 11
ENDMDL
MODEL 3
REMARK VINA RESULT: -8.681933799      4.349      9.160
REMARK  11 active torsions:
REMARK  status: ('A' for Active; 'I' for Inactive)
REMARK    1  A    between atoms: C2_2  and  C3_3 
REMARK    2  A    between atoms: C2_2  and  C22_25 
REMARK    3  A    between atoms: C3_3  and  O2_5 
REMARK    4  A    between atoms: O2_5  and  C4_6 
REMARK    5  A    between atoms: C13_15  and  C15_17 
REMARK    6  A    between atoms: C15_17  and  N1_18 
REMARK    7  A    between atoms: C22_25  and  C23_27 
REMARK    8  A    between atoms: C26_30  and  C27_31 
REMARK    9  A    between atoms: C27_31  and  O4_33 
REMARK   10  A    between atoms: C27_31  and  C29_35 
REMARK   11  A    between atoms: C29_35  and  O5_36 
ROOT
HETATM    1  O2  UNL     1      31.643  -2.293  26.447  1.00  0.00    -0.315 OA
ENDROOT
BRANCH   1   2
HETATM    2  C3  UNL     1      30.889  -1.142  26.706  1.00  0.00     0.270 C 
HETATM    3  O1  UNL     1      29.663  -1.276  26.471  1.00  0.00    -0.264 OA
BRANCH   2   4
HETATM    4  C2  UNL     1      31.404   0.129  27.205  1.00  0.00     0.151 C 
HETATM    5  C1  UNL     1      30.195   1.017  27.534  1.00  0.00     0.029 C 
BRANCH   4   6
HETATM    6  C22 UNL     1      32.135   0.004  28.507  1.00  0.00     0.144 C 
HETATM    7  O3  UNL     1      31.896  -0.844  29.326  1.00  0.00    -0.297 OA
BRANCH   6   8
HETATM    8  C23 UNL     1      33.208   1.034  28.718  1.00  0.00     0.060 C 
HETATM    9  C24 UNL     1      33.661   1.665  27.438  1.00  0.00     0.013 C 
HETATM   10  C25 UNL     1      35.123   1.354  27.274  1.00  0.00     0.009 C 
HETATM   11  C26 UNL     1      35.428   0.334  28.300  1.00  0.00     0.026 C 
HETATM   12  C30 UNL     1      34.431   0.481  29.389  1.00  0.00    -0.000 C 
HETATM   13  C31 UNL     1      34.824   1.454  30.484  1.00  0.00     0.011 C 
BRANCH  11  14
HETATM   14  C27 UNL     1      36.854   0.366  28.791  1.00  0.00     0.079 C 
HETATM   15  C28 UNL     1      37.815  -0.222  27.780  1.00  0.00     0.048 C 
BRANCH  14  16
HETATM   16  O4  UNL     1      36.966  -0.293  30.015  1.00  0.00    -0.388 OA
ATOM     17  H4  UNL     1      37.331  -1.162  29.894  1.00  0.00     0.210 HD
ENDBRANCH  14  16
BRANCH  14  18
HETATM   18  C29 UNL     1      37.270   1.804  28.980  1.00  0.00     0.201 C 
BRANCH  18  19
HETATM   19  O5  UNL     1      38.183   1.981  30.015  1.00  0.00    -0.398 OA
ATOM     20  H5  UNL     1      37.847   2.512  30.726  1.00  0.00     0.209 HD
ENDBRANCH  18  19
ENDBRANCH  14  18
ENDBRANCH  11  14
ENDBRANCH   6   8
ENDBRANCH   4   6
ENDBRANCH   2   4
ENDBRANCH   1   2
BRANCH   1  21
HETATM   21  C4  UNL     1      32.504  -2.399  25.337  1.00  0.00     0.136 C 
HETATM   22  C5  UNL     1      32.907  -1.159  24.625  1.00  0.00     0.038 C 
HETATM   23  C6  UNL     1      32.287  -1.718  23.365  1.00  0.00    -0.001 C 
HETATM   24  C7  UNL     1      31.690  -2.864  24.108  1.00  0.00     0.020 C 
HETATM   25  C11 UNL     1      33.200  -2.058  22.250  1.00  0.00    -0.005 C 
HETATM   26  C8  UNL     1      32.080  -4.227  23.710  1.00  0.00     0.008 C 
HETATM   27  C9  UNL     1      32.471  -4.455  22.305  1.00  0.00     0.006 C 
HETATM   28  C10 UNL     1      32.752  -3.260  21.455  1.00  0.00    -0.006 C 
HETATM   29  C20 UNL     1      33.912  -3.428  20.516  1.00  0.00    -0.004 C 
HETATM   30  C13 UNL     1      35.131  -2.908  21.247  1.00  0.00    -0.014 C 
HETATM   31  C21 UNL     1      34.051  -4.748  19.875  1.00  0.00     0.011 C 
HETATM   32  C12 UNL     1      34.595  -2.395  22.602  1.00  0.00     0.016 C 
HETATM   33  C14 UNL     1      35.698  -1.693  20.566  1.00  0.00     0.017 C 
BRANCH  30  34
HETATM   34  C15 UNL     1      36.148  -3.961  21.434  1.00  0.00     0.281 C 
BRANCH  34  35
HETATM   35  N1  UNL     1      36.122  -4.757  22.602  1.00  0.00     0.089 N 
HETATM   36  C16 UNL     1      36.625  -6.132  22.259  1.00  0.00     0.272 C 
HETATM   37  C17 UNL     1      38.082  -5.806  21.928  1.00  0.00     0.032 C 
HETATM   38  C18 UNL     1      38.445  -4.693  22.877  1.00  0.00     0.032 C 
HETATM   39  C19 UNL     1      37.117  -4.450  23.603  1.00  0.00     0.272 C 
ENDBRANCH  34  35
ENDBRANCH  30  34
ENDBRANCH   1  21
TORSDOF 11
ENDMDL
MODEL 4
REMARK VINA RESULT: -8.660582396      3.792     11.604
REMARK  11 active torsions:
REMARK  status: ('A' for Active; 'I' for Inactive)
REMARK    1  A    between atoms: C2_2  and  C3_3 
REMARK    2  A    between atoms: C2_2  and  C22_25 
REMARK    3  A    between atoms: C3_3  and  O2_5 
REMARK    4  A    between atoms: O2_5  and  C4_6 
REMARK    5  A    between atoms: C13_15  and  C15_17 
REMARK    6  A    between atoms: C15_17  and  N1_18 
REMARK    7  A    between atoms: C22_25  and  C23_27 
REMARK    8  A    between atoms: C26_30  and  C27_31 
REMARK    9  A    between atoms: C27_31  and  O4_33 
REMARK   10  A    between atoms: C27_31  and  C29_35 
REMARK   11  A    between atoms: C29_35  and  O5_36 
ROOT
HETATM    1  O2  UNL     1      35.195  -0.994  20.683  1.00  0.00    -0.315 OA
ENDROOT
BRANCH   1   2
HETATM    2  C3  UNL     1      34.581  -2.146  21.188  1.00  0.00     0.270 C 
HETATM    3  O1  UNL     1      35.389  -3.048  21.518  1.00  0.00    -0.264 OA
BRANCH   2   4
HETATM    4  C2  UNL     1      33.145  -2.355  21.349  1.00  0.00     0.151 C 
HETATM    5  C1  UNL     1      32.682  -3.263  20.200  1.00  0.00     0.029 C 
BRANCH   4   6
HETATM    6  C22 UNL     1      32.790  -3.117  22.589  1.00  0.00     0.144 C 
HETATM    7  O3  UNL     1      32.344  -4.234  22.579  1.00  0.00    -0.297 OA
BRANCH   6   8
HETATM    8  C23 UNL     1      33.037  -2.370  23.869  1.00  0.00     0.060 C 
HETATM    9  C24 UNL     1      33.402  -3.276  25.004  1.00  0.00     0.013 C 
HETATM   10  C25 UNL     1      32.347  -3.120  26.064  1.00  0.00     0.009 C 
HETATM   11  C26 UNL     1      31.259  -2.349  25.427  1.00  0.00     0.026 C 
HETATM   12  C30 UNL     1      31.853  -1.565  24.317  1.00  0.00    -0.000 C 
HETATM   13  C31 UNL     1      32.364  -0.192  24.710  1.00  0.00     0.011 C 
BRANCH  11  14
HETATM   14  C27 UNL     1      30.461  -1.505  26.391  1.00  0.00     0.079 C 
HETATM   15  C28 UNL     1      29.372  -0.721  25.691  1.00  0.00     0.048 C 
BRANCH  14  16
HETATM   16  O4  UNL     1      31.301  -0.649  27.104  1.00  0.00    -0.388 OA
ATOM     17  H4  UNL     1      30.806  -0.155  27.747  1.00  0.00     0.210 HD
ENDBRANCH  14  16
BRANCH  14  18
HETATM   18  C29 UNL     1      29.762  -2.417  27.370  1.00  0.00     0.201 C 
BRANCH  18  19
HETATM   19  O5  UNL     1      28.708  -3.127  26.803  1.00  0.00    -0.398 OA
ATOM     20  H5  UNL     1      28.965  -3.978  26.470  1.00  0.00     0.209 HD
ENDBRANCH  18  19
ENDBRANCH  14  18
ENDBRANCH  11  14
ENDBRANCH   6   8
ENDBRANCH   4   6
ENDBRANCH   2   4
ENDBRANCH   1   2
BRANCH   1  21
HETATM   21  C4  UNL     1      36.094  -1.029  19.599  1.00  0.00     0.136 C 
HETATM   22  C5  UNL     1      37.322  -0.195  19.662  1.00  0.00     0.038 C 
HETATM   23  C6  UNL     1      36.866   0.515  18.409  1.00  0.00    -0.001 C 
HETATM   24  C7  UNL     1      35.537  -0.158  18.451  1.00  0.00     0.020 C 
HETATM   25  C11 UNL     1      37.669   0.314  17.182  1.00  0.00    -0.005 C 
HETATM   26  C8  UNL     1      35.146  -0.994  17.303  1.00  0.00     0.008 C 
HETATM   27  C9  UNL     1      35.696  -0.653  15.977  1.00  0.00     0.006 C 
HETATM   28  C10 UNL     1      36.842   0.302  15.919  1.00  0.00    -0.006 C 
HETATM   29  C20 UNL     1      37.887  -0.044  14.898  1.00  0.00    -0.004 C 
HETATM   30  C13 UNL     1      38.922  -0.884  15.616  1.00  0.00    -0.014 C 
HETATM   31  C21 UNL     1      37.396  -0.573  13.612  1.00  0.00     0.011 C 
HETATM   32  C12 UNL     1      38.442  -0.942  17.083  1.00  0.00     0.016 C 
HETATM   33  C14 UNL     1      40.251  -0.183  15.667  1.00  0.00     0.017 C 
BRANCH  30  34
HETATM   34  C15 UNL     1      39.032  -2.235  15.031  1.00  0.00     0.281 C 
BRANCH  34  35
HETATM   35  N1  UNL     1      40.215  -2.607  14.353  1.00  0.00     0.089 N 
HETATM   36  C16 UNL     1      40.980  -3.574  15.214  1.00  0.00     0.272 C 
HETATM   37  C17 UNL     1      40.018  -4.762  15.197  1.00  0.00     0.032 C 
HETATM   38  C18 UNL     1      39.414  -4.739  13.816  1.00  0.00     0.032 C 
HETATM   39  C19 UNL     1      40.048  -3.480  13.214  1.00  0.00     0.272 C 
ENDBRANCH  34  35
ENDBRANCH  30  34
ENDBRANCH   1  21
TORSDOF 11
ENDMDL
MODEL 5
REMARK VINA RESULT: -8.598029813      4.073     10.128
REMARK  11 active torsions:
REMARK  status: ('A' for Active; 'I' for Inactive)
REMARK    1  A    between atoms: C2_2  and  C3_3 
REMARK    2  A    between atoms: C2_2  and  C22_25 
REMARK    3  A    between atoms: C3_3  and  O2_5 
REMARK    4  A    between atoms: O2_5  and  C4_6 
REMARK    5  A    between atoms: C13_15  and  C15_17 
REMARK    6  A    between atoms: C15_17  and  N1_18 
REMARK    7  A    between atoms: C22_25  and  C23_27 
REMARK    8  A    between atoms: C26_30  and  C27_31 
REMARK    9  A    between atoms: C27_31  and  O4_33 
REMARK   10  A    between atoms: C27_31  and  C29_35 
REMARK   11  A    between atoms: C29_35  and  O5_36 
ROOT
HETATM    1  O2  UNL     1      31.841  -1.984  26.626  1.00  0.00    -0.315 OA
ENDROOT
BRANCH   1   2
HETATM    2  C3  UNL     1      32.176  -1.127  27.681  1.00  0.00     0.270 C 
HETATM    3  O1  UNL     1      33.362  -0.718  27.643  1.00  0.00    -0.264 OA
BRANCH   2   4
HETATM    4  C2  UNL     1      31.289  -0.702  28.759  1.00  0.00     0.151 C 
HETATM    5  C1  UNL     1      32.165  -0.394  29.981  1.00  0.00     0.029 C 
BRANCH   4   6
HETATM    6  C22 UNL     1      30.584   0.590  28.474  1.00  0.00     0.144 C 
HETATM    7  O3  UNL     1      30.762   1.598  29.105  1.00  0.00    -0.297 OA
BRANCH   6   8
HETATM    8  C23 UNL     1      29.623   0.531  27.321  1.00  0.00     0.060 C 
HETATM    9  C24 UNL     1      28.650   1.670  27.323  1.00  0.00     0.013 C 
HETATM   10  C25 UNL     1      27.271   1.085  27.451  1.00  0.00     0.009 C 
HETATM   11  C26 UNL     1      27.475  -0.339  27.792  1.00  0.00     0.026 C 
HETATM   12  C30 UNL     1      28.815  -0.733  27.292  1.00  0.00    -0.000 C 
HETATM   13  C31 UNL     1      28.835  -1.249  25.866  1.00  0.00     0.011 C 
BRANCH  11  14
HETATM   14  C27 UNL     1      26.370  -1.248  27.314  1.00  0.00     0.079 C 
HETATM   15  C28 UNL     1      26.283  -2.515  28.136  1.00  0.00     0.048 C 
BRANCH  14  16
HETATM   16  O4  UNL     1      26.536  -1.551  25.962  1.00  0.00    -0.388 OA
ATOM     17  H4  UNL     1      25.742  -1.932  25.606  1.00  0.00     0.210 HD
ENDBRANCH  14  16
BRANCH  14  18
HETATM   18  C29 UNL     1      25.049  -0.540  27.488  1.00  0.00     0.201 C 
BRANCH  18  19
HETATM   19  O5  UNL     1      24.236  -0.608  26.361  1.00  0.00    -0.398 OA
ATOM     20  H5  UNL     1      23.933  -1.487  26.170  1.00  0.00     0.209 HD
ENDBRANCH  18  19
ENDBRANCH  14  18
ENDBRANCH  11  14
ENDBRANCH   6   8
ENDBRANCH   4   6
ENDBRANCH   2   4
ENDBRANCH   1   2
BRANCH   1  21
HETATM   21  C4  UNL     1      32.613  -2.077  25.451  1.00  0.00     0.136 C 
HETATM   22  C5  UNL     1      32.733  -0.879  24.580  1.00  0.00     0.038 C 
HETATM   23  C6  UNL     1      32.120  -1.677  23.452  1.00  0.00    -0.001 C 
HETATM   24  C7  UNL     1      31.795  -2.810  24.364  1.00  0.00     0.020 C 
HETATM   25  C11 UNL     1      32.983  -1.991  22.292  1.00  0.00    -0.005 C 
HETATM   26  C8  UNL     1      32.383  -4.128  24.070  1.00  0.00     0.008 C 
HETATM   27  C9  UNL     1      32.692  -4.452  22.663  1.00  0.00     0.006 C 
HETATM   28  C10 UNL     1      32.689  -3.335  21.672  1.00  0.00    -0.006 C 
HETATM   29  C20 UNL     1      33.779  -3.418  20.643  1.00  0.00    -0.004 C 
HETATM   30  C13 UNL     1      34.944  -2.622  21.191  1.00  0.00    -0.014 C 
HETATM   31  C21 UNL     1      34.094  -4.764  20.128  1.00  0.00     0.011 C 
HETATM   32  C12 UNL     1      34.440  -2.049  22.533  1.00  0.00     0.016 C 
HETATM   33  C14 UNL     1      35.232  -1.419  20.336  1.00  0.00     0.017 C 
BRANCH  30  34
HETATM   34  C15 UNL     1      36.142  -3.464  21.380  1.00  0.00     0.281 C 
BRANCH  34  35
HETATM   35  N1  UNL     1      36.747  -3.540  22.655  1.00  0.00     0.089 N 
HETATM   36  C16 UNL     1      36.198  -4.740  23.378  1.00  0.00     0.272 C 
HETATM   37  C17 UNL     1      36.768  -5.857  22.504  1.00  0.00     0.032 C 
HETATM   38  C18 UNL     1      38.115  -5.343  22.064  1.00  0.00     0.032 C 
HETATM   39  C19 UNL     1      38.134  -3.939  22.679  1.00  0.00     0.272 C 
ENDBRANCH  34  35
ENDBRANCH  30  34
ENDBRANCH   1  21
TORSDOF 11
ENDMDL
