MODEL 1
REMARK VINA RESULT: -8.565647192      0.000      0.000
REMARK  8 active torsions:
REMARK  status: ('A' for Active; 'I' for Inactive)
REMARK    1  A    between atoms: C6_8  and  C7_9 
REMARK    2  A    between atoms: C11_14  and  C12_15 
REMARK    3  A    between atoms: C12_15  and  C13_16 
REMARK    4  A    between atoms: C12_15  and  C19_22 
REMARK    5  A    between atoms: C13_16  and  C14_17 
REMARK    6  A    between atoms: C14_17  and  C15_18 
REMARK    7  A    between atoms: C25_29  and  O4_30 
REMARK    8  A    between atoms: O4_30  and  C26_31 
ROOT
HETATM    1  C12 UNL     1     -17.402  74.074  34.135  1.00  0.00     0.017 C 
ENDROOT
BRANCH   1   2
HETATM    2  C11 UNL     1     -17.443  72.958  33.120  1.00  0.00    -0.004 C 
HETATM    3  C10 UNL     1     -18.119  71.708  33.275  1.00  0.00     0.058 C 
HETATM    4  C9  UNL     1     -19.575  71.652  33.541  1.00  0.00     0.166 C 
HETATM    5  C29 UNL     1     -17.459  70.499  33.861  1.00  0.00     0.301 C 
HETATM    6  C6  UNL     1     -20.203  70.326  33.725  1.00  0.00     0.071 C 
HETATM    7  O3  UNL     1     -20.276  72.635  33.617  1.00  0.00    -0.292 OA
HETATM    8  C5  UNL     1     -19.469  69.159  33.195  1.00  0.00     0.071 C 
HETATM    9  C2  UNL     1     -19.907  68.613  31.900  1.00  0.00     0.015 C 
HETATM   10  C4  UNL     1     -17.989  69.277  33.048  1.00  0.00     0.219 C 
HETATM   11  C1  UNL     1     -20.906  67.878  31.502  1.00  0.00     0.025 C 
HETATM   12  C3  UNL     1     -18.866  69.089  30.957  1.00  0.00     0.289 C 
HETATM   13  O1  UNL     1     -18.928  69.223  29.711  1.00  0.00    -0.260 OA
HETATM   14  O2  UNL     1     -17.700  69.397  31.689  1.00  0.00    -0.305 OA
HETATM   15  F1  UNL     1     -16.099  70.474  33.753  1.00  0.00    -0.198 F 
HETATM   16  F2  UNL     1     -17.847  70.161  35.141  1.00  0.00    -0.198 F 
BRANCH   6  17
HETATM   17  C7  UNL     1     -21.644  70.254  33.261  1.00  0.00     0.009 C 
HETATM   18  C8  UNL     1     -22.632  70.326  34.399  1.00  0.00     0.006 C 
ENDBRANCH   6  17
ENDBRANCH   1   2
BRANCH   1  19
HETATM   19  C13 UNL     1     -16.256  73.868  35.025  1.00  0.00     0.013 C 
BRANCH  19  20
HETATM   20  C14 UNL     1     -16.350  73.556  36.461  1.00  0.00     0.028 C 
BRANCH  20  21
HETATM   21  C15 UNL     1     -17.852  73.701  36.773  1.00  0.00    -0.025 C 
HETATM   22  C16 UNL     1     -18.312  74.701  37.484  1.00  0.00    -0.091 C 
HETATM   23  C17 UNL     1     -17.362  75.713  38.000  1.00  0.00     0.042 C 
HETATM   24  C18 UNL     1     -19.756  74.826  37.774  1.00  0.00     0.042 C 
ENDBRANCH  20  21
ENDBRANCH  19  20
ENDBRANCH   1  19
BRANCH   1  25
HETATM   25  C19 UNL     1     -17.382  75.384  33.387  1.00  0.00    -0.035 C 
HETATM   26  C20 UNL     1     -16.131  75.392  32.526  1.00  0.00     0.016 C 
HETATM   27  C21 UNL     1     -17.196  76.547  34.330  1.00  0.00     0.012 C 
HETATM   28  C22 UNL     1     -18.261  77.539  34.454  1.00  0.00     0.028 C 
HETATM   29  C23 UNL     1     -19.020  77.857  33.191  1.00  0.00     0.060 C 
HETATM   30  C24 UNL     1     -18.225  78.591  32.171  1.00  0.00     0.035 C 
HETATM   31 CL1  UNL     1     -20.409  78.874  33.649  1.00  0.00    -0.117 Cl
HETATM   32  C25 UNL     1     -19.569  76.538  32.721  1.00  0.00     0.155 C 
HETATM   33  C28 UNL     1     -18.553  75.493  32.476  1.00  0.00     0.044 C 
BRANCH  32  34
HETATM   34  O4  UNL     1     -20.286  76.821  31.512  1.00  0.00    -0.314 OA
BRANCH  34  35
HETATM   35  C26 UNL     1     -21.570  76.412  31.287  1.00  0.00     0.255 C 
HETATM   36  C27 UNL     1     -22.443  76.013  32.423  1.00  0.00     0.126 C 
HETATM   37  O5  UNL     1     -21.977  76.387  30.091  1.00  0.00    -0.266 OA
ENDBRANCH  34  35
ENDBRANCH  32  34
ENDBRANCH   1  25
TORSDOF 8
ENDMDL
MODEL 2
REMARK VINA RESULT: -8.414768451      3.962      6.365
REMARK  8 active torsions:
REMARK  status: ('A' for Active; 'I' for Inactive)
REMARK    1  A    between atoms: C6_8  and  C7_9 
REMARK    2  A    between atoms: C11_14  and  C12_15 
REMARK    3  A    between atoms: C12_15  and  C13_16 
REMARK    4  A    between atoms: C12_15  and  C19_22 
REMARK    5  A    between atoms: C13_16  and  C14_17 
REMARK    6  A    between atoms: C14_17  and  C15_18 
REMARK    7  A    between atoms: C25_29  and  O4_30 
REMARK    8  A    between atoms: O4_30  and  C26_31 
ROOT
HETATM    1  C12 UNL     1     -15.935  74.314  33.188  1.00  0.00     0.017 C 
ENDROOT
BRANCH   1   2
HETATM    2  C11 UNL     1     -16.531  74.210  31.807  1.00  0.00    -0.004 C 
HETATM    3  C10 UNL     1     -15.802  74.046  30.588  1.00  0.00     0.058 C 
HETATM    4  C9  UNL     1     -14.893  72.894  30.389  1.00  0.00     0.166 C 
HETATM    5  C29 UNL     1     -15.324  75.205  29.769  1.00  0.00     0.301 C 
HETATM    6  C6  UNL     1     -14.144  72.805  29.118  1.00  0.00     0.071 C 
HETATM    7  O3  UNL     1     -14.732  72.024  31.214  1.00  0.00    -0.292 OA
HETATM    8  C5  UNL     1     -14.667  73.581  27.976  1.00  0.00     0.071 C 
HETATM    9  C2  UNL     1     -15.453  72.855  26.965  1.00  0.00     0.015 C 
HETATM   10  C4  UNL     1     -15.500  74.783  28.277  1.00  0.00     0.219 C 
HETATM   11  C1  UNL     1     -15.169  72.043  25.988  1.00  0.00     0.025 C 
HETATM   12  C3  UNL     1     -16.850  73.258  27.261  1.00  0.00     0.289 C 
HETATM   13  O1  UNL     1     -17.922  72.681  26.958  1.00  0.00    -0.260 OA
HETATM   14  O2  UNL     1     -16.826  74.471  27.981  1.00  0.00    -0.305 OA
HETATM   15  F1  UNL     1     -16.035  76.358  29.930  1.00  0.00    -0.198 F 
HETATM   16  F2  UNL     1     -13.971  75.462  29.820  1.00  0.00    -0.198 F 
BRANCH   6  17
HETATM   17  C7  UNL     1     -13.865  71.386  28.663  1.00  0.00     0.009 C 
HETATM   18  C8  UNL     1     -12.394  71.110  28.468  1.00  0.00     0.006 C 
ENDBRANCH   6  17
ENDBRANCH   1   2
BRANCH   1  19
HETATM   19  C13 UNL     1     -16.190  75.657  33.719  1.00  0.00     0.013 C 
BRANCH  19  20
HETATM   20  C14 UNL     1     -17.130  76.629  33.136  1.00  0.00     0.028 C 
BRANCH  20  21
HETATM   21  C15 UNL     1     -18.211  76.793  34.221  1.00  0.00    -0.025 C 
HETATM   22  C16 UNL     1     -19.454  76.429  34.014  1.00  0.00    -0.091 C 
HETATM   23  C17 UNL     1     -19.822  75.846  32.704  1.00  0.00     0.042 C 
HETATM   24  C18 UNL     1     -20.479  76.593  35.066  1.00  0.00     0.042 C 
ENDBRANCH  20  21
ENDBRANCH  19  20
ENDBRANCH   1  19
BRANCH   1  25
HETATM   25  C19 UNL     1     -16.502  73.196  34.027  1.00  0.00    -0.035 C 
HETATM   26  C20 UNL     1     -15.410  72.152  34.183  1.00  0.00     0.016 C 
HETATM   27  C21 UNL     1     -17.609  72.475  33.300  1.00  0.00     0.012 C 
HETATM   28  C22 UNL     1     -18.962  72.513  33.848  1.00  0.00     0.028 C 
HETATM   29  C23 UNL     1     -19.067  72.490  35.352  1.00  0.00     0.060 C 
HETATM   30  C24 UNL     1     -18.670  71.200  35.972  1.00  0.00     0.035 C 
HETATM   31 CL1  UNL     1     -20.771  72.806  35.768  1.00  0.00    -0.117 Cl
HETATM   32  C25 UNL     1     -18.268  73.676  35.817  1.00  0.00     0.155 C 
HETATM   33  C28 UNL     1     -16.854  73.681  35.388  1.00  0.00     0.044 C 
BRANCH  32  34
HETATM   34  O4  UNL     1     -18.349  73.666  37.249  1.00  0.00    -0.314 OA
BRANCH  34  35
HETATM   35  C26 UNL     1     -18.617  74.779  37.995  1.00  0.00     0.255 C 
HETATM   36  C27 UNL     1     -17.618  75.874  38.101  1.00  0.00     0.126 C 
HETATM   37  O5  UNL     1     -19.736  74.837  38.581  1.00  0.00    -0.266 OA
ENDBRANCH  34  35
ENDBRANCH  32  34
ENDBRANCH   1  25
TORSDOF 8
ENDMDL
MODEL 3
REMARK VINA RESULT: -8.412334343      3.258      6.728
REMARK  8 active torsions:
REMARK  status: ('A' for Active; 'I' for Inactive)
REMARK    1  A    between atoms: C6_8  and  C7_9 
REMARK    2  A    between atoms: C11_14  and  C12_15 
REMARK    3  A    between atoms: C12_15  and  C13_16 
REMARK    4  A    between atoms: C12_15  and  C19_22 
REMARK    5  A    between atoms: C13_16  and  C14_17 
REMARK    6  A    between atoms: C14_17  and  C15_18 
REMARK    7  A    between atoms: C25_29  and  O4_30 
REMARK    8  A    between atoms: O4_30  and  C26_31 
ROOT
HETATM    1  C12 UNL     1     -19.412  71.678  31.834  1.00  0.00     0.017 C 
ENDROOT
BRANCH   1   2
HETATM    2  C11 UNL     1     -19.495  72.938  32.659  1.00  0.00    -0.004 C 
HETATM    3  C10 UNL     1     -19.147  73.061  34.040  1.00  0.00     0.058 C 
HETATM    4  C9  UNL     1     -17.789  72.719  34.521  1.00  0.00     0.166 C 
HETATM    5  C29 UNL     1     -20.134  72.848  35.146  1.00  0.00     0.301 C 
HETATM    6  C6  UNL     1     -17.507  72.837  35.967  1.00  0.00     0.071 C 
HETATM    7  O3  UNL     1     -16.898  72.349  33.791  1.00  0.00    -0.292 OA
HETATM    8  C5  UNL     1     -18.413  73.695  36.758  1.00  0.00     0.071 C 
HETATM    9  C2  UNL     1     -17.948  75.054  37.083  1.00  0.00     0.015 C 
HETATM   10  C4  UNL     1     -19.796  73.908  36.240  1.00  0.00     0.219 C 
HETATM   11  C1  UNL     1     -17.100  75.557  37.933  1.00  0.00     0.025 C 
HETATM   12  C3  UNL     1     -18.724  75.913  36.156  1.00  0.00     0.289 C 
HETATM   13  O1  UNL     1     -18.474  77.077  35.759  1.00  0.00    -0.260 OA
HETATM   14  O2  UNL     1     -19.873  75.208  35.742  1.00  0.00    -0.305 OA
HETATM   15  F1  UNL     1     -21.439  73.051  34.802  1.00  0.00    -0.198 F 
HETATM   16  F2  UNL     1     -20.000  71.674  35.855  1.00  0.00    -0.198 F 
BRANCH   6  17
HETATM   17  C7  UNL     1     -16.072  73.205  36.291  1.00  0.00     0.009 C 
HETATM   18  C8  UNL     1     -15.225  72.009  36.649  1.00  0.00     0.006 C 
ENDBRANCH   6  17
ENDBRANCH   1   2
BRANCH   1  19
HETATM   19  C13 UNL     1     -20.627  70.886  32.046  1.00  0.00     0.013 C 
BRANCH  19  20
HETATM   20  C14 UNL     1     -20.678  69.595  32.754  1.00  0.00     0.028 C 
BRANCH  20  21
HETATM   21  C15 UNL     1     -19.234  69.387  33.247  1.00  0.00    -0.025 C 
HETATM   22  C16 UNL     1     -18.485  68.413  32.789  1.00  0.00    -0.091 C 
HETATM   23  C17 UNL     1     -19.047  67.492  31.774  1.00  0.00     0.042 C 
HETATM   24  C18 UNL     1     -17.101  68.227  33.272  1.00  0.00     0.042 C 
ENDBRANCH  20  21
ENDBRANCH  19  20
ENDBRANCH   1  19
BRANCH   1  25
HETATM   25  C19 UNL     1     -19.171  72.075  30.399  1.00  0.00    -0.035 C 
HETATM   26  C20 UNL     1     -20.525  72.379  29.782  1.00  0.00     0.016 C 
HETATM   27  C21 UNL     1     -18.644  70.914  29.593  1.00  0.00     0.012 C 
HETATM   28  C22 UNL     1     -17.305  70.999  29.015  1.00  0.00     0.028 C 
HETATM   29  C23 UNL     1     -16.881  72.361  28.525  1.00  0.00     0.060 C 
HETATM   30  C24 UNL     1     -17.614  72.830  27.320  1.00  0.00     0.035 C 
HETATM   31 CL1  UNL     1     -15.150  72.261  28.118  1.00  0.00    -0.117 Cl
HETATM   32  C25 UNL     1     -17.006  73.264  29.721  1.00  0.00     0.155 C 
HETATM   33  C28 UNL     1     -18.356  73.317  30.322  1.00  0.00     0.044 C 
BRANCH  32  34
HETATM   34  O4  UNL     1     -16.616  74.568  29.270  1.00  0.00    -0.314 OA
BRANCH  34  35
HETATM   35  C26 UNL     1     -15.802  75.398  29.987  1.00  0.00     0.255 C 
HETATM   36  C27 UNL     1     -14.328  75.201  29.975  1.00  0.00     0.126 C 
HETATM   37  O5  UNL     1     -16.347  76.326  30.649  1.00  0.00    -0.266 OA
ENDBRANCH  34  35
ENDBRANCH  32  34
ENDBRANCH   1  25
TORSDOF 8
ENDMDL
MODEL 4
REMARK VINA RESULT: -8.362007046      1.875      2.704
REMARK  8 active torsions:
REMARK  status: ('A' for Active; 'I' for Inactive)
REMARK    1  A    between atoms: C6_8  and  C7_9 
REMARK    2  A    between atoms: C11_14  and  C12_15 
REMARK    3  A    between atoms: C12_15  and  C13_16 
REMARK    4  A    between atoms: C12_15  and  C19_22 
REMARK    5  A    between atoms: C13_16  and  C14_17 
REMARK    6  A    between atoms: C14_17  and  C15_18 
REMARK    7  A    between atoms: C25_29  and  O4_30 
REMARK    8  A    between atoms: O4_30  and  C26_31 
ROOT
HETATM    1  C12 UNL     1     -17.540  74.144  34.322  1.00  0.00     0.017 C 
ENDROOT
BRANCH   1   2
HETATM    2  C11 UNL     1     -17.499  73.060  33.274  1.00  0.00    -0.004 C 
HETATM    3  C10 UNL     1     -18.098  71.767  33.382  1.00  0.00     0.058 C 
HETATM    4  C9  UNL     1     -19.551  71.614  33.625  1.00  0.00     0.166 C 
HETATM    5  C29 UNL     1     -17.373  70.582  33.943  1.00  0.00     0.301 C 
HETATM    6  C6  UNL     1     -20.099  70.248  33.760  1.00  0.00     0.071 C 
HETATM    7  O3  UNL     1     -20.312  72.550  33.719  1.00  0.00    -0.292 OA
HETATM    8  C5  UNL     1     -19.289  69.144  33.207  1.00  0.00     0.071 C 
HETATM    9  C2  UNL     1     -19.675  68.611  31.890  1.00  0.00     0.015 C 
HETATM   10  C4  UNL     1     -17.817  69.356  33.086  1.00  0.00     0.219 C 
HETATM   11  C1  UNL     1     -20.622  67.830  31.455  1.00  0.00     0.025 C 
HETATM   12  C3  UNL     1     -18.653  69.178  30.977  1.00  0.00     0.289 C 
HETATM   13  O1  UNL     1     -18.707  69.346  29.735  1.00  0.00    -0.260 OA
HETATM   14  O2  UNL     1     -17.518  69.535  31.736  1.00  0.00    -0.305 OA
HETATM   15  F1  UNL     1     -16.014  70.644  33.854  1.00  0.00    -0.198 F 
HETATM   16  F2  UNL     1     -17.757  70.184  35.205  1.00  0.00    -0.198 F 
BRANCH   6  17
HETATM   17  C7  UNL     1     -21.528  70.102  33.272  1.00  0.00     0.009 C 
HETATM   18  C8  UNL     1     -22.541  70.190  34.387  1.00  0.00     0.006 C 
ENDBRANCH   6  17
ENDBRANCH   1   2
BRANCH   1  19
HETATM   19  C13 UNL     1     -16.381  73.997  35.208  1.00  0.00     0.013 C 
BRANCH  19  20
HETATM   20  C14 UNL     1     -16.449  73.597  36.624  1.00  0.00     0.028 C 
BRANCH  20  21
HETATM   21  C15 UNL     1     -17.943  73.735  36.974  1.00  0.00    -0.025 C 
HETATM   22  C16 UNL     1     -18.393  74.740  37.685  1.00  0.00    -0.091 C 
HETATM   23  C17 UNL     1     -17.437  75.767  38.160  1.00  0.00     0.042 C 
HETATM   24  C18 UNL     1     -19.829  74.858  38.012  1.00  0.00     0.042 C 
ENDBRANCH  20  21
ENDBRANCH  19  20
ENDBRANCH   1  19
BRANCH   1  25
HETATM   25  C19 UNL     1     -17.616  75.475  33.614  1.00  0.00    -0.035 C 
HETATM   26  C20 UNL     1     -17.238  76.544  34.624  1.00  0.00     0.016 C 
HETATM   27  C21 UNL     1     -19.035  75.807  33.228  1.00  0.00     0.012 C 
HETATM   28  C22 UNL     1     -19.379  75.926  31.814  1.00  0.00     0.028 C 
HETATM   29  C23 UNL     1     -18.319  76.525  30.924  1.00  0.00     0.060 C 
HETATM   30  C24 UNL     1     -18.072  77.972  31.159  1.00  0.00     0.035 C 
HETATM   31 CL1  UNL     1     -18.865  76.322  29.240  1.00  0.00    -0.117 Cl
HETATM   32  C25 UNL     1     -17.111  75.649  31.110  1.00  0.00     0.155 C 
HETATM   33  C28 UNL     1     -16.629  75.541  32.503  1.00  0.00     0.044 C 
BRANCH  32  34
HETATM   34  O4  UNL     1     -16.088  76.211  30.277  1.00  0.00    -0.314 OA
BRANCH  34  35
HETATM   35  C26 UNL     1     -15.129  75.461  29.655  1.00  0.00     0.255 C 
HETATM   36  C27 UNL     1     -15.440  74.735  28.396  1.00  0.00     0.126 C 
HETATM   37  O5  UNL     1     -13.985  75.413  30.189  1.00  0.00    -0.266 OA
ENDBRANCH  34  35
ENDBRANCH  32  34
ENDBRANCH   1  25
TORSDOF 8
ENDMDL
MODEL 5
REMARK VINA RESULT: -8.176629012      2.755      6.925
REMARK  8 active torsions:
REMARK  status: ('A' for Active; 'I' for Inactive)
REMARK    1  A    between atoms: C6_8  and  C7_9 
REMARK    2  A    between atoms: C11_14  and  C12_15 
REMARK    3  A    between atoms: C12_15  and  C13_16 
REMARK    4  A    between atoms: C12_15  and  C19_22 
REMARK    5  A    between atoms: C13_16  and  C14_17 
REMARK    6  A    between atoms: C14_17  and  C15_18 
REMARK    7  A    between atoms: C25_29  and  O4_30 
REMARK    8  A    between atoms: O4_30  and  C26_31 
ROOT
HETATM    1  C12 UNL     1     -17.933  69.366  33.064  1.00  0.00     0.017 C 
ENDROOT
BRANCH   1   2
HETATM    2  C11 UNL     1     -18.305  70.310  34.180  1.00  0.00    -0.004 C 
HETATM    3  C10 UNL     1     -17.623  71.520  34.517  1.00  0.00     0.058 C 
HETATM    4  C9  UNL     1     -17.453  72.605  33.523  1.00  0.00     0.166 C 
HETATM    5  C29 UNL     1     -16.497  71.568  35.503  1.00  0.00     0.301 C 
HETATM    6  C6  UNL     1     -16.707  73.816  33.928  1.00  0.00     0.071 C 
HETATM    7  O3  UNL     1     -17.892  72.551  32.397  1.00  0.00    -0.292 OA
HETATM    8  C5  UNL     1     -16.579  74.069  35.377  1.00  0.00     0.071 C 
HETATM    9  C2  UNL     1     -17.490  75.059  35.976  1.00  0.00     0.015 C 
HETATM   10  C4  UNL     1     -16.672  72.898  36.298  1.00  0.00     0.219 C 
HETATM   11  C1  UNL     1     -17.558  76.359  35.987  1.00  0.00     0.025 C 
HETATM   12  C3  UNL     1     -18.479  74.222  36.698  1.00  0.00     0.289 C 
HETATM   13  O1  UNL     1     -19.643  74.512  37.066  1.00  0.00    -0.260 OA
HETATM   14  O2  UNL     1     -17.907  72.956  36.943  1.00  0.00    -0.305 OA
HETATM   15  F1  UNL     1     -16.496  70.563  36.426  1.00  0.00    -0.198 F 
HETATM   16  F2  UNL     1     -15.236  71.734  34.970  1.00  0.00    -0.198 F 
BRANCH   6  17
HETATM   17  C7  UNL     1     -17.172  75.087  33.245  1.00  0.00     0.009 C 
HETATM   18  C8  UNL     1     -16.241  75.537  32.145  1.00  0.00     0.006 C 
ENDBRANCH   6  17
ENDBRANCH   1   2
BRANCH   1  19
HETATM   19  C13 UNL     1     -17.329  68.160  33.639  1.00  0.00     0.013 C 
BRANCH  19  20
HETATM   20  C14 UNL     1     -16.118  67.497  33.125  1.00  0.00     0.028 C 
BRANCH  20  21
HETATM   21  C15 UNL     1     -15.442  68.581  32.265  1.00  0.00    -0.025 C 
HETATM   22  C16 UNL     1     -15.333  68.458  30.965  1.00  0.00    -0.091 C 
HETATM   23  C17 UNL     1     -15.876  67.245  30.311  1.00  0.00     0.042 C 
HETATM   24  C18 UNL     1     -14.681  69.507  30.153  1.00  0.00     0.042 C 
ENDBRANCH  20  21
ENDBRANCH  19  20
ENDBRANCH   1  19
BRANCH   1  25
HETATM   25  C19 UNL     1     -19.170  69.108  32.239  1.00  0.00    -0.035 C 
HETATM   26  C20 UNL     1     -19.298  67.603  32.077  1.00  0.00     0.016 C 
HETATM   27  C21 UNL     1     -19.003  69.624  30.831  1.00  0.00     0.012 C 
HETATM   28  C22 UNL     1     -19.872  70.700  30.360  1.00  0.00     0.028 C 
HETATM   29  C23 UNL     1     -21.292  70.672  30.866  1.00  0.00     0.060 C 
HETATM   30  C24 UNL     1     -22.108  69.552  30.331  1.00  0.00     0.035 C 
HETATM   31 CL1  UNL     1     -22.059  72.203  30.372  1.00  0.00    -0.117 Cl
HETATM   32  C25 UNL     1     -21.174  70.697  32.365  1.00  0.00     0.155 C 
HETATM   33  C28 UNL     1     -20.388  69.588  32.945  1.00  0.00     0.044 C 
BRANCH  32  34
HETATM   34  O4  UNL     1     -22.518  70.661  32.864  1.00  0.00    -0.314 OA
BRANCH  34  35
HETATM   35  C26 UNL     1     -22.963  71.457  33.881  1.00  0.00     0.255 C 
HETATM   36  C27 UNL     1     -22.079  71.769  35.035  1.00  0.00     0.126 C 
HETATM   37  O5  UNL     1     -24.140  71.910  33.800  1.00  0.00    -0.266 OA
ENDBRANCH  34  35
ENDBRANCH  32  34
ENDBRANCH   1  25
TORSDOF 8
ENDMDL
