MODEL 1
REMARK VINA RESULT: -8.561286462      0.000      0.000
REMARK  11 active torsions:
REMARK  status: ('A' for Active; 'I' for Inactive)
REMARK    1  A    between atoms: C2_2  and  C3_3 
REMARK    2  A    between atoms: C3_3  and  C31_37 
REMARK    3  A    between atoms: C4_4  and  C6_6 
REMARK    4  A    between atoms: C6_6  and  C7_7 
REMARK    5  A    between atoms: C7_7  and  C8_8 
REMARK    6  A    between atoms: C17_17  and  C19_19 
REMARK    7  A    between atoms: C19_19  and  O1_20 
REMARK    8  A    between atoms: O1_20  and  C20_21 
REMARK    9  A    between atoms: C20_21  and  C21_23 
REMARK   10  A    between atoms: C23_25  and  C24_26 
REMARK   11  A    between atoms: C24_26  and  O4_28 
ROOT
HETATM    1  C8  UNL     1     -21.969  75.245  33.298  1.00  0.00    -0.010 C 
HETATM    2  C9  UNL     1     -20.537  75.151  32.833  1.00  0.00     0.005 C 
HETATM    3  C10 UNL     1     -19.771  74.075  33.593  1.00  0.00     0.010 C 
HETATM    4  C11 UNL     1     -20.609  72.833  33.788  1.00  0.00     0.025 C 
HETATM    5  C12 UNL     1     -21.709  72.900  32.790  1.00  0.00    -0.078 C 
HETATM    6  C13 UNL     1     -21.846  72.105  31.743  1.00  0.00    -0.023 C 
HETATM    7  C14 UNL     1     -20.794  71.048  31.556  1.00  0.00     0.032 C 
HETATM    8  C15 UNL     1     -20.543  70.535  32.976  1.00  0.00    -0.004 C 
HETATM    9  C16 UNL     1     -19.910  69.196  32.879  1.00  0.00     0.011 C 
HETATM   10  C17 UNL     1     -19.832  71.562  33.782  1.00  0.00    -0.011 C 
HETATM   11  C18 UNL     1     -19.794  71.023  35.221  1.00  0.00     0.018 C 
HETATM   12  C30 UNL     1     -22.731  73.958  33.007  1.00  0.00     0.039 C 
ENDROOT
BRANCH  10  13
HETATM   13  C19 UNL     1     -18.381  71.749  33.401  1.00  0.00     0.189 C 
BRANCH  13  14
HETATM   14  O1  UNL     1     -17.601  71.681  34.583  1.00  0.00    -0.320 OA
BRANCH  14  15
HETATM   15  C20 UNL     1     -16.267  71.917  34.645  1.00  0.00     0.268 C 
HETATM   16  O2  UNL     1     -15.442  71.056  34.279  1.00  0.00    -0.264 OA
BRANCH  15  17
HETATM   17  C21 UNL     1     -15.814  73.262  35.173  1.00  0.00     0.135 A 
HETATM   18  C22 UNL     1     -16.436  73.542  36.468  1.00  0.00     0.067 A 
HETATM   19  C23 UNL     1     -17.150  74.832  36.577  1.00  0.00     0.040 A 
HETATM   20  C26 UNL     1     -17.257  75.708  35.612  1.00  0.00     0.017 A 
HETATM   21  C27 UNL     1     -17.984  77.022  35.725  1.00  0.00     0.069 C 
HETATM   22  N1  UNL     1     -16.626  75.382  34.354  1.00  0.00    -0.366 N 
HETATM   23  C28 UNL     1     -15.985  74.299  34.154  1.00  0.00    -0.003 A 
ATOM     24  H1  UNL     1     -16.697  76.052  33.588  1.00  0.00     0.165 HD
HETATM   25  C29 UNL     1     -15.379  74.092  32.788  1.00  0.00     0.064 C 
BRANCH  19  26
HETATM   26  C24 UNL     1     -17.774  75.123  37.875  1.00  0.00     0.290 C 
HETATM   27  O3  UNL     1     -17.285  75.931  38.667  1.00  0.00    -0.260 OA
BRANCH  26  28
HETATM   28  O4  UNL     1     -18.945  74.485  38.242  1.00  0.00    -0.323 OA
HETATM   29  C25 UNL     1     -20.102  74.563  37.433  1.00  0.00     0.213 C 
ENDBRANCH  26  28
ENDBRANCH  19  26
ENDBRANCH  15  17
ENDBRANCH  14  15
ENDBRANCH  13  14
ENDBRANCH  10  13
BRANCH   1  30
HETATM   30  C7  UNL     1     -22.661  76.339  32.514  1.00  0.00     0.009 C 
BRANCH  30  31
HETATM   31  C6  UNL     1     -21.674  77.093  31.687  1.00  0.00     0.034 C 
BRANCH  31  32
HETATM   32  C4  UNL     1     -21.005  78.217  32.420  1.00  0.00    -0.073 C 
HETATM   33  C3  UNL     1     -19.823  78.616  32.033  1.00  0.00     0.027 C 
HETATM   34  C5  UNL     1     -21.761  78.865  33.540  1.00  0.00     0.044 C 
BRANCH  33  35
HETATM   35  C2  UNL     1     -19.072  77.946  30.903  1.00  0.00     0.039 C 
HETATM   36  C1  UNL     1     -17.941  77.120  31.437  1.00  0.00     0.010 C 
ENDBRANCH  33  35
BRANCH  33  37
HETATM   37  C31 UNL     1     -19.113  79.746  32.670  1.00  0.00     0.414 C 
HETATM   38  F1  UNL     1     -18.181  80.206  31.706  1.00  0.00    -0.166 F 
HETATM   39  F2  UNL     1     -18.441  79.508  33.811  1.00  0.00    -0.166 F 
HETATM   40  F3  UNL     1     -20.053  80.768  32.860  1.00  0.00    -0.166 F 
ENDBRANCH  33  37
ENDBRANCH  31  32
ENDBRANCH  30  31
ENDBRANCH   1  30
TORSDOF 11
ENDMDL
MODEL 2
REMARK VINA RESULT: -8.527970610      1.215      1.644
REMARK  11 active torsions:
REMARK  status: ('A' for Active; 'I' for Inactive)
REMARK    1  A    between atoms: C2_2  and  C3_3 
REMARK    2  A    between atoms: C3_3  and  C31_37 
REMARK    3  A    between atoms: C4_4  and  C6_6 
REMARK    4  A    between atoms: C6_6  and  C7_7 
REMARK    5  A    between atoms: C7_7  and  C8_8 
REMARK    6  A    between atoms: C17_17  and  C19_19 
REMARK    7  A    between atoms: C19_19  and  O1_20 
REMARK    8  A    between atoms: O1_20  and  C20_21 
REMARK    9  A    between atoms: C20_21  and  C21_23 
REMARK   10  A    between atoms: C23_25  and  C24_26 
REMARK   11  A    between atoms: C24_26  and  O4_28 
ROOT
HETATM    1  C8  UNL     1     -21.426  76.600  32.621  1.00  0.00    -0.010 C 
HETATM    2  C9  UNL     1     -20.216  75.876  32.082  1.00  0.00     0.005 C 
HETATM    3  C10 UNL     1     -19.729  74.803  33.049  1.00  0.00     0.010 C 
HETATM    4  C11 UNL     1     -20.883  74.044  33.658  1.00  0.00     0.025 C 
HETATM    5  C12 UNL     1     -22.059  74.276  32.779  1.00  0.00    -0.078 C 
HETATM    6  C13 UNL     1     -22.641  73.367  32.017  1.00  0.00    -0.023 C 
HETATM    7  C14 UNL     1     -22.055  71.984  32.050  1.00  0.00     0.032 C 
HETATM    8  C15 UNL     1     -21.736  71.763  33.530  1.00  0.00    -0.004 C 
HETATM    9  C16 UNL     1     -21.614  70.303  33.765  1.00  0.00     0.011 C 
HETATM   10  C17 UNL     1     -20.590  72.612  33.948  1.00  0.00    -0.011 C 
HETATM   11  C18 UNL     1     -20.473  72.451  35.473  1.00  0.00     0.018 C 
HETATM   12  C30 UNL     1     -22.612  75.657  32.773  1.00  0.00     0.039 C 
ENDROOT
BRANCH  10  13
HETATM   13  C19 UNL     1     -19.254  72.153  33.408  1.00  0.00     0.189 C 
BRANCH  13  14
HETATM   14  O1  UNL     1     -18.374  71.968  34.505  1.00  0.00    -0.320 OA
BRANCH  14  15
HETATM   15  C20 UNL     1     -17.020  71.980  34.421  1.00  0.00     0.268 C 
HETATM   16  O2  UNL     1     -16.399  71.046  33.877  1.00  0.00    -0.264 OA
BRANCH  15  17
HETATM   17  C21 UNL     1     -16.290  73.168  35.013  1.00  0.00     0.135 A 
HETATM   18  C22 UNL     1     -16.768  73.443  36.369  1.00  0.00     0.067 A 
HETATM   19  C23 UNL     1     -17.217  74.827  36.627  1.00  0.00     0.040 A 
HETATM   20  C26 UNL     1     -17.216  75.789  35.742  1.00  0.00     0.017 A 
HETATM   21  C27 UNL     1     -17.673  77.199  36.008  1.00  0.00     0.069 C 
HETATM   22  N1  UNL     1     -16.736  75.465  34.418  1.00  0.00    -0.366 N 
HETATM   23  C28 UNL     1     -16.325  74.304  34.090  1.00  0.00    -0.003 A 
ATOM     24  H1  UNL     1     -16.726  76.201  33.712  1.00  0.00     0.165 HD
HETATM   25  C29 UNL     1     -15.853  74.111  32.670  1.00  0.00     0.064 C 
BRANCH  19  26
HETATM   26  C24 UNL     1     -17.694  75.113  37.987  1.00  0.00     0.290 C 
HETATM   27  O3  UNL     1     -17.049  75.812  38.771  1.00  0.00    -0.260 OA
BRANCH  26  28
HETATM   28  O4  UNL     1     -18.899  74.594  38.425  1.00  0.00    -0.323 OA
HETATM   29  C25 UNL     1     -20.089  74.788  37.685  1.00  0.00     0.213 C 
ENDBRANCH  26  28
ENDBRANCH  19  26
ENDBRANCH  15  17
ENDBRANCH  14  15
ENDBRANCH  13  14
ENDBRANCH  10  13
BRANCH   1  30
HETATM   30  C7  UNL     1     -21.843  77.655  31.619  1.00  0.00     0.009 C 
BRANCH  30  31
HETATM   31  C6  UNL     1     -20.719  77.964  30.687  1.00  0.00     0.034 C 
BRANCH  31  32
HETATM   32  C4  UNL     1     -20.415  79.428  30.573  1.00  0.00    -0.073 C 
HETATM   33  C3  UNL     1     -19.306  79.890  31.089  1.00  0.00     0.027 C 
HETATM   34  C5  UNL     1     -21.386  80.285  29.820  1.00  0.00     0.044 C 
BRANCH  33  35
HETATM   35  C2  UNL     1     -18.340  79.010  31.851  1.00  0.00     0.039 C 
HETATM   36  C1  UNL     1     -18.609  79.081  33.324  1.00  0.00     0.010 C 
ENDBRANCH  33  35
BRANCH  33  37
HETATM   37  C31 UNL     1     -18.907  81.309  30.982  1.00  0.00     0.414 C 
HETATM   38  F1  UNL     1     -17.519  81.340  31.270  1.00  0.00    -0.166 F 
HETATM   39  F2  UNL     1     -19.514  82.199  31.787  1.00  0.00    -0.166 F 
HETATM   40  F3  UNL     1     -19.060  81.680  29.639  1.00  0.00    -0.166 F 
ENDBRANCH  33  37
ENDBRANCH  31  32
ENDBRANCH  30  31
ENDBRANCH   1  30
TORSDOF 11
ENDMDL
MODEL 3
REMARK VINA RESULT: -8.497875340      1.372      1.889
REMARK  11 active torsions:
REMARK  status: ('A' for Active; 'I' for Inactive)
REMARK    1  A    between atoms: C2_2  and  C3_3 
REMARK    2  A    between atoms: C3_3  and  C31_37 
REMARK    3  A    between atoms: C4_4  and  C6_6 
REMARK    4  A    between atoms: C6_6  and  C7_7 
REMARK    5  A    between atoms: C7_7  and  C8_8 
REMARK    6  A    between atoms: C17_17  and  C19_19 
REMARK    7  A    between atoms: C19_19  and  O1_20 
REMARK    8  A    between atoms: O1_20  and  C20_21 
REMARK    9  A    between atoms: C20_21  and  C21_23 
REMARK   10  A    between atoms: C23_25  and  C24_26 
REMARK   11  A    between atoms: C24_26  and  O4_28 
ROOT
HETATM    1  C8  UNL     1     -22.384  74.891  32.960  1.00  0.00    -0.010 C 
HETATM    2  C9  UNL     1     -20.948  74.988  32.505  1.00  0.00     0.005 C 
HETATM    3  C10 UNL     1     -20.032  74.113  33.352  1.00  0.00     0.010 C 
HETATM    4  C11 UNL     1     -20.667  72.774  33.649  1.00  0.00     0.025 C 
HETATM    5  C12 UNL     1     -21.750  72.584  32.649  1.00  0.00    -0.078 C 
HETATM    6  C13 UNL     1     -21.746  71.694  31.672  1.00  0.00    -0.023 C 
HETATM    7  C14 UNL     1     -20.538  70.805  31.574  1.00  0.00     0.032 C 
HETATM    8  C15 UNL     1     -20.228  70.457  33.032  1.00  0.00    -0.004 C 
HETATM    9  C16 UNL     1     -19.390  69.232  33.047  1.00  0.00     0.011 C 
HETATM   10  C17 UNL     1     -19.699  71.646  33.750  1.00  0.00    -0.011 C 
HETATM   11  C18 UNL     1     -19.595  71.240  35.229  1.00  0.00     0.018 C 
HETATM   12  C30 UNL     1     -22.929  73.481  32.777  1.00  0.00     0.039 C 
ENDROOT
BRANCH  10  13
HETATM   13  C19 UNL     1     -18.290  72.028  33.355  1.00  0.00     0.189 C 
BRANCH  13  14
HETATM   14  O1  UNL     1     -17.432  71.741  34.446  1.00  0.00    -0.320 OA
BRANCH  14  15
HETATM   15  C20 UNL     1     -16.113  72.055  34.497  1.00  0.00     0.268 C 
HETATM   16  O2  UNL     1     -15.243  71.250  34.108  1.00  0.00    -0.264 OA
BRANCH  15  17
HETATM   17  C21 UNL     1     -15.735  73.416  35.042  1.00  0.00     0.135 A 
HETATM   18  C22 UNL     1     -16.352  73.635  36.351  1.00  0.00     0.067 A 
HETATM   19  C23 UNL     1     -17.142  74.877  36.493  1.00  0.00     0.040 A 
HETATM   20  C26 UNL     1     -17.317  75.761  35.546  1.00  0.00     0.017 A 
HETATM   21  C27 UNL     1     -18.121  77.026  35.692  1.00  0.00     0.069 C 
HETATM   22  N1  UNL     1     -16.688  75.496  34.273  1.00  0.00    -0.366 N 
HETATM   23  C28 UNL     1     -15.985  74.457  34.044  1.00  0.00    -0.003 A 
ATOM     24  H1  UNL     1     -16.812  76.173  33.520  1.00  0.00     0.165 HD
HETATM   25  C29 UNL     1     -15.390  74.311  32.666  1.00  0.00     0.064 C 
BRANCH  19  26
HETATM   26  C24 UNL     1     -17.762  75.108  37.805  1.00  0.00     0.290 C 
HETATM   27  O3  UNL     1     -17.285  75.899  38.621  1.00  0.00    -0.260 OA
BRANCH  26  28
HETATM   28  O4  UNL     1     -18.914  74.430  38.158  1.00  0.00    -0.323 OA
HETATM   29  C25 UNL     1     -20.090  74.534  37.378  1.00  0.00     0.213 C 
ENDBRANCH  26  28
ENDBRANCH  19  26
ENDBRANCH  15  17
ENDBRANCH  14  15
ENDBRANCH  13  14
ENDBRANCH  10  13
BRANCH   1  30
HETATM   30  C7  UNL     1     -23.228  75.794  32.087  1.00  0.00     0.009 C 
BRANCH  30  31
HETATM   31  C6  UNL     1     -22.433  76.970  31.626  1.00  0.00     0.034 C 
BRANCH  31  32
HETATM   32  C4  UNL     1     -23.054  78.290  31.969  1.00  0.00    -0.073 C 
HETATM   33  C3  UNL     1     -22.531  79.012  32.924  1.00  0.00     0.027 C 
HETATM   34  C5  UNL     1     -24.227  78.742  31.153  1.00  0.00     0.044 C 
BRANCH  33  35
HETATM   35  C2  UNL     1     -21.349  78.538  33.741  1.00  0.00     0.039 C 
HETATM   36  C1  UNL     1     -20.065  79.048  33.159  1.00  0.00     0.010 C 
ENDBRANCH  33  35
BRANCH  33  37
HETATM   37  C31 UNL     1     -23.052  80.345  33.295  1.00  0.00     0.414 C 
HETATM   38  F1  UNL     1     -22.444  80.662  34.536  1.00  0.00    -0.166 F 
HETATM   39  F2  UNL     1     -24.381  80.486  33.440  1.00  0.00    -0.166 F 
HETATM   40  F3  UNL     1     -22.563  81.256  32.349  1.00  0.00    -0.166 F 
ENDBRANCH  33  37
ENDBRANCH  31  32
ENDBRANCH  30  31
ENDBRANCH   1  30
TORSDOF 11
ENDMDL
MODEL 4
REMARK VINA RESULT: -8.461347568      3.597      6.104
REMARK  11 active torsions:
REMARK  status: ('A' for Active; 'I' for Inactive)
REMARK    1  A    between atoms: C2_2  and  C3_3 
REMARK    2  A    between atoms: C3_3  and  C31_37 
REMARK    3  A    between atoms: C4_4  and  C6_6 
REMARK    4  A    between atoms: C6_6  and  C7_7 
REMARK    5  A    between atoms: C7_7  and  C8_8 
REMARK    6  A    between atoms: C17_17  and  C19_19 
REMARK    7  A    between atoms: C19_19  and  O1_20 
REMARK    8  A    between atoms: O1_20  and  C20_21 
REMARK    9  A    between atoms: C20_21  and  C21_23 
REMARK   10  A    between atoms: C23_25  and  C24_26 
REMARK   11  A    between atoms: C24_26  and  O4_28 
ROOT
HETATM    1  C8  UNL     1     -15.571  74.315  31.619  1.00  0.00    -0.010 C 
HETATM    2  C9  UNL     1     -15.491  74.885  33.014  1.00  0.00     0.005 C 
HETATM    3  C10 UNL     1     -16.644  74.400  33.884  1.00  0.00     0.010 C 
HETATM    4  C11 UNL     1     -16.929  72.934  33.657  1.00  0.00     0.025 C 
HETATM    5  C12 UNL     1     -15.715  72.356  33.022  1.00  0.00    -0.078 C 
HETATM    6  C13 UNL     1     -14.887  71.495  33.587  1.00  0.00    -0.023 C 
HETATM    7  C14 UNL     1     -15.211  71.072  34.992  1.00  0.00     0.032 C 
HETATM    8  C15 UNL     1     -16.731  70.891  34.974  1.00  0.00    -0.004 C 
HETATM    9  C16 UNL     1     -17.108  70.028  36.120  1.00  0.00     0.011 C 
HETATM   10  C17 UNL     1     -17.410  72.209  34.866  1.00  0.00    -0.011 C 
HETATM   11  C18 UNL     1     -18.905  71.904  34.673  1.00  0.00     0.018 C 
HETATM   12  C30 UNL     1     -15.427  72.799  31.631  1.00  0.00     0.039 C 
ENDROOT
BRANCH  10  13
HETATM   13  C19 UNL     1     -17.346  73.040  36.128  1.00  0.00     0.189 C 
BRANCH  13  14
HETATM   14  O1  UNL     1     -18.670  73.391  36.494  1.00  0.00    -0.320 OA
BRANCH  14  15
HETATM   15  C20 UNL     1     -19.008  74.491  37.212  1.00  0.00     0.268 C 
HETATM   16  O2  UNL     1     -18.778  74.559  38.435  1.00  0.00    -0.264 OA
BRANCH  15  17
HETATM   17  C21 UNL     1     -19.676  75.633  36.475  1.00  0.00     0.135 A 
HETATM   18  C22 UNL     1     -20.676  75.124  35.535  1.00  0.00     0.067 A 
HETATM   19  C23 UNL     1     -20.543  75.586  34.137  1.00  0.00     0.040 A 
HETATM   20  C26 UNL     1     -19.612  76.395  33.704  1.00  0.00     0.017 A 
HETATM   21  C27 UNL     1     -19.478  76.865  32.280  1.00  0.00     0.069 C 
HETATM   22  N1  UNL     1     -18.648  76.867  34.672  1.00  0.00    -0.366 N 
HETATM   23  C28 UNL     1     -18.672  76.532  35.902  1.00  0.00    -0.003 A 
ATOM     24  H1  UNL     1     -17.913  77.499  34.356  1.00  0.00     0.165 HD
HETATM   25  C29 UNL     1     -17.601  77.102  36.798  1.00  0.00     0.064 C 
BRANCH  19  26
HETATM   26  C24 UNL     1     -21.546  75.084  33.187  1.00  0.00     0.290 C 
HETATM   27  O3  UNL     1     -22.593  75.693  32.961  1.00  0.00    -0.260 OA
BRANCH  26  28
HETATM   28  O4  UNL     1     -21.332  73.894  32.515  1.00  0.00    -0.323 OA
HETATM   29  C25 UNL     1     -22.134  72.757  32.772  1.00  0.00     0.213 C 
ENDBRANCH  26  28
ENDBRANCH  19  26
ENDBRANCH  15  17
ENDBRANCH  14  15
ENDBRANCH  13  14
ENDBRANCH  10  13
BRANCH   1  30
HETATM   30  C7  UNL     1     -14.408  74.849  30.812  1.00  0.00     0.009 C 
BRANCH  30  31
HETATM   31  C6  UNL     1     -14.876  75.345  29.484  1.00  0.00     0.034 C 
BRANCH  31  32
HETATM   32  C4  UNL     1     -15.274  74.253  28.538  1.00  0.00    -0.073 C 
HETATM   33  C3  UNL     1     -16.523  74.156  28.166  1.00  0.00     0.027 C 
HETATM   34  C5  UNL     1     -14.195  73.350  28.021  1.00  0.00     0.044 C 
BRANCH  33  35
HETATM   35  C2  UNL     1     -17.601  75.073  28.702  1.00  0.00     0.039 C 
HETATM   36  C1  UNL     1     -18.426  74.370  29.737  1.00  0.00     0.010 C 
ENDBRANCH  33  35
BRANCH  33  37
HETATM   37  C31 UNL     1     -16.992  73.138  27.201  1.00  0.00     0.414 C 
HETATM   38  F1  UNL     1     -17.033  71.917  27.921  1.00  0.00    -0.166 F 
HETATM   39  F2  UNL     1     -16.262  72.935  26.090  1.00  0.00    -0.166 F 
HETATM   40  F3  UNL     1     -18.313  73.466  26.866  1.00  0.00    -0.166 F 
ENDBRANCH  33  37
ENDBRANCH  31  32
ENDBRANCH  30  31
ENDBRANCH   1  30
TORSDOF 11
ENDMDL
MODEL 5
REMARK VINA RESULT: -8.409967098      5.097      8.428
REMARK  11 active torsions:
REMARK  status: ('A' for Active; 'I' for Inactive)
REMARK    1  A    between atoms: C2_2  and  C3_3 
REMARK    2  A    between atoms: C3_3  and  C31_37 
REMARK    3  A    between atoms: C4_4  and  C6_6 
REMARK    4  A    between atoms: C6_6  and  C7_7 
REMARK    5  A    between atoms: C7_7  and  C8_8 
REMARK    6  A    between atoms: C17_17  and  C19_19 
REMARK    7  A    between atoms: C19_19  and  O1_20 
REMARK    8  A    between atoms: O1_20  and  C20_21 
REMARK    9  A    between atoms: C20_21  and  C21_23 
REMARK   10  A    between atoms: C23_25  and  C24_26 
REMARK   11  A    between atoms: C24_26  and  O4_28 
ROOT
HETATM    1  C8  UNL     1     -20.498  72.131  33.813  1.00  0.00    -0.010 C 
HETATM    2  C9  UNL     1     -19.614  72.901  32.863  1.00  0.00     0.005 C 
HETATM    3  C10 UNL     1     -20.379  74.023  32.171  1.00  0.00     0.010 C 
HETATM    4  C11 UNL     1     -21.299  74.738  33.132  1.00  0.00     0.025 C 
HETATM    5  C12 UNL     1     -20.815  74.421  34.502  1.00  0.00    -0.078 C 
HETATM    6  C13 UNL     1     -20.253  75.279  35.336  1.00  0.00    -0.023 C 
HETATM    7  C14 UNL     1     -20.095  76.691  34.846  1.00  0.00     0.032 C 
HETATM    8  C15 UNL     1     -21.410  76.968  34.113  1.00  0.00    -0.004 C 
HETATM    9  C16 UNL     1     -21.582  78.438  34.011  1.00  0.00     0.011 C 
HETATM   10  C17 UNL     1     -21.473  76.189  32.848  1.00  0.00    -0.011 C 
HETATM   11  C18 UNL     1     -22.892  76.397  32.291  1.00  0.00     0.018 C 
HETATM   12  C30 UNL     1     -20.989  73.014  34.952  1.00  0.00     0.039 C 
ENDROOT
BRANCH  10  13
HETATM   13  C19 UNL     1     -20.554  76.702  31.762  1.00  0.00     0.189 C 
BRANCH  13  14
HETATM   14  O1  UNL     1     -21.238  77.717  31.046  1.00  0.00    -0.320 OA
BRANCH  14  15
HETATM   15  C20 UNL     1     -20.643  78.625  30.233  1.00  0.00     0.268 C 
HETATM   16  O2  UNL     1     -20.176  78.292  29.126  1.00  0.00    -0.264 OA
BRANCH  15  17
HETATM   17  C21 UNL     1     -20.566  80.058  30.718  1.00  0.00     0.135 A 
HETATM   18  C22 UNL     1     -21.255  80.953  29.787  1.00  0.00     0.067 A 
HETATM   19  C23 UNL     1     -20.467  82.103  29.294  1.00  0.00     0.040 A 
HETATM   20  C26 UNL     1     -19.229  82.357  29.628  1.00  0.00     0.017 A 
HETATM   21  C27 UNL     1     -18.429  83.529  29.125  1.00  0.00     0.069 C 
HETATM   22  N1  UNL     1     -18.595  81.441  30.548  1.00  0.00    -0.366 N 
HETATM   23  C28 UNL     1     -19.183  80.420  31.034  1.00  0.00    -0.003 A 
ATOM     24  H1  UNL     1     -17.629  81.620  30.822  1.00  0.00     0.165 HD
HETATM   25  C29 UNL     1     -18.395  79.551  31.983  1.00  0.00     0.064 C 
BRANCH  19  26
HETATM   26  C24 UNL     1     -21.152  83.010  28.363  1.00  0.00     0.290 C 
HETATM   27  O3  UNL     1     -21.738  84.023  28.751  1.00  0.00    -0.260 OA
BRANCH  26  28
HETATM   28  O4  UNL     1     -21.155  82.741  27.006  1.00  0.00    -0.323 OA
HETATM   29  C25 UNL     1     -22.368  82.636  26.286  1.00  0.00     0.213 C 
ENDBRANCH  26  28
ENDBRANCH  19  26
ENDBRANCH  15  17
ENDBRANCH  14  15
ENDBRANCH  13  14
ENDBRANCH  10  13
BRANCH   1  30
HETATM   30  C7  UNL     1     -19.677  71.029  34.449  1.00  0.00     0.009 C 
BRANCH  30  31
HETATM   31  C6  UNL     1     -18.921  71.552  35.625  1.00  0.00     0.034 C 
BRANCH  31  32
HETATM   32  C4  UNL     1     -17.454  71.248  35.582  1.00  0.00    -0.073 C 
HETATM   33  C3  UNL     1     -16.599  72.236  35.551  1.00  0.00     0.027 C 
HETATM   34  C5  UNL     1     -17.037  69.809  35.630  1.00  0.00     0.044 C 
BRANCH  33  35
HETATM   35  C2  UNL     1     -17.038  73.684  35.497  1.00  0.00     0.039 C 
HETATM   36  C1  UNL     1     -17.060  74.280  36.872  1.00  0.00     0.010 C 
ENDBRANCH  33  35
BRANCH  33  37
HETATM   37  C31 UNL     1     -15.136  72.027  35.554  1.00  0.00     0.414 C 
HETATM   38  F1  UNL     1     -14.575  73.236  35.069  1.00  0.00    -0.166 F 
HETATM   39  F2  UNL     1     -14.639  71.019  34.815  1.00  0.00    -0.166 F 
HETATM   40  F3  UNL     1     -14.741  71.894  36.892  1.00  0.00    -0.166 F 
ENDBRANCH  33  37
ENDBRANCH  31  32
ENDBRANCH  30  31
ENDBRANCH   1  30
TORSDOF 11
ENDMDL
