MODEL 1
REMARK VINA RESULT: -8.814000717      0.000      0.000
REMARK  10 active torsions:
REMARK  status: ('A' for Active; 'I' for Inactive)
REMARK    1  A    between atoms: O1_2  and  C2_3 
REMARK    2  A    between atoms: C2_3  and  C3_5 
REMARK    3  A    between atoms: C3_5  and  C4_6 
REMARK    4  A    between atoms: C4_6  and  O3_7 
REMARK    5  A    between atoms: O3_7  and  C5_8 
REMARK    6  A    between atoms: C5_8  and  C6_10 
REMARK    7  A    between atoms: C6_10  and  C7_11 
REMARK    8  A    between atoms: C7_11  and  C8_12 
REMARK    9  A    between atoms: C8_12  and  C9_13 
REMARK   10  A    between atoms: N1_22  and  C17_23 
ROOT
HETATM    1  C4  UNL     1     -19.059  73.145  35.289  1.00  0.00     0.090 C 
HETATM    2  C15 UNL     1     -18.559  72.916  33.863  1.00  0.00     0.060 C 
HETATM    3  C16 UNL     1     -19.489  72.121  33.007  1.00  0.00     0.126 C 
HETATM    4  N1  UNL     1     -19.780  70.864  33.614  1.00  0.00    -0.381 N 
HETATM    5  C23 UNL     1     -19.950  70.887  35.071  1.00  0.00     0.126 C 
HETATM    6  C24 UNL     1     -20.356  72.333  35.358  1.00  0.00     0.060 C 
ENDROOT
BRANCH   1   7
HETATM    7  C3  UNL     1     -19.346  74.610  35.401  1.00  0.00     0.080 C 
HETATM    8  C25 UNL     1     -18.258  75.299  34.564  1.00  0.00     0.023 C 
HETATM    9  C26 UNL     1     -18.793  76.363  33.674  1.00  0.00     0.001 C 
HETATM   10  C27 UNL     1     -19.772  77.262  34.381  1.00  0.00     0.000 C 
HETATM   11  C28 UNL     1     -20.854  76.490  35.059  1.00  0.00     0.001 C 
HETATM   12  C29 UNL     1     -20.711  74.985  34.865  1.00  0.00     0.023 C 
BRANCH   7  13
HETATM   13  C2  UNL     1     -19.266  75.220  36.737  1.00  0.00     0.270 C 
HETATM   14  O2  UNL     1     -20.092  74.898  37.661  1.00  0.00    -0.264 OA
BRANCH  13  15
HETATM   15  O1  UNL     1     -18.315  76.177  37.113  1.00  0.00    -0.326 OA
HETATM   16  C1  UNL     1     -17.418  75.976  38.190  1.00  0.00     0.213 C 
ENDBRANCH  13  15
ENDBRANCH   7  13
ENDBRANCH   1   7
BRANCH   1  17
HETATM   17  O3  UNL     1     -18.089  72.659  36.097  1.00  0.00    -0.309 OA
BRANCH  17  18
HETATM   18  C5  UNL     1     -16.794  72.449  36.135  1.00  0.00     0.259 C 
HETATM   19  O4  UNL     1     -16.058  73.356  36.541  1.00  0.00    -0.265 OA
BRANCH  18  20
HETATM   20  C6  UNL     1     -16.175  71.171  35.712  1.00  0.00     0.111 C 
BRANCH  20  21
HETATM   21  C7  UNL     1     -15.115  71.485  34.689  1.00  0.00     0.014 C 
BRANCH  21  22
HETATM   22  C8  UNL     1     -15.542  71.178  33.276  1.00  0.00     0.039 C 
BRANCH  22  23
HETATM   23  C9  UNL     1     -15.450  72.347  32.377  1.00  0.00    -0.058 A 
HETATM   24  C10 UNL     1     -15.443  72.195  31.017  1.00  0.00     0.009 A 
HETATM   25  C11 UNL     1     -15.357  73.289  30.175  1.00  0.00     0.024 A 
HETATM   26  C12 UNL     1     -15.275  74.563  30.686  1.00  0.00     0.034 A 
HETATM   27 CL1  UNL     1     -15.165  75.974  29.621  1.00  0.00    -0.084 Cl
HETATM   28  C13 UNL     1     -15.281  74.736  32.051  1.00  0.00     0.024 A 
HETATM   29  C14 UNL     1     -15.368  73.621  32.891  1.00  0.00     0.009 A 
ENDBRANCH  22  23
ENDBRANCH  21  22
ENDBRANCH  20  21
ENDBRANCH  18  20
ENDBRANCH  17  18
ENDBRANCH   1  17
BRANCH   4  30
HETATM   30  C17 UNL     1     -19.909  69.668  32.889  1.00  0.00     0.032 A 
HETATM   31  C18 UNL     1     -18.832  68.804  32.733  1.00  0.00     0.032 A 
HETATM   32  C19 UNL     1     -18.905  67.624  32.044  1.00  0.00     0.046 A 
HETATM   33  C20 UNL     1     -20.086  67.248  31.467  1.00  0.00     0.138 A 
HETATM   34  F1  UNL     1     -20.134  66.077  30.791  1.00  0.00    -0.204 F 
HETATM   35  C21 UNL     1     -21.180  68.063  31.591  1.00  0.00     0.074 A 
HETATM   36 CL2  UNL     1     -22.711  67.595  30.854  1.00  0.00    -0.081 Cl
HETATM   37  C22 UNL     1     -21.087  69.267  32.299  1.00  0.00     0.056 A 
ENDBRANCH   4  30
TORSDOF 10
ENDMDL
MODEL 2
REMARK VINA RESULT: -8.647765915      1.189      1.690
REMARK  10 active torsions:
REMARK  status: ('A' for Active; 'I' for Inactive)
REMARK    1  A    between atoms: O1_2  and  C2_3 
REMARK    2  A    between atoms: C2_3  and  C3_5 
REMARK    3  A    between atoms: C3_5  and  C4_6 
REMARK    4  A    between atoms: C4_6  and  O3_7 
REMARK    5  A    between atoms: O3_7  and  C5_8 
REMARK    6  A    between atoms: C5_8  and  C6_10 
REMARK    7  A    between atoms: C6_10  and  C7_11 
REMARK    8  A    between atoms: C7_11  and  C8_12 
REMARK    9  A    between atoms: C8_12  and  C9_13 
REMARK   10  A    between atoms: N1_22  and  C17_23 
ROOT
HETATM    1  C4  UNL     1     -19.294  73.025  35.143  1.00  0.00     0.090 C 
HETATM    2  C15 UNL     1     -18.833  72.768  33.708  1.00  0.00     0.060 C 
HETATM    3  C16 UNL     1     -19.839  72.065  32.858  1.00  0.00     0.126 C 
HETATM    4  N1  UNL     1     -20.231  70.832  33.457  1.00  0.00    -0.381 N 
HETATM    5  C23 UNL     1     -20.381  70.856  34.916  1.00  0.00     0.126 C 
HETATM    6  C24 UNL     1     -20.656  72.328  35.221  1.00  0.00     0.060 C 
ENDROOT
BRANCH   1   7
HETATM    7  C3  UNL     1     -19.451  74.508  35.271  1.00  0.00     0.080 C 
HETATM    8  C25 UNL     1     -18.418  75.108  34.306  1.00  0.00     0.023 C 
HETATM    9  C26 UNL     1     -18.969  76.210  33.473  1.00  0.00     0.001 C 
HETATM   10  C27 UNL     1     -19.785  77.184  34.278  1.00  0.00     0.000 C 
HETATM   11  C28 UNL     1     -20.837  76.500  35.086  1.00  0.00     0.001 C 
HETATM   12  C29 UNL     1     -20.836  74.988  34.893  1.00  0.00     0.023 C 
BRANCH   7  13
HETATM   13  C2  UNL     1     -19.169  75.113  36.582  1.00  0.00     0.270 C 
HETATM   14  O2  UNL     1     -19.933  74.899  37.587  1.00  0.00    -0.264 OA
BRANCH  13  15
HETATM   15  O1  UNL     1     -18.078  75.950  36.848  1.00  0.00    -0.326 OA
HETATM   16  C1  UNL     1     -17.410  75.956  38.097  1.00  0.00     0.213 C 
ENDBRANCH  13  15
ENDBRANCH   7  13
ENDBRANCH   1   7
BRANCH   1  17
HETATM   17  O3  UNL     1     -18.360  72.448  35.934  1.00  0.00    -0.309 OA
BRANCH  17  18
HETATM   18  C5  UNL     1     -17.129  71.994  35.905  1.00  0.00     0.259 C 
HETATM   19  O4  UNL     1     -16.948  70.783  35.732  1.00  0.00    -0.265 OA
BRANCH  18  20
HETATM   20  C6  UNL     1     -15.947  72.870  36.071  1.00  0.00     0.111 C 
BRANCH  20  21
HETATM   21  C7  UNL     1     -15.219  72.923  34.753  1.00  0.00     0.014 C 
BRANCH  21  22
HETATM   22  C8  UNL     1     -15.464  74.199  33.989  1.00  0.00     0.039 C 
BRANCH  22  23
HETATM   23  C9  UNL     1     -15.266  74.047  32.532  1.00  0.00    -0.058 A 
HETATM   24  C10 UNL     1     -14.881  75.106  31.756  1.00  0.00     0.009 A 
HETATM   25  C11 UNL     1     -14.696  74.965  30.393  1.00  0.00     0.024 A 
HETATM   26  C12 UNL     1     -14.896  73.750  29.780  1.00  0.00     0.034 A 
HETATM   27 CL1  UNL     1     -14.663  73.553  28.035  1.00  0.00    -0.084 Cl
HETATM   28  C13 UNL     1     -15.284  72.674  30.543  1.00  0.00     0.024 A 
HETATM   29  C14 UNL     1     -15.468  72.831  31.922  1.00  0.00     0.009 A 
ENDBRANCH  22  23
ENDBRANCH  21  22
ENDBRANCH  20  21
ENDBRANCH  18  20
ENDBRANCH  17  18
ENDBRANCH   1  17
BRANCH   4  30
HETATM   30  C17 UNL     1     -20.473  69.659  32.724  1.00  0.00     0.032 A 
HETATM   31  C18 UNL     1     -21.735  69.380  32.214  1.00  0.00     0.032 A 
HETATM   32  C19 UNL     1     -22.023  68.257  31.487  1.00  0.00     0.046 A 
HETATM   33  C20 UNL     1     -21.040  67.343  31.232  1.00  0.00     0.138 A 
HETATM   34  F1  UNL     1     -21.349  66.240  30.511  1.00  0.00    -0.204 F 
HETATM   35  C21 UNL     1     -19.777  67.570  31.712  1.00  0.00     0.074 A 
HETATM   36 CL2  UNL     1     -18.495  66.403  31.393  1.00  0.00    -0.081 Cl
HETATM   37  C22 UNL     1     -19.499  68.723  32.453  1.00  0.00     0.056 A 
ENDBRANCH   4  30
TORSDOF 10
ENDMDL
MODEL 3
REMARK VINA RESULT: -8.560791512      1.588      2.008
REMARK  10 active torsions:
REMARK  status: ('A' for Active; 'I' for Inactive)
REMARK    1  A    between atoms: O1_2  and  C2_3 
REMARK    2  A    between atoms: C2_3  and  C3_5 
REMARK    3  A    between atoms: C3_5  and  C4_6 
REMARK    4  A    between atoms: C4_6  and  O3_7 
REMARK    5  A    between atoms: O3_7  and  C5_8 
REMARK    6  A    between atoms: C5_8  and  C6_10 
REMARK    7  A    between atoms: C6_10  and  C7_11 
REMARK    8  A    between atoms: C7_11  and  C8_12 
REMARK    9  A    between atoms: C8_12  and  C9_13 
REMARK   10  A    between atoms: N1_22  and  C17_23 
ROOT
HETATM    1  C4  UNL     1     -19.254  72.975  35.221  1.00  0.00     0.090 C 
HETATM    2  C15 UNL     1     -18.657  72.719  33.837  1.00  0.00     0.060 C 
HETATM    3  C16 UNL     1     -19.562  71.983  32.906  1.00  0.00     0.126 C 
HETATM    4  N1  UNL     1     -19.974  70.744  33.480  1.00  0.00    -0.381 N 
HETATM    5  C23 UNL     1     -20.257  70.775  34.919  1.00  0.00     0.126 C 
HETATM    6  C24 UNL     1     -20.598  72.241  35.183  1.00  0.00     0.060 C 
ENDROOT
BRANCH   1   7
HETATM    7  C3  UNL     1     -19.461  74.454  35.320  1.00  0.00     0.080 C 
HETATM    8  C25 UNL     1     -18.353  75.075  34.456  1.00  0.00     0.023 C 
HETATM    9  C26 UNL     1     -18.847  76.156  33.562  1.00  0.00     0.001 C 
HETATM   10  C27 UNL     1     -19.764  77.113  34.274  1.00  0.00     0.000 C 
HETATM   11  C28 UNL     1     -20.873  76.407  34.980  1.00  0.00     0.001 C 
HETATM   12  C29 UNL     1     -20.813  74.894  34.802  1.00  0.00     0.023 C 
BRANCH   7  13
HETATM   13  C2  UNL     1     -19.326  75.074  36.647  1.00  0.00     0.270 C 
HETATM   14  O2  UNL     1     -20.155  74.813  37.586  1.00  0.00    -0.264 OA
BRANCH  13  15
HETATM   15  O1  UNL     1     -18.315  75.979  36.997  1.00  0.00    -0.326 OA
HETATM   16  C1  UNL     1     -17.477  75.785  38.121  1.00  0.00     0.213 C 
ENDBRANCH  13  15
ENDBRANCH   7  13
ENDBRANCH   1   7
BRANCH   1  17
HETATM   17  O3  UNL     1     -18.381  72.430  36.100  1.00  0.00    -0.309 OA
BRANCH  17  18
HETATM   18  C5  UNL     1     -17.144  71.996  36.184  1.00  0.00     0.259 C 
HETATM   19  O4  UNL     1     -16.944  70.777  36.208  1.00  0.00    -0.265 OA
BRANCH  18  20
HETATM   20  C6  UNL     1     -15.978  72.907  36.252  1.00  0.00     0.111 C 
BRANCH  20  21
HETATM   21  C7  UNL     1     -14.957  72.429  35.252  1.00  0.00     0.014 C 
BRANCH  21  22
HETATM   22  C8  UNL     1     -15.250  72.878  33.843  1.00  0.00     0.039 C 
BRANCH  22  23
HETATM   23  C9  UNL     1     -15.421  71.751  32.902  1.00  0.00    -0.058 A 
HETATM   24  C10 UNL     1     -15.756  71.968  31.593  1.00  0.00     0.009 A 
HETATM   25  C11 UNL     1     -15.917  70.914  30.712  1.00  0.00     0.024 A 
HETATM   26  C12 UNL     1     -15.744  69.616  31.131  1.00  0.00     0.034 A 
HETATM   27 CL1  UNL     1     -15.947  68.256  30.015  1.00  0.00    -0.084 Cl
HETATM   28  C13 UNL     1     -15.408  69.378  32.444  1.00  0.00     0.024 A 
HETATM   29  C14 UNL     1     -15.249  70.454  33.325  1.00  0.00     0.009 A 
ENDBRANCH  22  23
ENDBRANCH  21  22
ENDBRANCH  20  21
ENDBRANCH  18  20
ENDBRANCH  17  18
ENDBRANCH   1  17
BRANCH   4  30
HETATM   30  C17 UNL     1     -20.117  69.559  32.739  1.00  0.00     0.032 A 
HETATM   31  C18 UNL     1     -19.050  68.685  32.574  1.00  0.00     0.032 A 
HETATM   32  C19 UNL     1     -19.136  67.514  31.869  1.00  0.00     0.046 A 
HETATM   33  C20 UNL     1     -20.320  67.160  31.286  1.00  0.00     0.138 A 
HETATM   34  F1  UNL     1     -20.382  65.998  30.594  1.00  0.00    -0.204 F 
HETATM   35  C21 UNL     1     -21.404  67.987  31.419  1.00  0.00     0.074 A 
HETATM   36 CL2  UNL     1     -22.940  67.546  30.674  1.00  0.00    -0.081 Cl
HETATM   37  C22 UNL     1     -21.298  69.179  32.142  1.00  0.00     0.056 A 
ENDBRANCH   4  30
TORSDOF 10
ENDMDL
MODEL 4
REMARK VINA RESULT: -8.432032180      2.105      2.991
REMARK  10 active torsions:
REMARK  status: ('A' for Active; 'I' for Inactive)
REMARK    1  A    between atoms: O1_2  and  C2_3 
REMARK    2  A    between atoms: C2_3  and  C3_5 
REMARK    3  A    between atoms: C3_5  and  C4_6 
REMARK    4  A    between atoms: C4_6  and  O3_7 
REMARK    5  A    between atoms: O3_7  and  C5_8 
REMARK    6  A    between atoms: C5_8  and  C6_10 
REMARK    7  A    between atoms: C6_10  and  C7_11 
REMARK    8  A    between atoms: C7_11  and  C8_12 
REMARK    9  A    between atoms: C8_12  and  C9_13 
REMARK   10  A    between atoms: N1_22  and  C17_23 
ROOT
HETATM    1  C4  UNL     1     -20.204  74.461  34.090  1.00  0.00     0.090 C 
HETATM    2  C15 UNL     1     -19.053  73.953  33.220  1.00  0.00     0.060 C 
HETATM    3  C16 UNL     1     -19.422  72.822  32.317  1.00  0.00     0.126 C 
HETATM    4  N1  UNL     1     -19.964  71.737  33.066  1.00  0.00    -0.381 N 
HETATM    5  C23 UNL     1     -20.841  72.111  34.181  1.00  0.00     0.126 C 
HETATM    6  C24 UNL     1     -21.351  73.495  33.782  1.00  0.00     0.060 C 
ENDROOT
BRANCH   1   7
HETATM    7  C3  UNL     1     -20.523  75.837  33.597  1.00  0.00     0.080 C 
HETATM    8  C25 UNL     1     -21.548  75.634  32.471  1.00  0.00     0.023 C 
HETATM    9  C26 UNL     1     -22.701  76.569  32.557  1.00  0.00     0.001 C 
HETATM   10  C27 UNL     1     -22.273  77.985  32.832  1.00  0.00     0.000 C 
HETATM   11  C28 UNL     1     -21.375  78.078  34.021  1.00  0.00     0.001 C 
HETATM   12  C29 UNL     1     -21.119  76.723  34.671  1.00  0.00     0.023 C 
BRANCH   7  13
HETATM   13  C2  UNL     1     -19.429  76.620  33.003  1.00  0.00     0.270 C 
HETATM   14  O2  UNL     1     -18.508  77.128  33.734  1.00  0.00    -0.264 OA
BRANCH  13  15
HETATM   15  O1  UNL     1     -19.294  76.878  31.633  1.00  0.00    -0.326 OA
HETATM   16  C1  UNL     1     -18.078  76.674  30.937  1.00  0.00     0.213 C 
ENDBRANCH  13  15
ENDBRANCH   7  13
ENDBRANCH   1   7
BRANCH   1  17
HETATM   17  O3  UNL     1     -19.763  74.366  35.366  1.00  0.00    -0.309 OA
BRANCH  17  18
HETATM   18  C5  UNL     1     -18.656  74.333  36.071  1.00  0.00     0.259 C 
HETATM   19  O4  UNL     1     -18.202  75.395  36.511  1.00  0.00    -0.265 OA
BRANCH  18  20
HETATM   20  C6  UNL     1     -17.927  73.076  36.360  1.00  0.00     0.111 C 
BRANCH  20  21
HETATM   21  C7  UNL     1     -16.475  73.420  36.573  1.00  0.00     0.014 C 
BRANCH  21  22
HETATM   22  C8  UNL     1     -15.538  72.582  35.740  1.00  0.00     0.039 C 
BRANCH  22  23
HETATM   23  C9  UNL     1     -15.526  72.972  34.314  1.00  0.00    -0.058 A 
HETATM   24  C10 UNL     1     -15.595  72.032  33.323  1.00  0.00     0.009 A 
HETATM   25  C11 UNL     1     -15.584  72.396  31.989  1.00  0.00     0.024 A 
HETATM   26  C12 UNL     1     -15.504  73.719  31.623  1.00  0.00     0.034 A 
HETATM   27 CL1  UNL     1     -15.489  74.201  29.919  1.00  0.00    -0.084 Cl
HETATM   28  C13 UNL     1     -15.434  74.679  32.605  1.00  0.00     0.024 A 
HETATM   29  C14 UNL     1     -15.445  74.297  33.952  1.00  0.00     0.009 A 
ENDBRANCH  22  23
ENDBRANCH  21  22
ENDBRANCH  20  21
ENDBRANCH  18  20
ENDBRANCH  17  18
ENDBRANCH   1  17
BRANCH   4  30
HETATM   30  C17 UNL     1     -19.700  70.388  32.774  1.00  0.00     0.032 A 
HETATM   31  C18 UNL     1     -20.626  69.609  32.090  1.00  0.00     0.032 A 
HETATM   32  C19 UNL     1     -20.417  68.294  31.774  1.00  0.00     0.046 A 
HETATM   33  C20 UNL     1     -19.247  67.687  32.134  1.00  0.00     0.138 A 
HETATM   34  F1  UNL     1     -19.062  66.386  31.810  1.00  0.00    -0.204 F 
HETATM   35  C21 UNL     1     -18.299  68.410  32.810  1.00  0.00     0.074 A 
HETATM   36 CL2  UNL     1     -16.784  67.645  33.283  1.00  0.00    -0.081 Cl
HETATM   37  C22 UNL     1     -18.529  69.754  33.126  1.00  0.00     0.056 A 
ENDBRANCH   4  30
TORSDOF 10
ENDMDL
MODEL 5
REMARK VINA RESULT: -8.382831655      3.655      6.401
REMARK  10 active torsions:
REMARK  status: ('A' for Active; 'I' for Inactive)
REMARK    1  A    between atoms: O1_2  and  C2_3 
REMARK    2  A    between atoms: C2_3  and  C3_5 
REMARK    3  A    between atoms: C3_5  and  C4_6 
REMARK    4  A    between atoms: C4_6  and  O3_7 
REMARK    5  A    between atoms: O3_7  and  C5_8 
REMARK    6  A    between atoms: C5_8  and  C6_10 
REMARK    7  A    between atoms: C6_10  and  C7_11 
REMARK    8  A    between atoms: C7_11  and  C8_12 
REMARK    9  A    between atoms: C8_12  and  C9_13 
REMARK   10  A    between atoms: N1_22  and  C17_23 
ROOT
HETATM    1  C4  UNL     1     -17.088  75.181  34.072  1.00  0.00     0.090 C 
HETATM    2  C15 UNL     1     -18.074  74.641  33.036  1.00  0.00     0.060 C 
HETATM    3  C16 UNL     1     -17.492  73.628  32.106  1.00  0.00     0.126 C 
HETATM    4  N1  UNL     1     -16.349  74.158  31.439  1.00  0.00    -0.381 N 
HETATM    5  C23 UNL     1     -15.472  75.003  32.257  1.00  0.00     0.126 C 
HETATM    6  C24 UNL     1     -15.756  74.534  33.683  1.00  0.00     0.060 C 
ENDROOT
BRANCH   1   7
HETATM    7  C3  UNL     1     -17.556  74.673  35.400  1.00  0.00     0.080 C 
HETATM    8  C25 UNL     1     -16.989  75.659  36.432  1.00  0.00     0.023 C 
HETATM    9  C26 UNL     1     -17.987  76.073  37.453  1.00  0.00     0.001 C 
HETATM   10  C27 UNL     1     -18.772  74.908  37.993  1.00  0.00     0.000 C 
HETATM   11  C28 UNL     1     -19.379  74.087  36.904  1.00  0.00     0.001 C 
HETATM   12  C29 UNL     1     -19.065  74.632  35.515  1.00  0.00     0.023 C 
BRANCH   7  13
HETATM   13  C2  UNL     1     -17.093  73.342  35.823  1.00  0.00     0.270 C 
HETATM   14  O2  UNL     1     -17.653  72.278  35.386  1.00  0.00    -0.264 OA
BRANCH  13  15
HETATM   15  O1  UNL     1     -16.034  73.121  36.712  1.00  0.00    -0.326 OA
HETATM   16  C1  UNL     1     -15.235  71.952  36.668  1.00  0.00     0.213 C 
ENDBRANCH  13  15
ENDBRANCH   7  13
ENDBRANCH   1   7
BRANCH   1  17
HETATM   17  O3  UNL     1     -17.089  76.524  33.908  1.00  0.00    -0.309 OA
BRANCH  17  18
HETATM   18  C5  UNL     1     -17.817  77.498  33.413  1.00  0.00     0.259 C 
HETATM   19  O4  UNL     1     -17.581  77.890  32.264  1.00  0.00    -0.265 OA
BRANCH  18  20
HETATM   20  C6  UNL     1     -18.910  78.148  34.172  1.00  0.00     0.111 C 
BRANCH  20  21
HETATM   21  C7  UNL     1     -20.202  77.888  33.442  1.00  0.00     0.014 C 
BRANCH  21  22
HETATM   22  C8  UNL     1     -21.141  76.983  34.198  1.00  0.00     0.039 C 
BRANCH  22  23
HETATM   23  C9  UNL     1     -21.957  76.127  33.312  1.00  0.00    -0.058 A 
HETATM   24  C10 UNL     1     -21.910  74.763  33.407  1.00  0.00     0.009 A 
HETATM   25  C11 UNL     1     -22.673  73.961  32.578  1.00  0.00     0.024 A 
HETATM   26  C12 UNL     1     -23.502  74.517  31.632  1.00  0.00     0.034 A 
HETATM   27 CL1  UNL     1     -24.486  73.504  30.564  1.00  0.00    -0.084 Cl
HETATM   28  C13 UNL     1     -23.563  75.887  31.521  1.00  0.00     0.024 A 
HETATM   29  C14 UNL     1     -22.785  76.687  32.366  1.00  0.00     0.009 A 
ENDBRANCH  22  23
ENDBRANCH  21  22
ENDBRANCH  20  21
ENDBRANCH  18  20
ENDBRANCH  17  18
ENDBRANCH   1  17
BRANCH   4  30
HETATM   30  C17 UNL     1     -16.051  73.897  30.091  1.00  0.00     0.032 A 
HETATM   31  C18 UNL     1     -14.743  73.952  29.623  1.00  0.00     0.032 A 
HETATM   32  C19 UNL     1     -14.397  73.700  28.323  1.00  0.00     0.046 A 
HETATM   33  C20 UNL     1     -15.364  73.375  27.414  1.00  0.00     0.138 A 
HETATM   34  F1  UNL     1     -14.998  73.130  26.135  1.00  0.00    -0.204 F 
HETATM   35  C21 UNL     1     -16.670  73.307  27.824  1.00  0.00     0.074 A 
HETATM   36 CL2  UNL     1     -17.932  72.890  26.666  1.00  0.00    -0.081 Cl
HETATM   37  C22 UNL     1     -17.007  73.568  29.156  1.00  0.00     0.056 A 
ENDBRANCH   4  30
TORSDOF 10
ENDMDL
