MODEL 1
REMARK VINA RESULT: -9.153990418      0.000      0.000
REMARK  8 active torsions:
REMARK  status: ('A' for Active; 'I' for Inactive)
REMARK    1  A    between atoms: C2_2  and  C3_3 
REMARK    2  A    between atoms: C3_3  and  C4_4 
REMARK    3  A    between atoms: C4_4  and  C5_5 
REMARK    4  A    between atoms: C5_5  and  C6_6 
REMARK    5  A    between atoms: C6_6  and  C7_7 
REMARK       I    between atoms: N1_9  and  C9_10 
REMARK    6  A    between atoms: C16_20  and  C17_21 
REMARK    7  A    between atoms: C17_21  and  O4_22 
REMARK    8  A    between atoms: O4_22  and  C18_23 
ROOT
HETATM    1  C7  UNL     1     -19.422  71.858  34.628  1.00  0.00     0.040 C 
HETATM    2  C8  UNL     1     -18.370  70.846  35.172  1.00  0.00     0.133 C 
HETATM    3  N1  UNL     1     -17.687  70.403  33.969  1.00  0.00    -0.352 N 
HETATM    4  C9  UNL     1     -17.018  69.174  33.884  1.00  0.00     0.215 C 
HETATM    5  C10 UNL     1     -16.313  68.699  32.667  1.00  0.00     0.117 C 
HETATM    6  O1  UNL     1     -17.017  68.430  34.901  1.00  0.00    -0.274 OA
HETATM    7  C11 UNL     1     -17.710  71.286  32.820  1.00  0.00     0.129 C 
HETATM    8  C12 UNL     1     -17.661  72.737  33.252  1.00  0.00     0.059 C 
HETATM    9  C13 UNL     1     -18.614  73.081  34.382  1.00  0.00     0.086 C 
HETATM   10  O2  UNL     1     -17.751  73.315  35.462  1.00  0.00    -0.326 OA
HETATM   11  C14 UNL     1     -16.885  74.328  35.310  1.00  0.00     0.419 C 
HETATM   12  O3  UNL     1     -17.019  75.175  34.231  1.00  0.00    -0.300 OA
HETATM   13  C15 UNL     1     -18.185  75.212  33.482  1.00  0.00     0.061 C 
HETATM   14  C16 UNL     1     -18.297  75.929  32.380  1.00  0.00     0.033 C 
HETATM   15  C24 UNL     1     -19.261  74.363  34.076  1.00  0.00     0.037 C 
HETATM   16  C25 UNL     1     -20.286  74.249  32.933  1.00  0.00     0.025 C 
HETATM   17  C26 UNL     1     -19.816  75.214  35.148  1.00  0.00     0.022 C 
HETATM   18  C27 UNL     1     -19.268  75.268  36.494  1.00  0.00     0.038 C 
HETATM   19  C28 UNL     1     -17.921  75.871  36.733  1.00  0.00     0.059 C 
HETATM   20  C29 UNL     1     -17.856  77.273  36.246  1.00  0.00     0.045 C 
HETATM   21  C30 UNL     1     -17.867  75.963  38.284  1.00  0.00     0.045 C 
HETATM   22  O5  UNL     1     -16.842  75.081  36.452  1.00  0.00    -0.328 OA
ENDROOT
BRANCH   1  23
HETATM   23  C6  UNL     1     -20.573  71.924  35.574  1.00  0.00     0.009 C 
BRANCH  23  24
HETATM   24  C5  UNL     1     -21.761  71.091  35.143  1.00  0.00     0.001 C 
BRANCH  24  25
HETATM   25  C4  UNL     1     -22.046  71.112  33.670  1.00  0.00     0.000 C 
BRANCH  25  26
HETATM   26  C3  UNL     1     -21.922  69.705  33.132  1.00  0.00    -0.000 C 
BRANCH  26  27
HETATM   27  C2  UNL     1     -20.916  69.645  31.999  1.00  0.00    -0.005 C 
HETATM   28  C1  UNL     1     -20.109  68.376  32.125  1.00  0.00     0.005 C 
ENDBRANCH  26  27
ENDBRANCH  25  26
ENDBRANCH  24  25
ENDBRANCH  23  24
ENDBRANCH   1  23
BRANCH  14  29
HETATM   29  C17 UNL     1     -17.190  76.750  31.848  1.00  0.00     0.206 C 
BRANCH  29  30
HETATM   30  O4  UNL     1     -16.838  76.527  30.540  1.00  0.00    -0.344 OA
BRANCH  30  31
HETATM   31  C18 UNL     1     -15.996  75.654  29.944  1.00  0.00     0.111 A 
HETATM   32  C19 UNL     1     -14.727  75.367  30.372  1.00  0.00     0.043 A 
HETATM   33  C20 UNL     1     -13.907  74.449  29.707  1.00  0.00     0.048 A 
HETATM   34  C21 UNL     1     -14.393  73.822  28.596  1.00  0.00     0.158 A 
HETATM   35  F1  UNL     1     -13.621  72.924  27.925  1.00  0.00    -0.203 F 
HETATM   36  C22 UNL     1     -15.663  74.073  28.121  1.00  0.00     0.196 A 
HETATM   37  F2  UNL     1     -16.141  73.436  27.002  1.00  0.00    -0.199 F 
HETATM   38  C23 UNL     1     -16.435  74.982  28.805  1.00  0.00     0.191 A 
HETATM   39  F3  UNL     1     -17.672  75.226  28.340  1.00  0.00    -0.200 F 
ENDBRANCH  30  31
ENDBRANCH  29  30
ENDBRANCH  14  29
TORSDOF 8
ENDMDL
MODEL 2
REMARK VINA RESULT: -9.078561343      3.777      5.018
REMARK  8 active torsions:
REMARK  status: ('A' for Active; 'I' for Inactive)
REMARK    1  A    between atoms: C2_2  and  C3_3 
REMARK    2  A    between atoms: C3_3  and  C4_4 
REMARK    3  A    between atoms: C4_4  and  C5_5 
REMARK    4  A    between atoms: C5_5  and  C6_6 
REMARK    5  A    between atoms: C6_6  and  C7_7 
REMARK       I    between atoms: N1_9  and  C9_10 
REMARK    6  A    between atoms: C16_20  and  C17_21 
REMARK    7  A    between atoms: C17_21  and  O4_22 
REMARK    8  A    between atoms: O4_22  and  C18_23 
ROOT
HETATM    1  C7  UNL     1     -20.686  73.788  32.889  1.00  0.00     0.040 C 
HETATM    2  C8  UNL     1     -19.713  72.742  32.264  1.00  0.00     0.133 C 
HETATM    3  N1  UNL     1     -19.542  73.224  30.905  1.00  0.00    -0.352 N 
HETATM    4  C9  UNL     1     -19.166  72.388  29.843  1.00  0.00     0.215 C 
HETATM    5  C10 UNL     1     -18.986  72.855  28.446  1.00  0.00     0.117 C 
HETATM    6  O1  UNL     1     -18.973  71.168  30.093  1.00  0.00    -0.274 OA
HETATM    7  C11 UNL     1     -19.774  74.633  30.657  1.00  0.00     0.129 C 
HETATM    8  C12 UNL     1     -19.331  75.470  31.839  1.00  0.00     0.059 C 
HETATM    9  C13 UNL     1     -19.794  74.940  33.183  1.00  0.00     0.086 C 
HETATM   10  O2  UNL     1     -18.604  74.491  33.772  1.00  0.00    -0.326 OA
HETATM   11  C14 UNL     1     -17.666  75.427  33.982  1.00  0.00     0.419 C 
HETATM   12  O3  UNL     1     -17.985  76.756  33.801  1.00  0.00    -0.300 OA
HETATM   13  C15 UNL     1     -19.303  77.177  33.720  1.00  0.00     0.061 C 
HETATM   14  C16 UNL     1     -19.633  78.423  33.434  1.00  0.00     0.033 C 
HETATM   15  C24 UNL     1     -20.265  76.068  33.995  1.00  0.00     0.037 C 
HETATM   16  C25 UNL     1     -21.606  76.637  33.496  1.00  0.00     0.025 C 
HETATM   17  C26 UNL     1     -20.286  75.993  35.470  1.00  0.00     0.022 C 
HETATM   18  C27 UNL     1     -19.335  75.212  36.247  1.00  0.00     0.038 C 
HETATM   19  C28 UNL     1     -17.898  75.621  36.303  1.00  0.00     0.059 C 
HETATM   20  C29 UNL     1     -17.743  77.009  36.808  1.00  0.00     0.045 C 
HETATM   21  C30 UNL     1     -17.334  74.702  37.424  1.00  0.00     0.045 C 
HETATM   22  O5  UNL     1     -17.126  75.276  35.230  1.00  0.00    -0.328 OA
ENDROOT
BRANCH   1  23
HETATM   23  C6  UNL     1     -21.442  73.148  34.003  1.00  0.00     0.009 C 
BRANCH  23  24
HETATM   24  C5  UNL     1     -22.772  72.565  33.579  1.00  0.00     0.001 C 
BRANCH  24  25
HETATM   25  C4  UNL     1     -23.162  71.301  34.286  1.00  0.00     0.000 C 
BRANCH  25  26
HETATM   26  C3  UNL     1     -21.995  70.342  34.244  1.00  0.00    -0.000 C 
BRANCH  26  27
HETATM   27  C2  UNL     1     -21.831  69.749  32.857  1.00  0.00    -0.005 C 
HETATM   28  C1  UNL     1     -20.423  69.228  32.709  1.00  0.00     0.005 C 
ENDBRANCH  26  27
ENDBRANCH  25  26
ENDBRANCH  24  25
ENDBRANCH  23  24
ENDBRANCH   1  23
BRANCH  14  29
HETATM   29  C17 UNL     1     -18.627  79.473  33.173  1.00  0.00     0.206 C 
BRANCH  29  30
HETATM   30  O4  UNL     1     -18.453  79.840  31.862  1.00  0.00    -0.344 OA
BRANCH  30  31
HETATM   31  C18 UNL     1     -18.171  81.016  31.258  1.00  0.00     0.111 A 
HETATM   32  C19 UNL     1     -17.119  81.832  31.580  1.00  0.00     0.043 A 
HETATM   33  C20 UNL     1     -16.881  83.038  30.912  1.00  0.00     0.048 A 
HETATM   34  C21 UNL     1     -17.730  83.408  29.908  1.00  0.00     0.158 A 
HETATM   35  F1  UNL     1     -17.529  84.576  29.239  1.00  0.00    -0.203 F 
HETATM   36  C22 UNL     1     -18.805  82.625  29.543  1.00  0.00     0.196 A 
HETATM   37  F2  UNL     1     -19.652  83.008  28.532  1.00  0.00    -0.199 F 
HETATM   38  C23 UNL     1     -19.001  81.448  30.226  1.00  0.00     0.191 A 
HETATM   39  F3  UNL     1     -20.049  80.686  29.869  1.00  0.00    -0.200 F 
ENDBRANCH  30  31
ENDBRANCH  29  30
ENDBRANCH  14  29
TORSDOF 8
ENDMDL
MODEL 3
REMARK VINA RESULT: -8.913395236      3.390      6.847
REMARK  8 active torsions:
REMARK  status: ('A' for Active; 'I' for Inactive)
REMARK    1  A    between atoms: C2_2  and  C3_3 
REMARK    2  A    between atoms: C3_3  and  C4_4 
REMARK    3  A    between atoms: C4_4  and  C5_5 
REMARK    4  A    between atoms: C5_5  and  C6_6 
REMARK    5  A    between atoms: C6_6  and  C7_7 
REMARK       I    between atoms: N1_9  and  C9_10 
REMARK    6  A    between atoms: C16_20  and  C17_21 
REMARK    7  A    between atoms: C17_21  and  O4_22 
REMARK    8  A    between atoms: O4_22  and  C18_23 
ROOT
HETATM    1  C7  UNL     1     -18.249  76.090  33.255  1.00  0.00     0.040 C 
HETATM    2  C8  UNL     1     -17.333  76.250  32.004  1.00  0.00     0.133 C 
HETATM    3  N1  UNL     1     -16.737  74.934  31.862  1.00  0.00    -0.352 N 
HETATM    4  C9  UNL     1     -15.516  74.718  31.207  1.00  0.00     0.215 C 
HETATM    5  C10 UNL     1     -14.886  73.384  31.050  1.00  0.00     0.117 C 
HETATM    6  O1  UNL     1     -14.919  75.719  30.727  1.00  0.00    -0.274 OA
HETATM    7  C11 UNL     1     -17.452  73.808  32.429  1.00  0.00     0.129 C 
HETATM    8  C12 UNL     1     -18.950  74.000  32.304  1.00  0.00     0.059 C 
HETATM    9  C13 UNL     1     -19.435  75.378  32.713  1.00  0.00     0.086 C 
HETATM   10  O2  UNL     1     -19.826  75.949  31.494  1.00  0.00    -0.326 OA
HETATM   11  C14 UNL     1     -20.819  75.322  30.846  1.00  0.00     0.419 C 
HETATM   12  O3  UNL     1     -21.507  74.310  31.480  1.00  0.00    -0.300 OA
HETATM   13  C15 UNL     1     -21.426  74.133  32.853  1.00  0.00     0.061 C 
HETATM   14  C16 UNL     1     -21.983  73.106  33.469  1.00  0.00     0.033 C 
HETATM   15  C24 UNL     1     -20.654  75.226  33.516  1.00  0.00     0.037 C 
HETATM   16  C25 UNL     1     -20.371  74.653  34.917  1.00  0.00     0.025 C 
HETATM   17  C26 UNL     1     -21.639  76.321  33.626  1.00  0.00     0.022 C 
HETATM   18  C27 UNL     1     -21.885  77.288  32.567  1.00  0.00     0.038 C 
HETATM   19  C28 UNL     1     -22.531  76.854  31.290  1.00  0.00     0.059 C 
HETATM   20  C29 UNL     1     -23.853  76.222  31.534  1.00  0.00     0.045 C 
HETATM   21  C30 UNL     1     -22.837  78.211  30.594  1.00  0.00     0.045 C 
HETATM   22  O5  UNL     1     -21.723  76.236  30.378  1.00  0.00    -0.328 OA
ENDROOT
BRANCH   1  23
HETATM   23  C6  UNL     1     -18.430  77.421  33.902  1.00  0.00     0.009 C 
BRANCH  23  24
HETATM   24  C5  UNL     1     -18.079  77.434  35.374  1.00  0.00     0.001 C 
BRANCH  24  25
HETATM   25  C4  UNL     1     -17.146  76.343  35.809  1.00  0.00     0.000 C 
BRANCH  25  26
HETATM   26  C3  UNL     1     -17.229  76.206  37.312  1.00  0.00    -0.000 C 
BRANCH  26  27
HETATM   27  C2  UNL     1     -17.453  74.760  37.713  1.00  0.00    -0.005 C 
HETATM   28  C1  UNL     1     -16.974  73.862  36.599  1.00  0.00     0.005 C 
ENDBRANCH  26  27
ENDBRANCH  25  26
ENDBRANCH  24  25
ENDBRANCH  23  24
ENDBRANCH   1  23
BRANCH  14  29
HETATM   29  C17 UNL     1     -22.735  72.058  32.750  1.00  0.00     0.206 C 
BRANCH  29  30
HETATM   30  O4  UNL     1     -22.504  70.763  33.140  1.00  0.00    -0.344 OA
BRANCH  30  31
HETATM   31  C18 UNL     1     -21.624  69.818  32.741  1.00  0.00     0.111 A 
HETATM   32  C19 UNL     1     -21.892  68.828  31.832  1.00  0.00     0.043 A 
HETATM   33  C20 UNL     1     -20.933  67.880  31.461  1.00  0.00     0.048 A 
HETATM   34  C21 UNL     1     -19.692  67.948  32.027  1.00  0.00     0.158 A 
HETATM   35  F1  UNL     1     -18.736  67.040  31.688  1.00  0.00    -0.203 F 
HETATM   36  C22 UNL     1     -19.369  68.923  32.947  1.00  0.00     0.196 A 
HETATM   37  F2  UNL     1     -18.117  68.981  33.509  1.00  0.00    -0.199 F 
HETATM   38  C23 UNL     1     -20.341  69.834  33.283  1.00  0.00     0.191 A 
HETATM   39  F3  UNL     1     -20.024  70.784  34.180  1.00  0.00    -0.200 F 
ENDBRANCH  30  31
ENDBRANCH  29  30
ENDBRANCH  14  29
TORSDOF 8
ENDMDL
MODEL 4
REMARK VINA RESULT: -8.895116567      3.256      5.460
REMARK  8 active torsions:
REMARK  status: ('A' for Active; 'I' for Inactive)
REMARK    1  A    between atoms: C2_2  and  C3_3 
REMARK    2  A    between atoms: C3_3  and  C4_4 
REMARK    3  A    between atoms: C4_4  and  C5_5 
REMARK    4  A    between atoms: C5_5  and  C6_6 
REMARK    5  A    between atoms: C6_6  and  C7_7 
REMARK       I    between atoms: N1_9  and  C9_10 
REMARK    6  A    between atoms: C16_20  and  C17_21 
REMARK    7  A    between atoms: C17_21  and  O4_22 
REMARK    8  A    between atoms: O4_22  and  C18_23 
ROOT
HETATM    1  C7  UNL     1     -19.410  71.583  32.609  1.00  0.00     0.040 C 
HETATM    2  C8  UNL     1     -18.901  72.004  31.197  1.00  0.00     0.133 C 
HETATM    3  N1  UNL     1     -19.581  73.267  30.966  1.00  0.00    -0.352 N 
HETATM    4  C9  UNL     1     -19.825  73.775  29.682  1.00  0.00     0.215 C 
HETATM    5  C10 UNL     1     -20.518  75.062  29.420  1.00  0.00     0.117 C 
HETATM    6  O1  UNL     1     -19.434  73.098  28.695  1.00  0.00    -0.274 OA
HETATM    7  C11 UNL     1     -20.017  74.017  32.127  1.00  0.00     0.129 C 
HETATM    8  C12 UNL     1     -19.038  73.861  33.271  1.00  0.00     0.059 C 
HETATM    9  C13 UNL     1     -18.601  72.430  33.523  1.00  0.00     0.086 C 
HETATM   10  O2  UNL     1     -17.259  72.434  33.116  1.00  0.00    -0.326 OA
HETATM   11  C14 UNL     1     -16.444  73.255  33.795  1.00  0.00     0.419 C 
HETATM   12  O3  UNL     1     -16.907  73.874  34.937  1.00  0.00    -0.300 OA
HETATM   13  C15 UNL     1     -18.057  73.440  35.577  1.00  0.00     0.061 C 
HETATM   14  C16 UNL     1     -18.583  74.083  36.603  1.00  0.00     0.033 C 
HETATM   15  C24 UNL     1     -18.600  72.187  34.970  1.00  0.00     0.037 C 
HETATM   16  C25 UNL     1     -20.021  72.102  35.557  1.00  0.00     0.025 C 
HETATM   17  C26 UNL     1     -17.761  71.128  35.568  1.00  0.00     0.022 C 
HETATM   18  C27 UNL     1     -16.481  70.711  35.015  1.00  0.00     0.038 C 
HETATM   19  C28 UNL     1     -15.310  71.639  35.052  1.00  0.00     0.059 C 
HETATM   20  C29 UNL     1     -14.996  72.069  36.439  1.00  0.00     0.045 C 
HETATM   21  C30 UNL     1     -14.137  70.711  34.625  1.00  0.00     0.045 C 
HETATM   22  O5  UNL     1     -15.274  72.612  34.092  1.00  0.00    -0.328 OA
ENDROOT
BRANCH   1  23
HETATM   23  C6  UNL     1     -19.336  70.099  32.732  1.00  0.00     0.009 C 
BRANCH  23  24
HETATM   24  C5  UNL     1     -20.683  69.438  32.928  1.00  0.00     0.001 C 
BRANCH  24  25
HETATM   25  C4  UNL     1     -21.859  70.366  32.850  1.00  0.00     0.000 C 
BRANCH  25  26
HETATM   26  C3  UNL     1     -22.557  70.377  34.190  1.00  0.00    -0.000 C 
BRANCH  26  27
HETATM   27  C2  UNL     1     -23.471  71.582  34.315  1.00  0.00    -0.005 C 
HETATM   28  C1  UNL     1     -23.137  72.567  33.223  1.00  0.00     0.005 C 
ENDBRANCH  26  27
ENDBRANCH  25  26
ENDBRANCH  24  25
ENDBRANCH  23  24
ENDBRANCH   1  23
BRANCH  14  29
HETATM   29  C17 UNL     1     -17.993  75.320  37.154  1.00  0.00     0.206 C 
BRANCH  29  30
HETATM   30  O4  UNL     1     -18.470  76.503  36.649  1.00  0.00    -0.344 OA
BRANCH  30  31
HETATM   31  C18 UNL     1     -18.822  76.907  35.407  1.00  0.00     0.111 A 
HETATM   32  C19 UNL     1     -17.963  77.435  34.479  1.00  0.00     0.043 A 
HETATM   33  C20 UNL     1     -18.393  77.831  33.209  1.00  0.00     0.048 A 
HETATM   34  C21 UNL     1     -19.713  77.684  32.889  1.00  0.00     0.158 A 
HETATM   35  F1  UNL     1     -20.165  78.061  31.662  1.00  0.00    -0.203 F 
HETATM   36  C22 UNL     1     -20.621  77.159  33.785  1.00  0.00     0.196 A 
HETATM   37  F2  UNL     1     -21.945  77.017  33.452  1.00  0.00    -0.199 F 
HETATM   38  C23 UNL     1     -20.155  76.782  35.022  1.00  0.00     0.191 A 
HETATM   39  F3  UNL     1     -21.041  76.271  35.894  1.00  0.00    -0.200 F 
ENDBRANCH  30  31
ENDBRANCH  29  30
ENDBRANCH  14  29
TORSDOF 8
ENDMDL
MODEL 5
REMARK VINA RESULT: -8.885493784      3.084      5.437
REMARK  8 active torsions:
REMARK  status: ('A' for Active; 'I' for Inactive)
REMARK    1  A    between atoms: C2_2  and  C3_3 
REMARK    2  A    between atoms: C3_3  and  C4_4 
REMARK    3  A    between atoms: C4_4  and  C5_5 
REMARK    4  A    between atoms: C5_5  and  C6_6 
REMARK    5  A    between atoms: C6_6  and  C7_7 
REMARK       I    between atoms: N1_9  and  C9_10 
REMARK    6  A    between atoms: C16_20  and  C17_21 
REMARK    7  A    between atoms: C17_21  and  O4_22 
REMARK    8  A    between atoms: O4_22  and  C18_23 
ROOT
HETATM    1  C7  UNL     1     -18.675  71.302  34.792  1.00  0.00     0.040 C 
HETATM    2  C8  UNL     1     -19.733  70.806  33.760  1.00  0.00     0.133 C 
HETATM    3  N1  UNL     1     -20.954  71.455  34.204  1.00  0.00    -0.352 N 
HETATM    4  C9  UNL     1     -22.231  70.956  33.908  1.00  0.00     0.215 C 
HETATM    5  C10 UNL     1     -23.493  71.600  34.350  1.00  0.00     0.117 C 
HETATM    6  O1  UNL     1     -22.308  69.898  33.229  1.00  0.00    -0.274 OA
HETATM    7  C11 UNL     1     -20.824  72.670  34.984  1.00  0.00     0.129 C 
HETATM    8  C12 UNL     1     -19.635  73.486  34.520  1.00  0.00     0.059 C 
HETATM    9  C13 UNL     1     -18.367  72.677  34.321  1.00  0.00     0.086 C 
HETATM   10  O2  UNL     1     -18.202  72.686  32.928  1.00  0.00    -0.326 OA
HETATM   11  C14 UNL     1     -18.033  73.892  32.367  1.00  0.00     0.419 C 
HETATM   12  O3  UNL     1     -17.836  74.992  33.174  1.00  0.00    -0.300 OA
HETATM   13  C15 UNL     1     -17.494  74.854  34.511  1.00  0.00     0.061 C 
HETATM   14  C16 UNL     1     -17.412  75.885  35.331  1.00  0.00     0.033 C 
HETATM   15  C24 UNL     1     -17.238  73.430  34.882  1.00  0.00     0.037 C 
HETATM   16  C25 UNL     1     -17.255  73.461  36.421  1.00  0.00     0.025 C 
HETATM   17  C26 UNL     1     -15.857  73.199  34.413  1.00  0.00     0.022 C 
HETATM   18  C27 UNL     1     -15.528  72.790  33.056  1.00  0.00     0.038 C 
HETATM   19  C28 UNL     1     -15.742  73.733  31.915  1.00  0.00     0.059 C 
HETATM   20  C29 UNL     1     -15.001  75.005  32.112  1.00  0.00     0.045 C 
HETATM   21  C30 UNL     1     -15.022  73.006  30.743  1.00  0.00     0.045 C 
HETATM   22  O5  UNL     1     -17.021  73.841  31.447  1.00  0.00    -0.328 OA
ENDROOT
BRANCH   1  23
HETATM   23  C6  UNL     1     -17.575  70.299  34.884  1.00  0.00     0.009 C 
BRANCH  23  24
HETATM   24  C5  UNL     1     -17.360  69.514  33.609  1.00  0.00     0.001 C 
BRANCH  24  25
HETATM   25  C4  UNL     1     -16.959  68.082  33.809  1.00  0.00     0.000 C 
BRANCH  25  26
HETATM   26  C3  UNL     1     -17.348  67.294  32.580  1.00  0.00    -0.000 C 
BRANCH  26  27
HETATM   27  C2  UNL     1     -18.758  67.638  32.139  1.00  0.00    -0.005 C 
HETATM   28  C1  UNL     1     -19.225  66.611  31.138  1.00  0.00     0.005 C 
ENDBRANCH  26  27
ENDBRANCH  25  26
ENDBRANCH  24  25
ENDBRANCH  23  24
ENDBRANCH   1  23
BRANCH  14  29
HETATM   29  C17 UNL     1     -17.679  77.272  34.897  1.00  0.00     0.206 C 
BRANCH  29  30
HETATM   30  O4  UNL     1     -18.996  77.611  34.711  1.00  0.00    -0.344 OA
BRANCH  30  31
HETATM   31  C18 UNL     1     -19.820  77.573  33.640  1.00  0.00     0.111 A 
HETATM   32  C19 UNL     1     -19.573  78.176  32.435  1.00  0.00     0.043 A 
HETATM   33  C20 UNL     1     -20.470  78.096  31.365  1.00  0.00     0.048 A 
HETATM   34  C21 UNL     1     -21.629  77.392  31.534  1.00  0.00     0.158 A 
HETATM   35  F1  UNL     1     -22.523  77.295  30.513  1.00  0.00    -0.203 F 
HETATM   36  C22 UNL     1     -21.928  76.765  32.725  1.00  0.00     0.196 A 
HETATM   37  F2  UNL     1     -23.096  76.060  32.882  1.00  0.00    -0.199 F 
HETATM   38  C23 UNL     1     -21.018  76.870  33.750  1.00  0.00     0.191 A 
HETATM   39  F3  UNL     1     -21.311  76.259  34.910  1.00  0.00    -0.200 F 
ENDBRANCH  30  31
ENDBRANCH  29  30
ENDBRANCH  14  29
TORSDOF 8
ENDMDL
