MODEL 1
REMARK VINA RESULT: -8.487781732      0.000      0.000
REMARK  11 active torsions:
REMARK  status: ('A' for Active; 'I' for Inactive)
REMARK    1  A    between atoms: C2_2  and  O1_4 
REMARK    2  A    between atoms: O1_4  and  C4_5 
REMARK    3  A    between atoms: C4_5  and  C5_7 
REMARK    4  A    between atoms: C5_7  and  C6_8 
REMARK    5  A    between atoms: C5_7  and  N1_18 
REMARK    6  A    between atoms: C6_8  and  C7_9 
REMARK    7  A    between atoms: N1_18  and  C13_19 
REMARK    8  A    between atoms: N1_18  and  C20_31 
REMARK    9  A    between atoms: C13_19  and  O3_20 
REMARK   10  A    between atoms: C13_19  and  C14_22 
REMARK   11  A    between atoms: C17_25  and  N2_26 
ROOT
HETATM    1  N1  UNL     1     -17.756  73.919  35.169  1.00  0.00    -0.320 N 
ENDROOT
BRANCH   1   2
HETATM    2  C5  UNL     1     -19.047  73.140  35.000  1.00  0.00     0.195 C 
BRANCH   2   3
HETATM    3  C4  UNL     1     -20.196  73.762  35.615  1.00  0.00     0.283 C 
HETATM    4  O2  UNL     1     -20.340  73.729  36.896  1.00  0.00    -0.263 OA
BRANCH   3   5
HETATM    5  O1  UNL     1     -21.210  74.415  34.966  1.00  0.00    -0.315 OA
BRANCH   5   6
HETATM    6  C2  UNL     1     -21.310  74.498  33.558  1.00  0.00     0.123 C 
HETATM    7  C1  UNL     1     -22.235  73.500  32.942  1.00  0.00     0.040 C 
HETATM    8  C3  UNL     1     -21.615  75.900  33.143  1.00  0.00     0.040 C 
ENDBRANCH   5   6
ENDBRANCH   3   5
ENDBRANCH   2   3
BRANCH   2   9
HETATM    9  C6  UNL     1     -18.786  71.762  35.523  1.00  0.00     0.074 C 
BRANCH   9  10
HETATM   10  C7  UNL     1     -18.948  70.680  34.533  1.00  0.00    -0.052 A 
HETATM   11  C8  UNL     1     -20.150  70.542  33.873  1.00  0.00     0.032 A 
HETATM   12  C9  UNL     1     -20.287  69.525  32.950  1.00  0.00     0.058 A 
HETATM   13 CL1  UNL     1     -21.775  69.293  32.079  1.00  0.00    -0.082 Cl
HETATM   14  C10 UNL     1     -19.237  68.645  32.679  1.00  0.00     0.077 A 
HETATM   15 CL2  UNL     1     -19.398  67.355  31.515  1.00  0.00    -0.081 Cl
HETATM   16  C11 UNL     1     -18.050  68.794  33.344  1.00  0.00     0.058 A 
HETATM   17 CL3  UNL     1     -16.690  67.723  33.053  1.00  0.00    -0.082 Cl
HETATM   18  C12 UNL     1     -17.899  69.798  34.262  1.00  0.00     0.032 A 
ENDBRANCH   9  10
ENDBRANCH   2   9
ENDBRANCH   1   2
BRANCH   1  19
HETATM   19  C13 UNL     1     -17.923  75.275  35.110  1.00  0.00     0.153 C 
BRANCH  19  20
HETATM   20  O3  UNL     1     -17.993  75.801  36.350  1.00  0.00    -0.345 OA
ATOM     21  H3  UNL     1     -17.187  76.253  36.569  1.00  0.00     0.219 HD
ENDBRANCH  19  20
BRANCH  19  22
HETATM   22  C14 UNL     1     -18.046  76.332  34.143  1.00  0.00     0.015 A 
HETATM   23  C15 UNL     1     -17.757  76.287  32.806  1.00  0.00     0.018 A 
HETATM   24  C16 UNL     1     -17.866  77.385  31.955  1.00  0.00     0.037 A 
HETATM   25  C17 UNL     1     -18.281  78.592  32.439  1.00  0.00     0.102 A 
HETATM   26  C18 UNL     1     -18.586  78.707  33.759  1.00  0.00     0.037 A 
HETATM   27  C19 UNL     1     -18.470  77.616  34.567  1.00  0.00     0.018 A 
BRANCH  25  28
HETATM   28  N2  UNL     1     -18.412  79.743  31.628  1.00  0.00    -0.116 N 
HETATM   29  O4  UNL     1     -19.385  79.842  30.876  1.00  0.00    -0.532 OA
HETATM   30  O5  UNL     1     -17.480  80.726  31.673  1.00  0.00    -0.532 OA
ENDBRANCH  25  28
ENDBRANCH  19  22
ENDBRANCH   1  19
BRANCH   1  31
HETATM   31  C20 UNL     1     -16.631  73.100  35.301  1.00  0.00    -0.008 C 
HETATM   32  C21 UNL     1     -15.855  73.046  36.573  1.00  0.00     0.053 C 
HETATM   33  C22 UNL     1     -15.158  71.686  36.611  1.00  0.00     0.006 C 
HETATM   34  C23 UNL     1     -14.271  71.451  35.432  1.00  0.00     0.001 C 
HETATM   35  C24 UNL     1     -14.845  71.861  34.115  1.00  0.00     0.006 C 
HETATM   36  C25 UNL     1     -15.614  73.158  34.165  1.00  0.00     0.053 C 
ENDBRANCH   1  31
TORSDOF 11
ENDMDL
MODEL 2
REMARK VINA RESULT: -8.438716310      0.543      1.728
REMARK  11 active torsions:
REMARK  status: ('A' for Active; 'I' for Inactive)
REMARK    1  A    between atoms: C2_2  and  O1_4 
REMARK    2  A    between atoms: O1_4  and  C4_5 
REMARK    3  A    between atoms: C4_5  and  C5_7 
REMARK    4  A    between atoms: C5_7  and  C6_8 
REMARK    5  A    between atoms: C5_7  and  N1_18 
REMARK    6  A    between atoms: C6_8  and  C7_9 
REMARK    7  A    between atoms: N1_18  and  C13_19 
REMARK    8  A    between atoms: N1_18  and  C20_31 
REMARK    9  A    between atoms: C13_19  and  O3_20 
REMARK   10  A    between atoms: C13_19  and  C14_22 
REMARK   11  A    between atoms: C17_25  and  N2_26 
ROOT
HETATM    1  N1  UNL     1     -17.850  73.737  35.023  1.00  0.00    -0.320 N 
ENDROOT
BRANCH   1   2
HETATM    2  C5  UNL     1     -19.066  72.883  34.719  1.00  0.00     0.195 C 
BRANCH   2   3
HETATM    3  C4  UNL     1     -20.313  73.443  35.184  1.00  0.00     0.283 C 
HETATM    4  O2  UNL     1     -20.598  73.429  36.441  1.00  0.00    -0.263 OA
BRANCH   3   5
HETATM    5  O1  UNL     1     -21.286  74.015  34.408  1.00  0.00    -0.315 OA
BRANCH   5   6
HETATM    6  C2  UNL     1     -22.045  73.299  33.454  1.00  0.00     0.123 C 
HETATM    7  C1  UNL     1     -22.967  72.278  34.035  1.00  0.00     0.040 C 
HETATM    8  C3  UNL     1     -22.741  74.245  32.531  1.00  0.00     0.040 C 
ENDBRANCH   5   6
ENDBRANCH   3   5
ENDBRANCH   2   3
BRANCH   2   9
HETATM    9  C6  UNL     1     -18.790  71.528  35.294  1.00  0.00     0.074 C 
BRANCH   9  10
HETATM   10  C7  UNL     1     -18.856  70.416  34.326  1.00  0.00    -0.052 A 
HETATM   11  C8  UNL     1     -17.755  69.606  34.151  1.00  0.00     0.032 A 
HETATM   12  C9  UNL     1     -17.831  68.571  33.241  1.00  0.00     0.058 A 
HETATM   13 CL1  UNL     1     -16.480  67.509  32.970  1.00  0.00    -0.082 Cl
HETATM   14  C10 UNL     1     -18.994  68.335  32.506  1.00  0.00     0.077 A 
HETATM   15 CL2  UNL     1     -19.103  67.030  31.353  1.00  0.00    -0.081 Cl
HETATM   16  C11 UNL     1     -20.079  69.149  32.690  1.00  0.00     0.058 A 
HETATM   17 CL3  UNL     1     -21.572  68.910  31.799  1.00  0.00    -0.082 Cl
HETATM   18  C12 UNL     1     -20.018  70.180  33.589  1.00  0.00     0.032 A 
ENDBRANCH   9  10
ENDBRANCH   2   9
ENDBRANCH   1   2
BRANCH   1  19
HETATM   19  C13 UNL     1     -18.107  75.080  35.007  1.00  0.00     0.153 C 
BRANCH  19  20
HETATM   20  O3  UNL     1     -18.387  75.527  36.248  1.00  0.00    -0.345 OA
ATOM     21  H3  UNL     1     -19.257  75.254  36.514  1.00  0.00     0.219 HD
ENDBRANCH  19  20
BRANCH  19  22
HETATM   22  C14 UNL     1     -18.172  76.180  34.083  1.00  0.00     0.015 A 
HETATM   23  C15 UNL     1     -17.887  76.175  32.745  1.00  0.00     0.018 A 
HETATM   24  C16 UNL     1     -17.935  77.310  31.940  1.00  0.00     0.037 A 
HETATM   25  C17 UNL     1     -18.283  78.518  32.474  1.00  0.00     0.102 A 
HETATM   26  C18 UNL     1     -18.581  78.596  33.798  1.00  0.00     0.037 A 
HETATM   27  C19 UNL     1     -18.525  77.468  34.560  1.00  0.00     0.018 A 
BRANCH  25  28
HETATM   28  N2  UNL     1     -18.351  79.706  31.711  1.00  0.00    -0.116 N 
HETATM   29  O4  UNL     1     -17.475  80.564  31.854  1.00  0.00    -0.532 OA
HETATM   30  O5  UNL     1     -19.364  79.905  30.833  1.00  0.00    -0.532 OA
ENDBRANCH  25  28
ENDBRANCH  19  22
ENDBRANCH   1  19
BRANCH   1  31
HETATM   31  C20 UNL     1     -16.685  72.990  35.212  1.00  0.00    -0.008 C 
HETATM   32  C21 UNL     1     -15.923  73.049  36.493  1.00  0.00     0.053 C 
HETATM   33  C22 UNL     1     -15.154  71.734  36.614  1.00  0.00     0.006 C 
HETATM   34  C23 UNL     1     -14.240  71.483  35.459  1.00  0.00     0.001 C 
HETATM   35  C24 UNL     1     -14.818  71.787  34.116  1.00  0.00     0.006 C 
HETATM   36  C25 UNL     1     -15.657  73.041  34.085  1.00  0.00     0.053 C 
ENDBRANCH   1  31
TORSDOF 11
ENDMDL
MODEL 3
REMARK VINA RESULT: -8.251324542      1.142      1.438
REMARK  11 active torsions:
REMARK  status: ('A' for Active; 'I' for Inactive)
REMARK    1  A    between atoms: C2_2  and  O1_4 
REMARK    2  A    between atoms: O1_4  and  C4_5 
REMARK    3  A    between atoms: C4_5  and  C5_7 
REMARK    4  A    between atoms: C5_7  and  C6_8 
REMARK    5  A    between atoms: C5_7  and  N1_18 
REMARK    6  A    between atoms: C6_8  and  C7_9 
REMARK    7  A    between atoms: N1_18  and  C13_19 
REMARK    8  A    between atoms: N1_18  and  C20_31 
REMARK    9  A    between atoms: C13_19  and  O3_20 
REMARK   10  A    between atoms: C13_19  and  C14_22 
REMARK   11  A    between atoms: C17_25  and  N2_26 
ROOT
HETATM    1  N1  UNL     1     -18.383  73.591  35.293  1.00  0.00    -0.320 N 
ENDROOT
BRANCH   1   2
HETATM    2  C5  UNL     1     -19.439  72.640  34.764  1.00  0.00     0.195 C 
BRANCH   2   3
HETATM    3  C4  UNL     1     -20.794  73.021  35.089  1.00  0.00     0.283 C 
HETATM    4  O2  UNL     1     -21.222  72.912  36.299  1.00  0.00    -0.263 OA
BRANCH   3   5
HETATM    5  O1  UNL     1     -21.730  73.509  34.217  1.00  0.00    -0.315 OA
BRANCH   5   6
HETATM    6  C2  UNL     1     -22.531  72.688  33.390  1.00  0.00     0.123 C 
HETATM    7  C1  UNL     1     -23.478  71.800  34.129  1.00  0.00     0.040 C 
HETATM    8  C3  UNL     1     -23.208  73.510  32.343  1.00  0.00     0.040 C 
ENDBRANCH   5   6
ENDBRANCH   3   5
ENDBRANCH   2   3
BRANCH   2   9
HETATM    9  C6  UNL     1     -19.083  71.279  35.276  1.00  0.00     0.074 C 
BRANCH   9  10
HETATM   10  C7  UNL     1     -19.044  70.219  34.250  1.00  0.00    -0.052 A 
HETATM   11  C8  UNL     1     -20.174  69.955  33.506  1.00  0.00     0.032 A 
HETATM   12  C9  UNL     1     -20.122  68.961  32.551  1.00  0.00     0.058 A 
HETATM   13 CL1  UNL     1     -21.509  68.575  31.575  1.00  0.00    -0.082 Cl
HETATM   14  C10 UNL     1     -18.954  68.227  32.330  1.00  0.00     0.077 A 
HETATM   15 CL2  UNL     1     -18.875  66.967  31.125  1.00  0.00    -0.081 Cl
HETATM   16  C11 UNL     1     -17.841  68.500  33.077  1.00  0.00     0.058 A 
HETATM   17 CL3  UNL     1     -16.341  67.617  32.852  1.00  0.00    -0.082 Cl
HETATM   18  C12 UNL     1     -17.877  69.484  34.029  1.00  0.00     0.032 A 
ENDBRANCH   9  10
ENDBRANCH   2   9
ENDBRANCH   1   2
BRANCH   1  19
HETATM   19  C13 UNL     1     -18.865  74.837  35.585  1.00  0.00     0.153 C 
BRANCH  19  20
HETATM   20  O3  UNL     1     -19.151  74.941  36.899  1.00  0.00    -0.345 OA
ATOM     21  H3  UNL     1     -18.357  74.910  37.419  1.00  0.00     0.219 HD
ENDBRANCH  19  20
BRANCH  19  22
HETATM   22  C14 UNL     1     -19.165  76.085  34.938  1.00  0.00     0.015 A 
HETATM   23  C15 UNL     1     -20.396  76.627  34.685  1.00  0.00     0.018 A 
HETATM   24  C16 UNL     1     -20.587  77.828  34.004  1.00  0.00     0.037 A 
HETATM   25  C17 UNL     1     -19.513  78.537  33.547  1.00  0.00     0.102 A 
HETATM   26  C18 UNL     1     -18.260  78.056  33.765  1.00  0.00     0.037 A 
HETATM   27  C19 UNL     1     -18.105  76.880  34.433  1.00  0.00     0.018 A 
BRANCH  25  28
HETATM   28  N2  UNL     1     -19.639  79.761  32.850  1.00  0.00    -0.116 N 
HETATM   29  O4  UNL     1     -20.766  80.203  32.610  1.00  0.00    -0.532 OA
HETATM   30  O5  UNL     1     -18.538  80.442  32.449  1.00  0.00    -0.532 OA
ENDBRANCH  25  28
ENDBRANCH  19  22
ENDBRANCH   1  19
BRANCH   1  31
HETATM   31  C20 UNL     1     -17.104  73.029  35.333  1.00  0.00    -0.008 C 
HETATM   32  C21 UNL     1     -16.227  73.175  36.530  1.00  0.00     0.053 C 
HETATM   33  C22 UNL     1     -15.260  71.992  36.520  1.00  0.00     0.006 C 
HETATM   34  C23 UNL     1     -14.447  71.911  35.269  1.00  0.00     0.001 C 
HETATM   35  C24 UNL     1     -15.206  72.153  34.005  1.00  0.00     0.006 C 
HETATM   36  C25 UNL     1     -16.223  73.262  34.108  1.00  0.00     0.053 C 
ENDBRANCH   1  31
TORSDOF 11
ENDMDL
MODEL 4
REMARK VINA RESULT: -8.188228916      3.745      6.244
REMARK  11 active torsions:
REMARK  status: ('A' for Active; 'I' for Inactive)
REMARK    1  A    between atoms: C2_2  and  O1_4 
REMARK    2  A    between atoms: O1_4  and  C4_5 
REMARK    3  A    between atoms: C4_5  and  C5_7 
REMARK    4  A    between atoms: C5_7  and  C6_8 
REMARK    5  A    between atoms: C5_7  and  N1_18 
REMARK    6  A    between atoms: C6_8  and  C7_9 
REMARK    7  A    between atoms: N1_18  and  C13_19 
REMARK    8  A    between atoms: N1_18  and  C20_31 
REMARK    9  A    between atoms: C13_19  and  O3_20 
REMARK   10  A    between atoms: C13_19  and  C14_22 
REMARK   11  A    between atoms: C17_25  and  N2_26 
ROOT
HETATM    1  N1  UNL     1     -18.727  73.322  35.436  1.00  0.00    -0.320 N 
ENDROOT
BRANCH   1   2
HETATM    2  C5  UNL     1     -17.593  72.591  34.743  1.00  0.00     0.195 C 
BRANCH   2   3
HETATM    3  C4  UNL     1     -17.195  71.365  35.394  1.00  0.00     0.283 C 
HETATM    4  O2  UNL     1     -16.291  71.386  36.312  1.00  0.00    -0.263 OA
BRANCH   3   5
HETATM    5  O1  UNL     1     -17.687  70.113  35.137  1.00  0.00    -0.315 OA
BRANCH   5   6
HETATM    6  C2  UNL     1     -17.719  69.537  33.846  1.00  0.00     0.123 C 
HETATM    7  C1  UNL     1     -17.076  68.192  33.751  1.00  0.00     0.040 C 
HETATM    8  C3  UNL     1     -19.112  69.550  33.308  1.00  0.00     0.040 C 
ENDBRANCH   5   6
ENDBRANCH   3   5
ENDBRANCH   2   3
BRANCH   2   9
HETATM    9  C6  UNL     1     -16.468  73.571  34.618  1.00  0.00     0.074 C 
BRANCH   9  10
HETATM   10  C7  UNL     1     -16.267  74.118  33.263  1.00  0.00    -0.052 A 
HETATM   11  C8  UNL     1     -15.485  73.426  32.362  1.00  0.00     0.032 A 
HETATM   12  C9  UNL     1     -15.307  73.950  31.098  1.00  0.00     0.058 A 
HETATM   13 CL1  UNL     1     -14.334  73.130  29.912  1.00  0.00    -0.082 Cl
HETATM   14  C10 UNL     1     -15.900  75.157  30.723  1.00  0.00     0.077 A 
HETATM   15 CL2  UNL     1     -15.681  75.831  29.129  1.00  0.00    -0.081 Cl
HETATM   16  C11 UNL     1     -16.672  75.833  31.628  1.00  0.00     0.058 A 
HETATM   17 CL3  UNL     1     -17.446  77.356  31.224  1.00  0.00    -0.082 Cl
HETATM   18  C12 UNL     1     -16.858  75.326  32.886  1.00  0.00     0.032 A 
ENDBRANCH   9  10
ENDBRANCH   2   9
ENDBRANCH   1   2
BRANCH   1  19
HETATM   19  C13 UNL     1     -19.957  72.774  35.199  1.00  0.00     0.153 C 
BRANCH  19  20
HETATM   20  O3  UNL     1     -20.216  71.784  36.078  1.00  0.00    -0.345 OA
ATOM     21  H3  UNL     1     -20.027  70.936  35.693  1.00  0.00     0.219 HD
ENDBRANCH  19  20
BRANCH  19  22
HETATM   22  C14 UNL     1     -21.076  72.915  34.306  1.00  0.00     0.015 A 
HETATM   23  C15 UNL     1     -22.183  72.116  34.211  1.00  0.00     0.018 A 
HETATM   24  C16 UNL     1     -23.197  72.309  33.275  1.00  0.00     0.037 A 
HETATM   25  C17 UNL     1     -23.124  73.342  32.386  1.00  0.00     0.102 A 
HETATM   26  C18 UNL     1     -22.051  74.176  32.425  1.00  0.00     0.037 A 
HETATM   27  C19 UNL     1     -21.075  73.962  33.351  1.00  0.00     0.018 A 
BRANCH  25  28
HETATM   28  N2  UNL     1     -24.119  73.592  31.413  1.00  0.00    -0.116 N 
HETATM   29  O4  UNL     1     -24.539  74.743  31.263  1.00  0.00    -0.532 OA
HETATM   30  O5  UNL     1     -24.608  72.582  30.653  1.00  0.00    -0.532 OA
ENDBRANCH  25  28
ENDBRANCH  19  22
ENDBRANCH   1  19
BRANCH   1  31
HETATM   31  C20 UNL     1     -18.305  74.450  36.145  1.00  0.00    -0.008 C 
HETATM   32  C21 UNL     1     -18.171  74.429  37.630  1.00  0.00     0.053 C 
HETATM   33  C22 UNL     1     -17.144  75.500  37.999  1.00  0.00     0.006 C 
HETATM   34  C23 UNL     1     -17.521  76.862  37.515  1.00  0.00     0.001 C 
HETATM   35  C24 UNL     1     -18.056  76.914  36.121  1.00  0.00     0.006 C 
HETATM   36  C25 UNL     1     -18.980  75.770  35.782  1.00  0.00     0.053 C 
ENDBRANCH   1  31
TORSDOF 11
ENDMDL
MODEL 5
REMARK VINA RESULT: -8.177205322      3.812      6.337
REMARK  11 active torsions:
REMARK  status: ('A' for Active; 'I' for Inactive)
REMARK    1  A    between atoms: C2_2  and  O1_4 
REMARK    2  A    between atoms: O1_4  and  C4_5 
REMARK    3  A    between atoms: C4_5  and  C5_7 
REMARK    4  A    between atoms: C5_7  and  C6_8 
REMARK    5  A    between atoms: C5_7  and  N1_18 
REMARK    6  A    between atoms: C6_8  and  C7_9 
REMARK    7  A    between atoms: N1_18  and  C13_19 
REMARK    8  A    between atoms: N1_18  and  C20_31 
REMARK    9  A    between atoms: C13_19  and  O3_20 
REMARK   10  A    between atoms: C13_19  and  C14_22 
REMARK   11  A    between atoms: C17_25  and  N2_26 
ROOT
HETATM    1  N1  UNL     1     -19.453  74.982  34.543  1.00  0.00    -0.320 N 
ENDROOT
BRANCH   1   2
HETATM    2  C5  UNL     1     -18.545  74.318  33.526  1.00  0.00     0.195 C 
BRANCH   2   3
HETATM    3  C4  UNL     1     -17.847  73.157  34.027  1.00  0.00     0.283 C 
HETATM    4  O2  UNL     1     -18.501  72.084  34.312  1.00  0.00    -0.263 OA
BRANCH   3   5
HETATM    5  O1  UNL     1     -16.500  73.054  34.252  1.00  0.00    -0.315 OA
BRANCH   5   6
HETATM    6  C2  UNL     1     -15.922  72.085  35.105  1.00  0.00     0.123 C 
HETATM    7  C1  UNL     1     -14.664  71.472  34.583  1.00  0.00     0.040 C 
HETATM    8  C3  UNL     1     -15.766  72.637  36.484  1.00  0.00     0.040 C 
ENDBRANCH   5   6
ENDBRANCH   3   5
ENDBRANCH   2   3
BRANCH   2   9
HETATM    9  C6  UNL     1     -17.616  75.379  33.026  1.00  0.00     0.074 C 
BRANCH   9  10
HETATM   10  C7  UNL     1     -18.255  76.432  32.213  1.00  0.00    -0.052 A 
HETATM   11  C8  UNL     1     -18.970  76.078  31.089  1.00  0.00     0.032 A 
HETATM   12  C9  UNL     1     -19.561  77.074  30.338  1.00  0.00     0.058 A 
HETATM   13 CL1  UNL     1     -20.479  76.700  28.908  1.00  0.00    -0.082 Cl
HETATM   14  C10 UNL     1     -19.447  78.418  30.697  1.00  0.00     0.077 A 
HETATM   15 CL2  UNL     1     -20.190  79.687  29.757  1.00  0.00    -0.081 Cl
HETATM   16  C11 UNL     1     -18.733  78.754  31.815  1.00  0.00     0.058 A 
HETATM   17 CL3  UNL     1     -18.548  80.424  32.324  1.00  0.00    -0.082 Cl
HETATM   18  C12 UNL     1     -18.140  77.777  32.570  1.00  0.00     0.032 A 
ENDBRANCH   9  10
ENDBRANCH   2   9
ENDBRANCH   1   2
BRANCH   1  19
HETATM   19  C13 UNL     1     -20.718  75.215  34.077  1.00  0.00     0.153 C 
BRANCH  19  20
HETATM   20  O3  UNL     1     -21.469  74.097  34.161  1.00  0.00    -0.345 OA
ATOM     21  H3  UNL     1     -22.379  74.289  33.967  1.00  0.00     0.219 HD
ENDBRANCH  19  20
BRANCH  19  22
HETATM   22  C14 UNL     1     -21.514  76.277  33.525  1.00  0.00     0.015 A 
HETATM   23  C15 UNL     1     -22.402  76.211  32.485  1.00  0.00     0.018 A 
HETATM   24  C16 UNL     1     -23.094  77.313  31.989  1.00  0.00     0.037 A 
HETATM   25  C17 UNL     1     -22.908  78.548  32.542  1.00  0.00     0.102 A 
HETATM   26  C18 UNL     1     -22.040  78.685  33.579  1.00  0.00     0.037 A 
HETATM   27  C19 UNL     1     -21.377  77.590  34.042  1.00  0.00     0.018 A 
BRANCH  25  28
HETATM   28  N2  UNL     1     -23.579  79.705  32.084  1.00  0.00    -0.116 N 
HETATM   29  O4  UNL     1     -22.918  80.659  31.668  1.00  0.00    -0.532 OA
HETATM   30  O5  UNL     1     -24.933  79.768  32.102  1.00  0.00    -0.532 OA
ENDBRANCH  25  28
ENDBRANCH  19  22
ENDBRANCH   1  19
BRANCH   1  31
HETATM   31  C20 UNL     1     -18.810  75.279  35.747  1.00  0.00    -0.008 C 
HETATM   32  C21 UNL     1     -19.363  74.827  37.056  1.00  0.00     0.053 C 
HETATM   33  C22 UNL     1     -18.187  74.739  38.029  1.00  0.00     0.006 C 
HETATM   34  C23 UNL     1     -17.452  76.030  38.177  1.00  0.00     0.001 C 
HETATM   35  C24 UNL     1     -17.198  76.764  36.900  1.00  0.00     0.006 C 
HETATM   36  C25 UNL     1     -18.356  76.725  35.935  1.00  0.00     0.053 C 
ENDBRANCH   1  31
TORSDOF 11
ENDMDL
