MODEL 1
REMARK VINA RESULT: -5.787210212      0.000      0.000
REMARK  6 active torsions:
REMARK  status: ('A' for Active; 'I' for Inactive)
REMARK    1  A    between atoms: O1_1  and  C1_3 
REMARK    2  A    between atoms: C1_3  and  C2_4 
REMARK    3  A    between atoms: C1_3  and  S2_10 
REMARK    4  A    between atoms: C2_4  and  C3_5 
REMARK    5  A    between atoms: C3_5  and  N1_6 
REMARK    6  A    between atoms: S2_10  and  C5_11 
ROOT
HETATM    1  N1  UNL     1      42.817  15.882  -1.280  1.00  0.00    -0.367 N 
ATOM      2  H1  UNL     1      42.093  16.172  -0.623  1.00  0.00     0.165 HD
HETATM    3  C4  UNL     1      42.542  15.931  -2.503  1.00  0.00     0.169 C 
HETATM    4  S1  UNL     1      42.034  16.116  -4.013  1.00  0.00    -0.074 SA
ENDROOT
BRANCH   1   5
HETATM    5  C3  UNL     1      44.058  15.457  -0.742  1.00  0.00     0.087 C 
BRANCH   5   6
HETATM    6  C2  UNL     1      44.341  14.222  -0.402  1.00  0.00     0.032 C 
BRANCH   6   7
HETATM    7  C1  UNL     1      44.759  13.920   0.972  1.00  0.00     0.204 C 
BRANCH   7   8
HETATM    8  O1  UNL     1      44.249  12.672   1.409  1.00  0.00    -0.381 OA
ATOM      9  H1  UNL     1      44.469  12.504   2.318  1.00  0.00     0.211 HD
ENDBRANCH   7   8
BRANCH   7  10
HETATM   10  S2  UNL     1      44.182  15.219   2.058  1.00  0.00    -0.123 SA
BRANCH  10  11
HETATM   11  C5  UNL     1      45.347  15.808   3.248  1.00  0.00     0.020 C 
HETATM   12  C6  UNL     1      44.860  16.046   4.663  1.00  0.00     0.054 C 
HETATM   13  C7  UNL     1      46.135  15.877   5.451  1.00  0.00     0.188 C 
HETATM   14  C8  UNL     1      46.651  14.579   4.800  1.00  0.00     0.041 C 
HETATM   15  N2  UNL     1      47.111  16.813   4.964  1.00  0.00    -0.066 N 
HETATM   16  C9  UNL     1      46.657  15.091   3.377  1.00  0.00     0.037 C 
HETATM   17  C10 UNL     1      47.300  16.448   3.564  1.00  0.00     0.193 C 
HETATM   18  C11 UNL     1      46.116  17.019   2.771  1.00  0.00     0.054 C 
ATOM     19  H22 UNL     1      46.859  17.790   5.110  1.00  0.00     0.278 HD
ATOM     20  H21 UNL     1      47.974  16.835   5.508  1.00  0.00     0.278 HD
ENDBRANCH  10  11
ENDBRANCH   7  10
ENDBRANCH   6   7
ENDBRANCH   5   6
ENDBRANCH   1   5
TORSDOF 6
ENDMDL
MODEL 2
REMARK VINA RESULT: -5.679347281      2.384      2.849
REMARK  6 active torsions:
REMARK  status: ('A' for Active; 'I' for Inactive)
REMARK    1  A    between atoms: O1_1  and  C1_3 
REMARK    2  A    between atoms: C1_3  and  C2_4 
REMARK    3  A    between atoms: C1_3  and  S2_10 
REMARK    4  A    between atoms: C2_4  and  C3_5 
REMARK    5  A    between atoms: C3_5  and  N1_6 
REMARK    6  A    between atoms: S2_10  and  C5_11 
ROOT
HETATM    1  N1  UNL     1      45.309  11.596  -0.802  1.00  0.00    -0.367 N 
ATOM      2  H1  UNL     1      46.170  11.529  -0.260  1.00  0.00     0.165 HD
HETATM    3  C4  UNL     1      44.707  10.528  -1.068  1.00  0.00     0.169 C 
HETATM    4  S1  UNL     1      44.050   9.077  -1.258  1.00  0.00    -0.074 SA
ENDROOT
BRANCH   1   5
HETATM    5  C3  UNL     1      44.884  12.890  -1.199  1.00  0.00     0.087 C 
BRANCH   5   6
HETATM    6  C2  UNL     1      44.515  13.841  -0.374  1.00  0.00     0.032 C 
BRANCH   6   7
HETATM    7  C1  UNL     1      44.856  13.745   1.051  1.00  0.00     0.204 C 
BRANCH   7   8
HETATM    8  O1  UNL     1      44.220  12.637   1.664  1.00  0.00    -0.381 OA
ATOM      9  H1  UNL     1      44.849  11.969   1.913  1.00  0.00     0.211 HD
ENDBRANCH   7   8
BRANCH   7  10
HETATM   10  S2  UNL     1      44.361  15.254   1.873  1.00  0.00    -0.123 SA
BRANCH  10  11
HETATM   11  C5  UNL     1      45.419  15.810   3.174  1.00  0.00     0.020 C 
HETATM   12  C6  UNL     1      44.813  16.004   4.549  1.00  0.00     0.054 C 
HETATM   13  C7  UNL     1      46.018  15.814   5.437  1.00  0.00     0.188 C 
HETATM   14  C8  UNL     1      46.593  14.538   4.793  1.00  0.00     0.041 C 
HETATM   15  N2  UNL     1      47.027  16.767   5.062  1.00  0.00    -0.066 N 
HETATM   16  C9  UNL     1      46.717  15.093   3.391  1.00  0.00     0.037 C 
HETATM   17  C10 UNL     1      47.335  16.445   3.672  1.00  0.00     0.193 C 
HETATM   18  C11 UNL     1      46.219  17.036   2.800  1.00  0.00     0.054 C 
ATOM     19  H22 UNL     1      46.759  17.738   5.216  1.00  0.00     0.278 HD
ATOM     20  H21 UNL     1      47.840  16.775   5.678  1.00  0.00     0.278 HD
ENDBRANCH  10  11
ENDBRANCH   7  10
ENDBRANCH   6   7
ENDBRANCH   5   6
ENDBRANCH   1   5
TORSDOF 6
ENDMDL
MODEL 3
REMARK VINA RESULT: -5.669190139      2.007      2.670
REMARK  6 active torsions:
REMARK  status: ('A' for Active; 'I' for Inactive)
REMARK    1  A    between atoms: O1_1  and  C1_3 
REMARK    2  A    between atoms: C1_3  and  C2_4 
REMARK    3  A    between atoms: C1_3  and  S2_10 
REMARK    4  A    between atoms: C2_4  and  C3_5 
REMARK    5  A    between atoms: C3_5  and  N1_6 
REMARK    6  A    between atoms: S2_10  and  C5_11 
ROOT
HETATM    1  N1  UNL     1      44.874  13.291  -0.569  1.00  0.00    -0.367 N 
ATOM      2  H1  UNL     1      45.601  13.056  -1.245  1.00  0.00     0.165 HD
HETATM    3  C4  UNL     1      44.373  14.440  -0.632  1.00  0.00     0.169 C 
HETATM    4  S1  UNL     1      43.814  15.918  -0.902  1.00  0.00    -0.074 SA
ENDROOT
BRANCH   1   5
HETATM    5  C3  UNL     1      44.505  12.293   0.368  1.00  0.00     0.087 C 
BRANCH   5   6
HETATM    6  C2  UNL     1      44.950  12.224   1.601  1.00  0.00     0.032 C 
BRANCH   6   7
HETATM    7  C1  UNL     1      46.373  12.454   1.877  1.00  0.00     0.204 C 
BRANCH   7   8
HETATM    8  O1  UNL     1      47.124  11.258   1.768  1.00  0.00    -0.381 OA
ATOM      9  H1  UNL     1      47.877  11.370   1.200  1.00  0.00     0.211 HD
ENDBRANCH   7   8
BRANCH   7  10
HETATM   10  S2  UNL     1      46.546  13.127   3.526  1.00  0.00    -0.123 SA
BRANCH  10  11
HETATM   11  C5  UNL     1      46.425  14.884   3.661  1.00  0.00     0.020 C 
HETATM   12  C6  UNL     1      45.637  15.626   2.600  1.00  0.00     0.054 C 
HETATM   13  C7  UNL     1      45.211  16.861   3.355  1.00  0.00     0.188 C 
HETATM   14  C8  UNL     1      44.717  16.194   4.652  1.00  0.00     0.041 C 
HETATM   15  N2  UNL     1      46.382  17.536   3.844  1.00  0.00    -0.066 N 
HETATM   16  C9  UNL     1      46.004  15.470   4.975  1.00  0.00     0.037 C 
HETATM   17  C10 UNL     1      47.018  16.566   4.730  1.00  0.00     0.193 C 
HETATM   18  C11 UNL     1      47.767  15.554   3.851  1.00  0.00     0.054 C 
ATOM     19  H22 UNL     1      46.993  17.893   3.110  1.00  0.00     0.278 HD
ATOM     20  H21 UNL     1      46.191  18.437   4.282  1.00  0.00     0.278 HD
ENDBRANCH  10  11
ENDBRANCH   7  10
ENDBRANCH   6   7
ENDBRANCH   5   6
ENDBRANCH   1   5
TORSDOF 6
ENDMDL
MODEL 4
REMARK VINA RESULT: -5.599016606      3.187      3.785
REMARK  6 active torsions:
REMARK  status: ('A' for Active; 'I' for Inactive)
REMARK    1  A    between atoms: O1_1  and  C1_3 
REMARK    2  A    between atoms: C1_3  and  C2_4 
REMARK    3  A    between atoms: C1_3  and  S2_10 
REMARK    4  A    between atoms: C2_4  and  C3_5 
REMARK    5  A    between atoms: C3_5  and  N1_6 
REMARK    6  A    between atoms: S2_10  and  C5_11 
ROOT
HETATM    1  N1  UNL     1      44.747  10.791  -0.799  1.00  0.00    -0.367 N 
ATOM      2  H1  UNL     1      44.835  11.541  -1.485  1.00  0.00     0.165 HD
HETATM    3  C4  UNL     1      44.108   9.767  -1.138  1.00  0.00     0.169 C 
HETATM    4  S1  UNL     1      43.315   8.522  -1.766  1.00  0.00    -0.074 SA
ENDROOT
BRANCH   1   5
HETATM    5  C3  UNL     1      45.358  10.987   0.466  1.00  0.00     0.087 C 
BRANCH   5   6
HETATM    6  C2  UNL     1      44.769  11.532   1.504  1.00  0.00     0.032 C 
BRANCH   6   7
HETATM    7  C1  UNL     1      44.896  12.974   1.743  1.00  0.00     0.204 C 
BRANCH   7   8
HETATM    8  O1  UNL     1      45.005  13.695   0.528  1.00  0.00    -0.381 OA
ATOM      9  H1  UNL     1      44.151  13.878   0.154  1.00  0.00     0.211 HD
ENDBRANCH   7   8
BRANCH   7  10
HETATM   10  S2  UNL     1      46.342  13.274   2.753  1.00  0.00    -0.123 SA
BRANCH  10  11
HETATM   11  C5  UNL     1      46.346  14.783   3.671  1.00  0.00     0.020 C 
HETATM   12  C6  UNL     1      47.635  15.578   3.727  1.00  0.00     0.054 C 
HETATM   13  C7  UNL     1      47.115  16.974   3.966  1.00  0.00     0.188 C 
HETATM   14  C8  UNL     1      45.996  16.999   2.908  1.00  0.00     0.041 C 
HETATM   15  N2  UNL     1      46.329  16.979   5.169  1.00  0.00    -0.066 N 
HETATM   16  C9  UNL     1      45.257  15.779   3.409  1.00  0.00     0.037 C 
HETATM   17  C10 UNL     1      45.240  16.046   4.898  1.00  0.00     0.193 C 
HETATM   18  C11 UNL     1      45.793  14.624   5.068  1.00  0.00     0.054 C 
ATOM     19  H22 UNL     1      46.860  16.766   6.013  1.00  0.00     0.278 HD
ATOM     20  H21 UNL     1      46.020  17.906   5.461  1.00  0.00     0.278 HD
ENDBRANCH  10  11
ENDBRANCH   7  10
ENDBRANCH   6   7
ENDBRANCH   5   6
ENDBRANCH   1   5
TORSDOF 6
ENDMDL
MODEL 5
REMARK VINA RESULT: -5.552102058      3.265      3.963
REMARK  6 active torsions:
REMARK  status: ('A' for Active; 'I' for Inactive)
REMARK    1  A    between atoms: O1_1  and  C1_3 
REMARK    2  A    between atoms: C1_3  and  C2_4 
REMARK    3  A    between atoms: C1_3  and  S2_10 
REMARK    4  A    between atoms: C2_4  and  C3_5 
REMARK    5  A    between atoms: C3_5  and  N1_6 
REMARK    6  A    between atoms: S2_10  and  C5_11 
ROOT
HETATM    1  N1  UNL     1      45.929  11.473  -0.784  1.00  0.00    -0.367 N 
ATOM      2  H1  UNL     1      45.754  12.008  -1.635  1.00  0.00     0.165 HD
HETATM    3  C4  UNL     1      47.097  11.061  -0.588  1.00  0.00     0.169 C 
HETATM    4  S1  UNL     1      48.649  10.673  -0.479  1.00  0.00    -0.074 SA
ENDROOT
BRANCH   1   5
HETATM    5  C3  UNL     1      44.832  11.253   0.087  1.00  0.00     0.087 C 
BRANCH   5   6
HETATM    6  C2  UNL     1      44.815  11.563   1.362  1.00  0.00     0.032 C 
BRANCH   6   7
HETATM    7  C1  UNL     1      44.858  12.972   1.772  1.00  0.00     0.204 C 
BRANCH   7   8
HETATM    8  O1  UNL     1      44.898  13.839   0.652  1.00  0.00    -0.381 OA
ATOM      9  H1  UNL     1      44.027  14.011   0.314  1.00  0.00     0.211 HD
ENDBRANCH   7   8
BRANCH   7  10
HETATM   10  S2  UNL     1      46.302  13.240   2.793  1.00  0.00    -0.123 SA
BRANCH  10  11
HETATM   11  C5  UNL     1      46.343  14.759   3.693  1.00  0.00     0.020 C 
HETATM   12  C6  UNL     1      47.639  15.545   3.704  1.00  0.00     0.054 C 
HETATM   13  C7  UNL     1      47.136  16.948   3.941  1.00  0.00     0.188 C 
HETATM   14  C8  UNL     1      45.989  16.969   2.914  1.00  0.00     0.041 C 
HETATM   15  N2  UNL     1      46.384  16.972   5.165  1.00  0.00    -0.066 N 
HETATM   16  C9  UNL     1      45.254  15.761   3.449  1.00  0.00     0.037 C 
HETATM   17  C10 UNL     1      45.281  16.045   4.935  1.00  0.00     0.193 C 
HETATM   18  C11 UNL     1      45.827  14.621   5.107  1.00  0.00     0.054 C 
ATOM     19  H22 UNL     1      46.936  16.765   5.997  1.00  0.00     0.278 HD
ATOM     20  H21 UNL     1      46.090  17.905   5.454  1.00  0.00     0.278 HD
ENDBRANCH  10  11
ENDBRANCH   7  10
ENDBRANCH   6   7
ENDBRANCH   5   6
ENDBRANCH   1   5
TORSDOF 6
ENDMDL
