MODEL 1
REMARK VINA RESULT: -5.837917030      0.000      0.000
REMARK  5 active torsions:
REMARK  status: ('A' for Active; 'I' for Inactive)
REMARK    1  A    between atoms: C2_2  and  C3_3 
REMARK    2  A    between atoms: C6_6  and  C7_7 
REMARK    3  A    between atoms: C7_7  and  N1_8 
REMARK    4  A    between atoms: N1_8  and  C8_11 
REMARK    5  A    between atoms: C11_17  and  N3_18 
ROOT
HETATM    1  N1  UNL     1      43.740  15.300   1.467  1.00  0.00    -0.062 N 
ATOM      2  H11 UNL     1      42.738  15.125   1.395  1.00  0.00     0.278 HD
ATOM      3  H12 UNL     1      43.929  14.650   2.229  1.00  0.00     0.278 HD
ENDROOT
BRANCH   1   4
HETATM    4  C7  UNL     1      44.058  16.673   1.795  1.00  0.00     0.287 C 
BRANCH   4   5
HETATM    5  C6  UNL     1      44.977  16.794   2.936  1.00  0.00     0.038 C 
HETATM    6  C5  UNL     1      46.474  16.655   2.954  1.00  0.00     0.096 C 
HETATM    7  C3  UNL     1      46.703  16.429   4.412  1.00  0.00     0.090 C 
HETATM    8  C4  UNL     1      47.981  17.054   4.916  1.00  0.00     0.049 C 
HETATM    9  O1  UNL     1      45.624  17.114   5.004  1.00  0.00    -0.269 OA
HETATM   10  N4  UNL     1      44.583  17.051   4.130  1.00  0.00    -0.272 N 
ATOM     11  H4  UNL     1      43.608  17.191   4.392  1.00  0.00     0.193 HD
BRANCH   7  12
HETATM   12  C2  UNL     1      46.645  14.978   4.826  1.00  0.00     0.036 C 
HETATM   13  C1  UNL     1      46.855  14.148   3.560  1.00  0.00     0.008 C 
ENDBRANCH   7  12
ENDBRANCH   4   5
ENDBRANCH   1   4
BRANCH   1  14
HETATM   14  C8  UNL     1      44.465  14.981   0.251  1.00  0.00     0.236 C 
HETATM   15  C9  UNL     1      43.908  15.673  -0.956  1.00  0.00     0.267 C 
HETATM   16  N2  UNL     1      43.836  14.694  -2.024  1.00  0.00    -0.071 N 
HETATM   17  C10 UNL     1      44.613  13.568  -1.616  1.00  0.00     0.260 C 
ATOM     18  H22 UNL     1      42.879  14.448  -2.277  1.00  0.00     0.277 HD
ATOM     19  H21 UNL     1      44.120  15.068  -2.929  1.00  0.00     0.277 HD
HETATM   20  C11 UNL     1      44.355  13.517  -0.107  1.00  0.00     0.147 C 
BRANCH  20  21
HETATM   21  N3  UNL     1      45.331  12.707   0.529  1.00  0.00    -0.346 N 
HETATM   22  S1  UNL     1      44.849  11.637   1.324  1.00  0.00     0.037 SA
ATOM     23  H3  UNL     1      46.329  12.886   0.419  1.00  0.00     0.169 HD
ENDBRANCH  20  21
ENDBRANCH   1  14
TORSDOF 5
ENDMDL
MODEL 2
REMARK VINA RESULT: -5.714417838      3.630      4.587
REMARK  5 active torsions:
REMARK  status: ('A' for Active; 'I' for Inactive)
REMARK    1  A    between atoms: C2_2  and  C3_3 
REMARK    2  A    between atoms: C6_6  and  C7_7 
REMARK    3  A    between atoms: C7_7  and  N1_8 
REMARK    4  A    between atoms: N1_8  and  C8_11 
REMARK    5  A    between atoms: C11_17  and  N3_18 
ROOT
HETATM    1  N1  UNL     1      46.728  11.231   2.448  1.00  0.00    -0.062 N 
ATOM      2  H11 UNL     1      46.052  10.785   3.068  1.00  0.00     0.278 HD
ATOM      3  H12 UNL     1      47.485  11.320   3.125  1.00  0.00     0.278 HD
ENDROOT
BRANCH   1   4
HETATM    4  C7  UNL     1      46.275  12.503   1.928  1.00  0.00     0.287 C 
BRANCH   4   5
HETATM    5  C6  UNL     1      46.201  13.551   2.956  1.00  0.00     0.038 C 
HETATM    6  C5  UNL     1      45.553  14.904   2.871  1.00  0.00     0.096 C 
HETATM    7  C3  UNL     1      46.225  15.594   4.013  1.00  0.00     0.090 C 
HETATM    8  C4  UNL     1      45.321  16.562   4.737  1.00  0.00     0.049 C 
HETATM    9  O1  UNL     1      46.511  14.531   4.891  1.00  0.00    -0.269 OA
HETATM   10  N4  UNL     1      46.716  13.425   4.125  1.00  0.00    -0.272 N 
ATOM     11  H4  UNL     1      47.218  12.595   4.442  1.00  0.00     0.193 HD
BRANCH   7  12
HETATM   12  C2  UNL     1      47.517  16.281   3.642  1.00  0.00     0.036 C 
HETATM   13  C1  UNL     1      47.901  17.170   4.823  1.00  0.00     0.008 C 
ENDBRANCH   7  12
ENDBRANCH   4   5
ENDBRANCH   1   4
BRANCH   1  14
HETATM   14  C8  UNL     1      47.078  10.412   1.303  1.00  0.00     0.236 C 
HETATM   15  C9  UNL     1      45.939  10.236   0.344  1.00  0.00     0.267 C 
HETATM   16  N2  UNL     1      45.897   8.834  -0.027  1.00  0.00    -0.071 N 
HETATM   17  C10 UNL     1      47.128   8.249   0.396  1.00  0.00     0.260 C 
ATOM     18  H22 UNL     1      45.077   8.348   0.338  1.00  0.00     0.277 HD
ATOM     19  H21 UNL     1      45.705   8.688  -1.018  1.00  0.00     0.277 HD
HETATM   20  C11 UNL     1      47.417   8.995   1.702  1.00  0.00     0.147 C 
BRANCH  20  21
HETATM   21  N3  UNL     1      48.776   8.824   2.071  1.00  0.00    -0.346 N 
HETATM   22  S1  UNL     1      49.082   7.692   2.867  1.00  0.00     0.037 SA
ATOM     23  H3  UNL     1      49.498   9.483   1.779  1.00  0.00     0.169 HD
ENDBRANCH  20  21
ENDBRANCH   1  14
TORSDOF 5
ENDMDL
MODEL 3
REMARK VINA RESULT: -5.703490813      1.735      2.225
REMARK  5 active torsions:
REMARK  status: ('A' for Active; 'I' for Inactive)
REMARK    1  A    between atoms: C2_2  and  C3_3 
REMARK    2  A    between atoms: C6_6  and  C7_7 
REMARK    3  A    between atoms: C7_7  and  N1_8 
REMARK    4  A    between atoms: N1_8  and  C8_11 
REMARK    5  A    between atoms: C11_17  and  N3_18 
ROOT
HETATM    1  N1  UNL     1      44.488  16.660   0.561  1.00  0.00    -0.062 N 
ATOM      2  H11 UNL     1      45.507  16.664   0.587  1.00  0.00     0.278 HD
ATOM      3  H12 UNL     1      44.368  17.540   0.060  1.00  0.00     0.278 HD
ENDROOT
BRANCH   1   4
HETATM    4  C7  UNL     1      43.883  16.665   1.875  1.00  0.00     0.287 C 
BRANCH   4   5
HETATM    5  C6  UNL     1      44.869  16.748   2.962  1.00  0.00     0.038 C 
HETATM    6  C5  UNL     1      46.356  16.539   2.898  1.00  0.00     0.096 C 
HETATM    7  C3  UNL     1      46.655  16.308   4.342  1.00  0.00     0.090 C 
HETATM    8  C4  UNL     1      47.988  16.875   4.770  1.00  0.00     0.049 C 
HETATM    9  O1  UNL     1      45.645  17.044   4.990  1.00  0.00    -0.269 OA
HETATM   10  N4  UNL     1      44.554  17.026   4.175  1.00  0.00    -0.272 N 
ATOM     11  H4  UNL     1      43.602  17.212   4.491  1.00  0.00     0.193 HD
BRANCH   7  12
HETATM   12  C2  UNL     1      46.554  14.863   4.767  1.00  0.00     0.036 C 
HETATM   13  C1  UNL     1      46.826  14.016   3.525  1.00  0.00     0.008 C 
ENDBRANCH   7  12
ENDBRANCH   4   5
ENDBRANCH   1   4
BRANCH   1  14
HETATM   14  C8  UNL     1      43.939  15.520  -0.148  1.00  0.00     0.236 C 
HETATM   15  C9  UNL     1      44.497  14.214   0.331  1.00  0.00     0.267 C 
HETATM   16  N2  UNL     1      44.817  13.422  -0.842  1.00  0.00    -0.071 N 
HETATM   17  C10 UNL     1      44.184  14.047  -1.958  1.00  0.00     0.260 C 
ATOM     18  H22 UNL     1      45.820  13.290  -0.973  1.00  0.00     0.277 HD
ATOM     19  H21 UNL     1      44.567  12.438  -0.741  1.00  0.00     0.277 HD
HETATM   20  C11 UNL     1      44.303  15.535  -1.615  1.00  0.00     0.147 C 
BRANCH  20  21
HETATM   21  N3  UNL     1      43.405  16.293  -2.410  1.00  0.00    -0.346 N 
HETATM   22  S1  UNL     1      42.090  15.782  -2.547  1.00  0.00     0.037 SA
ATOM     23  H3  UNL     1      43.691  17.163  -2.860  1.00  0.00     0.169 HD
ENDBRANCH  20  21
ENDBRANCH   1  14
TORSDOF 5
ENDMDL
MODEL 4
REMARK VINA RESULT: -5.631599500      2.593      3.315
REMARK  5 active torsions:
REMARK  status: ('A' for Active; 'I' for Inactive)
REMARK    1  A    between atoms: C2_2  and  C3_3 
REMARK    2  A    between atoms: C6_6  and  C7_7 
REMARK    3  A    between atoms: C7_7  and  N1_8 
REMARK    4  A    between atoms: N1_8  and  C8_11 
REMARK    5  A    between atoms: C11_17  and  N3_18 
ROOT
HETATM    1  N1  UNL     1      43.737  15.050  -0.524  1.00  0.00    -0.062 N 
ATOM      2  H11 UNL     1      42.928  14.592  -0.103  1.00  0.00     0.278 HD
ATOM      3  H12 UNL     1      44.411  14.304  -0.350  1.00  0.00     0.278 HD
ENDROOT
BRANCH   1   4
HETATM    4  C7  UNL     1      44.088  16.297   0.122  1.00  0.00     0.287 C 
BRANCH   4   5
HETATM    5  C6  UNL     1      44.362  16.145   1.557  1.00  0.00     0.038 C 
HETATM    6  C5  UNL     1      45.241  16.986   2.439  1.00  0.00     0.096 C 
HETATM    7  C3  UNL     1      45.436  16.054   3.589  1.00  0.00     0.090 C 
HETATM    8  C4  UNL     1      45.511  16.761   4.921  1.00  0.00     0.049 C 
HETATM    9  O1  UNL     1      44.252  15.290   3.572  1.00  0.00    -0.269 OA
HETATM   10  N4  UNL     1      43.846  15.214   2.276  1.00  0.00    -0.272 N 
ATOM     11  H4  UNL     1      43.208  14.503   1.918  1.00  0.00     0.193 HD
BRANCH   7  12
HETATM   12  C2  UNL     1      46.617  15.125   3.436  1.00  0.00     0.036 C 
HETATM   13  C1  UNL     1      47.847  15.890   3.922  1.00  0.00     0.008 C 
ENDBRANCH   7  12
ENDBRANCH   4   5
ENDBRANCH   1   4
BRANCH   1  14
HETATM   14  C8  UNL     1      43.559  15.343  -1.933  1.00  0.00     0.236 C 
HETATM   15  C9  UNL     1      44.698  16.127  -2.513  1.00  0.00     0.267 C 
HETATM   16  N2  UNL     1      44.127  17.184  -3.326  1.00  0.00    -0.071 N 
HETATM   17  C10 UNL     1      42.748  16.871  -3.518  1.00  0.00     0.260 C 
ATOM     18  H22 UNL     1      44.274  18.114  -2.933  1.00  0.00     0.277 HD
ATOM     19  H21 UNL     1      44.629  17.330  -4.201  1.00  0.00     0.277 HD
HETATM   20  C11 UNL     1      42.363  16.234  -2.179  1.00  0.00     0.147 C 
BRANCH  20  21
HETATM   21  N3  UNL     1      41.145  15.519  -2.310  1.00  0.00    -0.346 N 
HETATM   22  S1  UNL     1      40.080  16.190  -2.960  1.00  0.00     0.037 SA
ATOM     23  H3  UNL     1      41.041  14.568  -1.955  1.00  0.00     0.169 HD
ENDBRANCH  20  21
ENDBRANCH   1  14
TORSDOF 5
ENDMDL
MODEL 5
REMARK VINA RESULT: -5.627069520      1.110      1.194
REMARK  5 active torsions:
REMARK  status: ('A' for Active; 'I' for Inactive)
REMARK    1  A    between atoms: C2_2  and  C3_3 
REMARK    2  A    between atoms: C6_6  and  C7_7 
REMARK    3  A    between atoms: C7_7  and  N1_8 
REMARK    4  A    between atoms: N1_8  and  C8_11 
REMARK    5  A    between atoms: C11_17  and  N3_18 
ROOT
HETATM    1  N1  UNL     1      43.961  14.474   1.584  1.00  0.00    -0.062 N 
ATOM      2  H11 UNL     1      42.961  14.327   1.444  1.00  0.00     0.278 HD
ATOM      3  H12 UNL     1      44.013  14.105   2.534  1.00  0.00     0.278 HD
ENDROOT
BRANCH   1   4
HETATM    4  C7  UNL     1      44.353  15.863   1.490  1.00  0.00     0.287 C 
BRANCH   4   5
HETATM    5  C6  UNL     1      45.053  16.347   2.688  1.00  0.00     0.038 C 
HETATM    6  C5  UNL     1      46.520  16.274   3.010  1.00  0.00     0.096 C 
HETATM    7  C3  UNL     1      46.479  16.493   4.487  1.00  0.00     0.090 C 
HETATM    8  C4  UNL     1      47.656  17.286   5.002  1.00  0.00     0.049 C 
HETATM    9  O1  UNL     1      45.323  17.282   4.651  1.00  0.00    -0.269 OA
HETATM   10  N4  UNL     1      44.456  16.927   3.664  1.00  0.00    -0.272 N 
ATOM     11  H4  UNL     1      43.451  17.102   3.697  1.00  0.00     0.193 HD
BRANCH   7  12
HETATM   12  C2  UNL     1      46.323  15.226   5.293  1.00  0.00     0.036 C 
HETATM   13  C1  UNL     1      46.835  14.081   4.420  1.00  0.00     0.008 C 
ENDBRANCH   7  12
ENDBRANCH   4   5
ENDBRANCH   1   4
BRANCH   1  14
HETATM   14  C8  UNL     1      44.783  13.741   0.641  1.00  0.00     0.236 C 
HETATM   15  C9  UNL     1      44.505  14.113  -0.784  1.00  0.00     0.267 C 
HETATM   16  N2  UNL     1      44.428  12.882  -1.547  1.00  0.00    -0.071 N 
HETATM   17  C10 UNL     1      44.961  11.843  -0.726  1.00  0.00     0.260 C 
ATOM     18  H22 UNL     1      43.487  12.680  -1.886  1.00  0.00     0.277 HD
ATOM     19  H21 UNL     1      44.883  12.946  -2.457  1.00  0.00     0.277 HD
HETATM   20  C11 UNL     1      44.499  12.257   0.674  1.00  0.00     0.147 C 
BRANCH  20  21
HETATM   21  N3  UNL     1      45.245  11.563   1.660  1.00  0.00    -0.346 N 
HETATM   22  S1  UNL     1      46.629  11.389   1.405  1.00  0.00     0.037 SA
ATOM     23  H3  UNL     1      44.809  11.207   2.510  1.00  0.00     0.169 HD
ENDBRANCH  20  21
ENDBRANCH   1  14
TORSDOF 5
ENDMDL
