MODEL 1
REMARK VINA RESULT: -8.482268298      0.000      0.000
REMARK  13 active torsions:
REMARK  status: ('A' for Active; 'I' for Inactive)
REMARK    1  A    between atoms: C5_5  and  C6_6 
REMARK    2  A    between atoms: C6_6  and  O1_7 
REMARK    3  A    between atoms: O1_7  and  C7_8 
REMARK    4  A    between atoms: C7_8  and  C8_9 
REMARK    5  A    between atoms: C8_9  and  C10_12 
REMARK    6  A    between atoms: C15_17  and  C16_18 
REMARK    7  A    between atoms: C19_21  and  C20_22 
REMARK    8  A    between atoms: C23_25  and  C24_26 
REMARK    9  A    between atoms: C24_26  and  C26_28 
REMARK   10  A    between atoms: C26_28  and  O2_29 
REMARK   11  A    between atoms: C26_28  and  C27_31 
REMARK   12  A    between atoms: C27_31  and  O3_33 
REMARK   13  A    between atoms: C29_37  and  O6_38 
ROOT
HETATM    1  C8  UNL     1      45.818  12.376   1.176  1.00  0.00     0.121 C 
HETATM    2  C9  UNL     1      46.556  12.650   2.463  1.00  0.00     0.066 C 
HETATM    3  N1  UNL     1      47.108  12.892   3.476  1.00  0.00    -0.197 NA
ENDROOT
BRANCH   1   4
HETATM    4  C7  UNL     1      44.497  13.121   1.345  1.00  0.00     0.187 C 
BRANCH   4   5
HETATM    5  O1  UNL     1      44.712  14.449   1.112  1.00  0.00    -0.383 OA
BRANCH   5   6
HETATM    6  C6  UNL     1      44.123  15.330   1.978  1.00  0.00     0.232 C 
BRANCH   6   7
HETATM    7  C5  UNL     1      45.066  15.857   3.007  1.00  0.00     0.076 A 
HETATM    8  C4  UNL     1      44.671  16.331   4.233  1.00  0.00     0.037 A 
HETATM    9  C3  UNL     1      45.829  16.716   4.874  1.00  0.00     0.035 A 
HETATM   10  C2  UNL     1      46.888  16.468   4.026  1.00  0.00     0.049 A 
HETATM   11  C1  UNL     1      48.344  16.728   4.293  1.00  0.00     0.076 C 
HETATM   12  O7  UNL     1      46.368  15.960   2.940  1.00  0.00    -0.318 OA
ENDBRANCH   6   7
ENDBRANCH   5   6
ENDBRANCH   4   5
ENDBRANCH   1   4
BRANCH   1  13
HETATM   13  C10 UNL     1      45.669  10.905   1.082  1.00  0.00     0.018 C 
HETATM   14  C11 UNL     1      44.553  10.473   0.147  1.00  0.00     0.011 C 
HETATM   15  C12 UNL     1      44.857   8.982  -0.043  1.00  0.00     0.035 C 
HETATM   16  C13 UNL     1      46.277   8.819   0.340  1.00  0.00    -0.074 C 
HETATM   17  C14 UNL     1      47.050   7.797   0.631  1.00  0.00    -0.013 C 
HETATM   18  C31 UNL     1      46.831  10.203   0.368  1.00  0.00    -0.014 C 
HETATM   19  C15 UNL     1      48.470   7.851   0.993  1.00  0.00     0.066 C 
HETATM   20  C29 UNL     1      49.052   9.178   0.580  1.00  0.00     0.129 C 
HETATM   21  C30 UNL     1      48.125  10.274   1.089  1.00  0.00     0.046 C 
HETATM   22  C32 UNL     1      46.940  10.626  -1.084  1.00  0.00     0.020 C 
BRANCH  19  23
HETATM   23  C16 UNL     1      48.769   7.613   2.437  1.00  0.00     0.132 C 
HETATM   24  C17 UNL     1      47.942   6.483   3.019  1.00  0.00     0.035 C 
HETATM   25  C18 UNL     1      48.749   5.244   2.806  1.00  0.00     0.037 C 
HETATM   26  C19 UNL     1      50.038   5.773   2.239  1.00  0.00     0.151 C 
HETATM   27  O5  UNL     1      50.089   7.119   2.523  1.00  0.00    -0.377 OA
BRANCH  26  28
HETATM   28  C20 UNL     1      51.246   5.077   2.832  1.00  0.00     0.151 C 
HETATM   29  C21 UNL     1      51.955   4.390   1.674  1.00  0.00     0.037 C 
HETATM   30  C22 UNL     1      52.811   3.389   2.470  1.00  0.00     0.035 C 
HETATM   31  C23 UNL     1      51.935   3.134   3.665  1.00  0.00     0.128 C 
HETATM   32  O4  UNL     1      50.893   4.026   3.644  1.00  0.00    -0.378 OA
BRANCH  31  33
HETATM   33  C24 UNL     1      52.688   3.281   4.987  1.00  0.00     0.042 C 
HETATM   34  C25 UNL     1      53.846   4.199   4.691  1.00  0.00     0.015 C 
BRANCH  33  35
HETATM   35  C26 UNL     1      51.790   3.780   6.067  1.00  0.00     0.152 C 
BRANCH  35  36
HETATM   36  O2  UNL     1      51.850   5.143   6.305  1.00  0.00    -0.393 OA
ATOM     37  H2  UNL     1      51.563   5.418   7.168  1.00  0.00     0.210 HD
ENDBRANCH  35  36
BRANCH  35  38
HETATM   38  C27 UNL     1      51.976   3.025   7.337  1.00  0.00     0.143 C 
HETATM   39  C28 UNL     1      51.728   3.845   8.595  1.00  0.00     0.042 C 
BRANCH  38  40
HETATM   40  O3  UNL     1      51.025   1.966   7.402  1.00  0.00    -0.393 OA
ATOM     41  H3  UNL     1      51.440   1.191   7.761  1.00  0.00     0.210 HD
ENDBRANCH  38  40
ENDBRANCH  35  38
ENDBRANCH  33  35
ENDBRANCH  31  33
ENDBRANCH  26  28
ENDBRANCH  19  23
BRANCH  20  42
HETATM   42  O6  UNL     1      50.307   9.418   1.126  1.00  0.00    -0.395 OA
ATOM     43  H6  UNL     1      51.004   8.960   0.672  1.00  0.00     0.210 HD
ENDBRANCH  20  42
ENDBRANCH   1  13
TORSDOF 13
ENDMDL
MODEL 2
REMARK VINA RESULT: -8.363752022      0.958      1.777
REMARK  13 active torsions:
REMARK  status: ('A' for Active; 'I' for Inactive)
REMARK    1  A    between atoms: C5_5  and  C6_6 
REMARK    2  A    between atoms: C6_6  and  O1_7 
REMARK    3  A    between atoms: O1_7  and  C7_8 
REMARK    4  A    between atoms: C7_8  and  C8_9 
REMARK    5  A    between atoms: C8_9  and  C10_12 
REMARK    6  A    between atoms: C15_17  and  C16_18 
REMARK    7  A    between atoms: C19_21  and  C20_22 
REMARK    8  A    between atoms: C23_25  and  C24_26 
REMARK    9  A    between atoms: C24_26  and  C26_28 
REMARK   10  A    between atoms: C26_28  and  O2_29 
REMARK   11  A    between atoms: C26_28  and  C27_31 
REMARK   12  A    between atoms: C27_31  and  O3_33 
REMARK   13  A    between atoms: C29_37  and  O6_38 
ROOT
HETATM    1  C8  UNL     1      45.899  12.223   1.045  1.00  0.00     0.121 C 
HETATM    2  C9  UNL     1      46.595  12.560   2.340  1.00  0.00     0.066 C 
HETATM    3  N1  UNL     1      47.114  12.854   3.357  1.00  0.00    -0.197 NA
ENDROOT
BRANCH   1   4
HETATM    4  C7  UNL     1      44.587  13.000   1.120  1.00  0.00     0.187 C 
BRANCH   4   5
HETATM    5  O1  UNL     1      44.868  14.335   1.070  1.00  0.00    -0.383 OA
BRANCH   5   6
HETATM    6  C6  UNL     1      44.184  15.142   1.938  1.00  0.00     0.232 C 
BRANCH   6   7
HETATM    7  C5  UNL     1      45.058  15.746   2.986  1.00  0.00     0.076 A 
HETATM    8  C4  UNL     1      44.585  16.284   4.157  1.00  0.00     0.037 A 
HETATM    9  C3  UNL     1      45.698  16.727   4.839  1.00  0.00     0.035 A 
HETATM   10  C2  UNL     1      46.808  16.449   4.069  1.00  0.00     0.049 A 
HETATM   11  C1  UNL     1      48.242  16.750   4.402  1.00  0.00     0.076 C 
HETATM   12  O7  UNL     1      46.360  15.868   2.987  1.00  0.00    -0.318 OA
ENDBRANCH   6   7
ENDBRANCH   5   6
ENDBRANCH   4   5
ENDBRANCH   1   4
BRANCH   1  13
HETATM   13  C10 UNL     1      45.724  10.752   1.033  1.00  0.00     0.018 C 
HETATM   14  C11 UNL     1      44.666  10.281   0.051  1.00  0.00     0.011 C 
HETATM   15  C12 UNL     1      44.950   8.776  -0.024  1.00  0.00     0.035 C 
HETATM   16  C13 UNL     1      46.336   8.613   0.468  1.00  0.00    -0.074 C 
HETATM   17  C14 UNL     1      47.064   7.597   0.876  1.00  0.00    -0.013 C 
HETATM   18  C31 UNL     1      46.917   9.986   0.448  1.00  0.00    -0.014 C 
HETATM   19  C15 UNL     1      48.456   7.650   1.333  1.00  0.00     0.066 C 
HETATM   20  C29 UNL     1      49.094   8.937   0.880  1.00  0.00     0.129 C 
HETATM   21  C30 UNL     1      48.159  10.080   1.253  1.00  0.00     0.046 C 
HETATM   22  C32 UNL     1      47.136  10.313  -1.016  1.00  0.00     0.020 C 
BRANCH  19  23
HETATM   23  C16 UNL     1      48.649   7.499   2.807  1.00  0.00     0.132 C 
HETATM   24  C17 UNL     1      47.611   6.590   3.435  1.00  0.00     0.035 C 
HETATM   25  C18 UNL     1      48.191   5.215   3.373  1.00  0.00     0.037 C 
HETATM   26  C19 UNL     1      49.576   5.456   2.838  1.00  0.00     0.151 C 
HETATM   27  O5  UNL     1      49.855   6.793   3.008  1.00  0.00    -0.377 OA
BRANCH  26  28
HETATM   28  C20 UNL     1      50.615   4.618   3.555  1.00  0.00     0.151 C 
HETATM   29  C21 UNL     1      50.428   3.191   3.061  1.00  0.00     0.037 C 
HETATM   30  C22 UNL     1      51.172   2.445   4.183  1.00  0.00     0.035 C 
HETATM   31  C23 UNL     1      50.931   3.353   5.355  1.00  0.00     0.128 C 
HETATM   32  O4  UNL     1      50.359   4.515   4.900  1.00  0.00    -0.378 OA
BRANCH  31  33
HETATM   33  C24 UNL     1      52.216   3.694   6.110  1.00  0.00     0.042 C 
HETATM   34  C25 UNL     1      52.039   3.112   7.489  1.00  0.00     0.015 C 
BRANCH  33  35
HETATM   35  C26 UNL     1      53.416   3.178   5.392  1.00  0.00     0.152 C 
BRANCH  35  36
HETATM   36  O2  UNL     1      54.210   2.305   6.116  1.00  0.00    -0.393 OA
ATOM     37  H2  UNL     1      55.136   2.515   6.130  1.00  0.00     0.210 HD
ENDBRANCH  35  36
BRANCH  35  38
HETATM   38  C27 UNL     1      54.241   4.281   4.827  1.00  0.00     0.143 C 
HETATM   39  C28 UNL     1      54.280   4.318   3.306  1.00  0.00     0.042 C 
BRANCH  38  40
HETATM   40  O3  UNL     1      53.680   5.534   5.205  1.00  0.00    -0.393 OA
ATOM     41  H3  UNL     1      53.067   5.402   5.919  1.00  0.00     0.210 HD
ENDBRANCH  38  40
ENDBRANCH  35  38
ENDBRANCH  33  35
ENDBRANCH  31  33
ENDBRANCH  26  28
ENDBRANCH  19  23
BRANCH  20  42
HETATM   42  O6  UNL     1      50.313   9.189   1.498  1.00  0.00    -0.395 OA
ATOM     43  H6  UNL     1      50.703  10.013   1.232  1.00  0.00     0.210 HD
ENDBRANCH  20  42
ENDBRANCH   1  13
TORSDOF 13
ENDMDL
MODEL 3
REMARK VINA RESULT: -8.241678532      2.057      3.469
REMARK  13 active torsions:
REMARK  status: ('A' for Active; 'I' for Inactive)
REMARK    1  A    between atoms: C5_5  and  C6_6 
REMARK    2  A    between atoms: C6_6  and  O1_7 
REMARK    3  A    between atoms: O1_7  and  C7_8 
REMARK    4  A    between atoms: C7_8  and  C8_9 
REMARK    5  A    between atoms: C8_9  and  C10_12 
REMARK    6  A    between atoms: C15_17  and  C16_18 
REMARK    7  A    between atoms: C19_21  and  C20_22 
REMARK    8  A    between atoms: C23_25  and  C24_26 
REMARK    9  A    between atoms: C24_26  and  C26_28 
REMARK   10  A    between atoms: C26_28  and  O2_29 
REMARK   11  A    between atoms: C26_28  and  C27_31 
REMARK   12  A    between atoms: C27_31  and  O3_33 
REMARK   13  A    between atoms: C29_37  and  O6_38 
ROOT
HETATM    1  C8  UNL     1      44.894   9.327  -0.611  1.00  0.00     0.121 C 
HETATM    2  C9  UNL     1      43.654   8.585  -1.041  1.00  0.00     0.066 C 
HETATM    3  N1  UNL     1      42.670   8.039  -1.392  1.00  0.00    -0.197 NA
ENDROOT
BRANCH   1   4
HETATM    4  C7  UNL     1      44.835  10.632  -1.401  1.00  0.00     0.187 C 
BRANCH   4   5
HETATM    5  O1  UNL     1      44.846  11.675  -0.521  1.00  0.00    -0.383 OA
BRANCH   5   6
HETATM    6  C6  UNL     1      44.649  11.371   0.799  1.00  0.00     0.232 C 
BRANCH   6   7
HETATM    7  C5  UNL     1      45.415  12.257   1.723  1.00  0.00     0.076 A 
HETATM    8  C4  UNL     1      46.447  11.822   2.517  1.00  0.00     0.037 A 
HETATM    9  C3  UNL     1      46.879  12.934   3.208  1.00  0.00     0.035 A 
HETATM   10  C2  UNL     1      46.104  14.006   2.818  1.00  0.00     0.049 A 
HETATM   11  C1  UNL     1      46.207  15.424   3.303  1.00  0.00     0.076 C 
HETATM   12  O7  UNL     1      45.258  13.537   1.938  1.00  0.00    -0.318 OA
ENDBRANCH   6   7
ENDBRANCH   5   6
ENDBRANCH   4   5
ENDBRANCH   1   4
BRANCH   1  13
HETATM   13  C10 UNL     1      46.044   8.463  -0.966  1.00  0.00     0.018 C 
HETATM   14  C11 UNL     1      46.662   8.808  -2.309  1.00  0.00     0.011 C 
HETATM   15  C12 UNL     1      47.994   8.050  -2.250  1.00  0.00     0.035 C 
HETATM   16  C13 UNL     1      48.233   7.788  -0.814  1.00  0.00    -0.074 C 
HETATM   17  C14 UNL     1      49.033   6.997  -0.133  1.00  0.00    -0.013 C 
HETATM   18  C31 UNL     1      47.287   8.687  -0.094  1.00  0.00    -0.014 C 
HETATM   19  C15 UNL     1      49.117   6.888   1.327  1.00  0.00     0.066 C 
HETATM   20  C29 UNL     1      48.482   8.095   1.967  1.00  0.00     0.129 C 
HETATM   21  C30 UNL     1      47.116   8.299   1.327  1.00  0.00     0.046 C 
HETATM   22  C32 UNL     1      47.849  10.085  -0.260  1.00  0.00     0.020 C 
BRANCH  19  23
HETATM   23  C16 UNL     1      48.516   5.651   1.909  1.00  0.00     0.132 C 
HETATM   24  C17 UNL     1      48.846   4.412   1.099  1.00  0.00     0.035 C 
HETATM   25  C18 UNL     1      50.117   3.881   1.676  1.00  0.00     0.037 C 
HETATM   26  C19 UNL     1      50.350   4.777   2.862  1.00  0.00     0.151 C 
HETATM   27  O5  UNL     1      49.159   5.405   3.143  1.00  0.00    -0.377 OA
BRANCH  26  28
HETATM   28  C20 UNL     1      50.821   4.001   4.075  1.00  0.00     0.151 C 
HETATM   29  C21 UNL     1      49.764   2.939   4.340  1.00  0.00     0.037 C 
HETATM   30  C22 UNL     1      50.124   2.595   5.796  1.00  0.00     0.035 C 
HETATM   31  C23 UNL     1      50.656   3.911   6.290  1.00  0.00     0.128 C 
HETATM   32  O4  UNL     1      50.791   4.759   5.220  1.00  0.00    -0.378 OA
BRANCH  31  33
HETATM   33  C24 UNL     1      52.010   3.772   6.987  1.00  0.00     0.042 C 
HETATM   34  C25 UNL     1      51.697   3.687   8.459  1.00  0.00     0.015 C 
BRANCH  33  35
HETATM   35  C26 UNL     1      52.767   2.598   6.468  1.00  0.00     0.152 C 
BRANCH  35  36
HETATM   36  O2  UNL     1      53.115   1.651   7.416  1.00  0.00    -0.393 OA
ATOM     37  H2  UNL     1      53.991   1.737   7.773  1.00  0.00     0.210 HD
ENDBRANCH  35  36
BRANCH  35  38
HETATM   38  C27 UNL     1      53.965   3.012   5.686  1.00  0.00     0.143 C 
HETATM   39  C28 UNL     1      53.946   2.569   4.230  1.00  0.00     0.042 C 
BRANCH  38  40
HETATM   40  O3  UNL     1      54.026   4.434   5.631  1.00  0.00    -0.393 OA
ATOM     41  H3  UNL     1      54.758   4.697   5.086  1.00  0.00     0.210 HD
ENDBRANCH  38  40
ENDBRANCH  35  38
ENDBRANCH  33  35
ENDBRANCH  31  33
ENDBRANCH  26  28
ENDBRANCH  19  23
BRANCH  20  42
HETATM   42  O6  UNL     1      48.276   7.943   3.332  1.00  0.00    -0.395 OA
ATOM     43  H6  UNL     1      48.220   7.034   3.602  1.00  0.00     0.210 HD
ENDBRANCH  20  42
ENDBRANCH   1  13
TORSDOF 13
ENDMDL
MODEL 4
REMARK VINA RESULT: -8.177065645      2.044      3.155
REMARK  13 active torsions:
REMARK  status: ('A' for Active; 'I' for Inactive)
REMARK    1  A    between atoms: C5_5  and  C6_6 
REMARK    2  A    between atoms: C6_6  and  O1_7 
REMARK    3  A    between atoms: O1_7  and  C7_8 
REMARK    4  A    between atoms: C7_8  and  C8_9 
REMARK    5  A    between atoms: C8_9  and  C10_12 
REMARK    6  A    between atoms: C15_17  and  C16_18 
REMARK    7  A    between atoms: C19_21  and  C20_22 
REMARK    8  A    between atoms: C23_25  and  C24_26 
REMARK    9  A    between atoms: C24_26  and  C26_28 
REMARK   10  A    between atoms: C26_28  and  O2_29 
REMARK   11  A    between atoms: C26_28  and  C27_31 
REMARK   12  A    between atoms: C27_31  and  O3_33 
REMARK   13  A    between atoms: C29_37  and  O6_38 
ROOT
HETATM    1  C8  UNL     1      44.972   9.754  -0.491  1.00  0.00     0.121 C 
HETATM    2  C9  UNL     1      43.863   8.798  -0.852  1.00  0.00     0.066 C 
HETATM    3  N1  UNL     1      42.976   8.081  -1.149  1.00  0.00    -0.197 NA
ENDROOT
BRANCH   1   4
HETATM    4  C7  UNL     1      44.673  10.996  -1.326  1.00  0.00     0.187 C 
BRANCH   4   5
HETATM    5  O1  UNL     1      44.863  12.101  -0.546  1.00  0.00    -0.383 OA
BRANCH   5   6
HETATM    6  C6  UNL     1      44.528  11.988   0.776  1.00  0.00     0.232 C 
BRANCH   6   7
HETATM    7  C5  UNL     1      45.000  13.139   1.599  1.00  0.00     0.076 A 
HETATM    8  C4  UNL     1      44.449  14.395   1.543  1.00  0.00     0.037 A 
HETATM    9  C3  UNL     1      45.161  15.155   2.445  1.00  0.00     0.035 A 
HETATM   10  C2  UNL     1      46.119  14.347   3.020  1.00  0.00     0.049 A 
HETATM   11  C1  UNL     1      47.130  14.738   4.061  1.00  0.00     0.076 C 
HETATM   12  O7  UNL     1      45.969  13.168   2.476  1.00  0.00    -0.318 OA
ENDBRANCH   6   7
ENDBRANCH   5   6
ENDBRANCH   4   5
ENDBRANCH   1   4
BRANCH   1  13
HETATM   13  C10 UNL     1      46.241   9.080  -0.854  1.00  0.00     0.018 C 
HETATM   14  C11 UNL     1      47.008   9.796  -1.951  1.00  0.00     0.011 C 
HETATM   15  C12 UNL     1      48.386   9.128  -1.863  1.00  0.00     0.035 C 
HETATM   16  C13 UNL     1      48.441   8.518  -0.516  1.00  0.00    -0.074 C 
HETATM   17  C14 UNL     1      49.208   7.626   0.071  1.00  0.00    -0.013 C 
HETATM   18  C31 UNL     1      47.317   9.144   0.238  1.00  0.00    -0.014 C 
HETATM   19  C15 UNL     1      49.093   7.150   1.452  1.00  0.00     0.066 C 
HETATM   20  C29 UNL     1      48.257   8.111   2.256  1.00  0.00     0.129 C 
HETATM   21  C30 UNL     1      46.983   8.393   1.472  1.00  0.00     0.046 C 
HETATM   22  C32 UNL     1      47.757  10.568   0.515  1.00  0.00     0.020 C 
BRANCH  19  23
HETATM   23  C16 UNL     1      48.539   5.771   1.606  1.00  0.00     0.132 C 
HETATM   24  C17 UNL     1      49.101   4.805   0.581  1.00  0.00     0.035 C 
HETATM   25  C18 UNL     1      50.323   4.219   1.210  1.00  0.00     0.037 C 
HETATM   26  C19 UNL     1      50.295   4.790   2.601  1.00  0.00     0.151 C 
HETATM   27  O5  UNL     1      49.019   5.253   2.829  1.00  0.00    -0.377 OA
BRANCH  26  28
HETATM   28  C20 UNL     1      50.661   3.756   3.646  1.00  0.00     0.151 C 
HETATM   29  C21 UNL     1      50.700   2.416   2.926  1.00  0.00     0.037 C 
HETATM   30  C22 UNL     1      50.599   1.481   4.145  1.00  0.00     0.035 C 
HETATM   31  C23 UNL     1      49.782   2.314   5.092  1.00  0.00     0.128 C 
HETATM   32  O4  UNL     1      49.664   3.580   4.574  1.00  0.00    -0.378 OA
BRANCH  31  33
HETATM   33  C24 UNL     1      50.407   2.404   6.484  1.00  0.00     0.042 C 
HETATM   34  C25 UNL     1      49.707   1.355   7.308  1.00  0.00     0.015 C 
BRANCH  33  35
HETATM   35  C26 UNL     1      51.886   2.229   6.424  1.00  0.00     0.152 C 
BRANCH  35  36
HETATM   36  O2  UNL     1      52.387   1.164   7.153  1.00  0.00    -0.393 OA
ATOM     37  H2  UNL     1      51.749   0.695   7.678  1.00  0.00     0.210 HD
ENDBRANCH  35  36
BRANCH  35  38
HETATM   38  C27 UNL     1      52.608   3.482   6.777  1.00  0.00     0.143 C 
HETATM   39  C28 UNL     1      53.563   3.980   5.701  1.00  0.00     0.042 C 
BRANCH  38  40
HETATM   40  O3  UNL     1      51.668   4.539   6.945  1.00  0.00    -0.393 OA
ATOM     41  H3  UNL     1      52.001   5.325   6.528  1.00  0.00     0.210 HD
ENDBRANCH  38  40
ENDBRANCH  35  38
ENDBRANCH  33  35
ENDBRANCH  31  33
ENDBRANCH  26  28
ENDBRANCH  19  23
BRANCH  20  42
HETATM   42  O6  UNL     1      47.873   7.600   3.490  1.00  0.00    -0.395 OA
ATOM     43  H6  UNL     1      48.602   7.476   4.086  1.00  0.00     0.210 HD
ENDBRANCH  20  42
ENDBRANCH   1  13
TORSDOF 13
ENDMDL
MODEL 5
REMARK VINA RESULT: -8.170695441      1.968      3.043
REMARK  13 active torsions:
REMARK  status: ('A' for Active; 'I' for Inactive)
REMARK    1  A    between atoms: C5_5  and  C6_6 
REMARK    2  A    between atoms: C6_6  and  O1_7 
REMARK    3  A    between atoms: O1_7  and  C7_8 
REMARK    4  A    between atoms: C7_8  and  C8_9 
REMARK    5  A    between atoms: C8_9  and  C10_12 
REMARK    6  A    between atoms: C15_17  and  C16_18 
REMARK    7  A    between atoms: C19_21  and  C20_22 
REMARK    8  A    between atoms: C23_25  and  C24_26 
REMARK    9  A    between atoms: C24_26  and  C26_28 
REMARK   10  A    between atoms: C26_28  and  O2_29 
REMARK   11  A    between atoms: C26_28  and  C27_31 
REMARK   12  A    between atoms: C27_31  and  O3_33 
REMARK   13  A    between atoms: C29_37  and  O6_38 
ROOT
HETATM    1  C8  UNL     1      45.082   9.561  -0.467  1.00  0.00     0.121 C 
HETATM    2  C9  UNL     1      43.900   8.689  -0.808  1.00  0.00     0.066 C 
HETATM    3  N1  UNL     1      42.957   8.038  -1.088  1.00  0.00    -0.197 NA
ENDROOT
BRANCH   1   4
HETATM    4  C7  UNL     1      44.825  10.848  -1.246  1.00  0.00     0.187 C 
BRANCH   4   5
HETATM    5  O1  UNL     1      44.873  11.900  -0.378  1.00  0.00    -0.383 OA
BRANCH   5   6
HETATM    6  C6  UNL     1      44.673  11.617   0.946  1.00  0.00     0.232 C 
BRANCH   6   7
HETATM    7  C5  UNL     1      45.431  12.522   1.858  1.00  0.00     0.076 A 
HETATM    8  C4  UNL     1      46.449  12.102   2.677  1.00  0.00     0.037 A 
HETATM    9  C3  UNL     1      46.879  13.228   3.345  1.00  0.00     0.035 A 
HETATM   10  C2  UNL     1      46.116  14.294   2.918  1.00  0.00     0.049 A 
HETATM   11  C1  UNL     1      46.221  15.724   3.367  1.00  0.00     0.076 C 
HETATM   12  O7  UNL     1      45.280  13.808   2.038  1.00  0.00    -0.318 OA
ENDBRANCH   6   7
ENDBRANCH   5   6
ENDBRANCH   4   5
ENDBRANCH   1   4
BRANCH   1  13
HETATM   13  C10 UNL     1      46.289   8.824  -0.909  1.00  0.00     0.018 C 
HETATM   14  C11 UNL     1      46.810   9.280  -2.260  1.00  0.00     0.011 C 
HETATM   15  C12 UNL     1      48.207   8.648  -2.291  1.00  0.00     0.035 C 
HETATM   16  C13 UNL     1      48.535   8.351  -0.880  1.00  0.00    -0.074 C 
HETATM   17  C14 UNL     1      49.434   7.612  -0.269  1.00  0.00    -0.013 C 
HETATM   18  C31 UNL     1      47.544   9.128  -0.081  1.00  0.00    -0.014 C 
HETATM   19  C15 UNL     1      49.596   7.452   1.179  1.00  0.00     0.066 C 
HETATM   20  C29 UNL     1      48.883   8.567   1.899  1.00  0.00     0.129 C 
HETATM   21  C30 UNL     1      47.476   8.668   1.327  1.00  0.00     0.046 C 
HETATM   22  C32 UNL     1      47.967  10.578  -0.208  1.00  0.00     0.020 C 
BRANCH  19  23
HETATM   23  C16 UNL     1      49.139   6.141   1.731  1.00  0.00     0.132 C 
HETATM   24  C17 UNL     1      49.516   4.976   0.837  1.00  0.00     0.035 C 
HETATM   25  C18 UNL     1      50.862   4.530   1.308  1.00  0.00     0.037 C 
HETATM   26  C19 UNL     1      51.097   5.385   2.523  1.00  0.00     0.151 C 
HETATM   27  O5  UNL     1      49.878   5.893   2.908  1.00  0.00    -0.377 OA
BRANCH  26  28
HETATM   28  C20 UNL     1      51.708   4.595   3.662  1.00  0.00     0.151 C 
HETATM   29  C21 UNL     1      53.003   5.306   4.028  1.00  0.00     0.037 C 
HETATM   30  C22 UNL     1      53.695   4.170   4.804  1.00  0.00     0.035 C 
HETATM   31  C23 UNL     1      53.144   2.957   4.108  1.00  0.00     0.128 C 
HETATM   32  O4  UNL     1      52.140   3.355   3.260  1.00  0.00    -0.378 OA
BRANCH  31  33
HETATM   33  C24 UNL     1      52.587   1.921   5.085  1.00  0.00     0.042 C 
HETATM   34  C25 UNL     1      53.391   0.669   4.845  1.00  0.00     0.015 C 
BRANCH  33  35
HETATM   35  C26 UNL     1      52.654   2.415   6.490  1.00  0.00     0.152 C 
BRANCH  35  36
HETATM   36  O2  UNL     1      53.326   1.591   7.376  1.00  0.00    -0.393 OA
ATOM     37  H2  UNL     1      54.185   1.895   7.643  1.00  0.00     0.210 HD
ENDBRANCH  35  36
BRANCH  35  38
HETATM   38  C27 UNL     1      51.306   2.756   7.023  1.00  0.00     0.143 C 
HETATM   39  C28 UNL     1      50.310   1.605   6.993  1.00  0.00     0.042 C 
BRANCH  38  40
HETATM   40  O3  UNL     1      51.415   3.105   8.399  1.00  0.00    -0.393 OA
ATOM     41  H3  UNL     1      51.167   4.015   8.515  1.00  0.00     0.210 HD
ENDBRANCH  38  40
ENDBRANCH  35  38
ENDBRANCH  33  35
ENDBRANCH  31  33
ENDBRANCH  26  28
ENDBRANCH  19  23
BRANCH  20  42
HETATM   42  O6  UNL     1      48.755   8.341   3.264  1.00  0.00    -0.395 OA
ATOM     43  H6  UNL     1      49.578   8.416   3.733  1.00  0.00     0.210 HD
ENDBRANCH  20  42
ENDBRANCH   1  13
TORSDOF 13
ENDMDL
