MODEL 1
REMARK VINA RESULT: -6.393159283      0.000      0.000
REMARK  12 active torsions:
REMARK  status: ('A' for Active; 'I' for Inactive)
REMARK    1  A    between atoms: C2_2  and  C4_4 
REMARK    2  A    between atoms: C5_5  and  C6_6 
REMARK    3  A    between atoms: C11_11  and  O1_12 
REMARK    4  A    between atoms: C16_19  and  C17_20 
REMARK    5  A    between atoms: C17_20  and  C18_21 
REMARK    6  A    between atoms: C18_21  and  C19_22 
REMARK    7  A    between atoms: C24_28  and  O4_30 
REMARK    8  A    between atoms: C26_32  and  C27_33 
REMARK    9  A    between atoms: C27_33  and  N1_34 
REMARK   10  A    between atoms: C27_33  and  O7_40 
REMARK       I    between atoms: N1_34  and  C28_36 
REMARK   11  A    between atoms: C28_36  and  O6_38 
REMARK   12  A    between atoms: O7_40  and  C30_41 
ROOT
HETATM    1  C6  UNL     1      49.937   4.782   1.351  1.00  0.00    -0.037 C 
HETATM    2  C7  UNL     1      48.928   4.401   0.267  1.00  0.00     0.037 C 
HETATM    3  C8  UNL     1      49.355   3.010  -0.223  1.00  0.00     0.019 C 
HETATM    4  C9  UNL     1      48.613   5.227  -0.860  1.00  0.00    -0.019 C 
HETATM    5  C10 UNL     1      49.125   5.837  -1.899  1.00  0.00     0.001 C 
HETATM    6  C11 UNL     1      48.724   6.692  -3.037  1.00  0.00     0.141 C 
HETATM    7  C12 UNL     1      48.162   8.069  -2.728  1.00  0.00     0.047 C 
HETATM    8  C13 UNL     1      49.094   8.985  -1.991  1.00  0.00     0.057 C 
HETATM    9  C14 UNL     1      49.622  10.021  -3.025  1.00  0.00     0.018 C 
HETATM   10  C15 UNL     1      48.494   9.830  -0.928  1.00  0.00     0.168 C 
HETATM   11  O2  UNL     1      48.049  10.932  -1.194  1.00  0.00    -0.294 OA
HETATM   12  C16 UNL     1      48.376   9.425   0.543  1.00  0.00     0.151 A 
HETATM   13  O3  UNL     1      47.559   8.359   0.466  1.00  0.00    -0.357 OA
HETATM   14  C23 UNL     1      48.887   8.239   0.801  1.00  0.00     0.204 A 
HETATM   15  C24 UNL     1      49.032   7.217   1.879  1.00  0.00     0.115 C 
HETATM   16  C25 UNL     1      47.741   6.755   2.373  1.00  0.00     0.054 C 
HETATM   17  C26 UNL     1      50.141   6.202   1.576  1.00  0.00     0.037 C 
ENDROOT
BRANCH  17  18
HETATM   18  C27 UNL     1      51.504   6.756   1.928  1.00  0.00     0.165 C 
BRANCH  18  19
HETATM   19  N1  UNL     1      52.286   6.188   2.939  1.00  0.00    -0.282 N 
HETATM   20  C28 UNL     1      52.597   6.862   4.137  1.00  0.00     0.366 C 
HETATM   21  O5  UNL     1      52.241   8.021   4.454  1.00  0.00    -0.238 OA
ATOM     22  H1  UNL     1      52.647   5.243   2.803  1.00  0.00     0.173 HD
BRANCH  20  23
HETATM   23  O6  UNL     1      53.380   6.194   5.086  1.00  0.00    -0.309 OA
HETATM   24  C29 UNL     1      53.869   4.884   4.867  1.00  0.00     0.215 C 
ENDBRANCH  20  23
ENDBRANCH  18  19
BRANCH  18  25
HETATM   25  O7  UNL     1      52.282   7.084   0.766  1.00  0.00    -0.261 OA
BRANCH  25  26
HETATM   26  C30 UNL     1      53.112   6.278   0.073  1.00  0.00     0.261 C 
HETATM   27  C31 UNL     1      52.661   5.576  -1.150  1.00  0.00     0.126 C 
HETATM   28  O8  UNL     1      54.258   6.181   0.542  1.00  0.00    -0.265 OA
ENDBRANCH  25  26
ENDBRANCH  18  25
ENDBRANCH  17  18
BRANCH   1  29
HETATM   29  C5  UNL     1      50.121   3.728   2.333  1.00  0.00     0.009 C 
HETATM   30  C4  UNL     1      49.611   3.456   3.640  1.00  0.00     0.006 C 
BRANCH  30  31
HETATM   31  C2  UNL     1      49.898   4.166   4.881  1.00  0.00    -0.071 C 
HETATM   32  C1  UNL     1      49.586   5.392   5.233  1.00  0.00     0.018 C 
HETATM   33  C3  UNL     1      50.660   3.434   5.936  1.00  0.00     0.047 C 
ENDBRANCH  30  31
ENDBRANCH   1  29
BRANCH  15  34
HETATM   34  O4  UNL     1      49.476   8.057   2.958  1.00  0.00    -0.382 OA
ATOM     35  H4  UNL     1      49.897   7.407   3.508  1.00  0.00     0.211 HD
ENDBRANCH  15  34
BRANCH  12  36
HETATM   36  C17 UNL     1      48.240  10.600   1.453  1.00  0.00     0.053 C 
BRANCH  36  37
HETATM   37  C18 UNL     1      46.936  10.479   2.209  1.00  0.00     0.030 C 
BRANCH  37  38
HETATM   38  C19 UNL     1      46.193  11.762   2.068  1.00  0.00    -0.025 C 
HETATM   39  C20 UNL     1      45.201  11.879   1.201  1.00  0.00    -0.091 C 
HETATM   40  C21 UNL     1      44.493  13.180   1.105  1.00  0.00     0.042 C 
HETATM   41  C22 UNL     1      44.822  10.715   0.353  1.00  0.00     0.042 C 
ENDBRANCH  37  38
ENDBRANCH  36  37
ENDBRANCH  12  36
BRANCH   6  42
HETATM   42  O1  UNL     1      49.927   7.006  -3.761  1.00  0.00    -0.392 OA
ATOM     43  H1  UNL     1      50.602   7.167  -3.112  1.00  0.00     0.210 HD
ENDBRANCH   6  42
TORSDOF 12
ENDMDL
MODEL 2
REMARK VINA RESULT: -5.985625696      1.344      2.963
REMARK  12 active torsions:
REMARK  status: ('A' for Active; 'I' for Inactive)
REMARK    1  A    between atoms: C2_2  and  C4_4 
REMARK    2  A    between atoms: C5_5  and  C6_6 
REMARK    3  A    between atoms: C11_11  and  O1_12 
REMARK    4  A    between atoms: C16_19  and  C17_20 
REMARK    5  A    between atoms: C17_20  and  C18_21 
REMARK    6  A    between atoms: C18_21  and  C19_22 
REMARK    7  A    between atoms: C24_28  and  O4_30 
REMARK    8  A    between atoms: C26_32  and  C27_33 
REMARK    9  A    between atoms: C27_33  and  N1_34 
REMARK   10  A    between atoms: C27_33  and  O7_40 
REMARK       I    between atoms: N1_34  and  C28_36 
REMARK   11  A    between atoms: C28_36  and  O6_38 
REMARK   12  A    between atoms: O7_40  and  C30_41 
ROOT
HETATM    1  C6  UNL     1      49.287   4.913   2.735  1.00  0.00    -0.037 C 
HETATM    2  C7  UNL     1      48.297   4.171   1.836  1.00  0.00     0.037 C 
HETATM    3  C8  UNL     1      48.419   2.690   2.222  1.00  0.00     0.019 C 
HETATM    4  C9  UNL     1      48.268   4.289   0.408  1.00  0.00    -0.019 C 
HETATM    5  C10 UNL     1      48.983   4.145  -0.679  1.00  0.00     0.001 C 
HETATM    6  C11 UNL     1      48.879   4.295  -2.146  1.00  0.00     0.141 C 
HETATM    7  C12 UNL     1      48.636   5.687  -2.703  1.00  0.00     0.047 C 
HETATM    8  C13 UNL     1      49.703   6.693  -2.384  1.00  0.00     0.057 C 
HETATM    9  C14 UNL     1      50.533   6.901  -3.684  1.00  0.00     0.018 C 
HETATM   10  C15 UNL     1      49.243   8.064  -2.043  1.00  0.00     0.168 C 
HETATM   11  O2  UNL     1      49.091   8.898  -2.917  1.00  0.00    -0.294 OA
HETATM   12  C16 UNL     1      48.927   8.549  -0.626  1.00  0.00     0.151 A 
HETATM   13  O3  UNL     1      47.889   7.759  -0.295  1.00  0.00    -0.357 OA
HETATM   14  C23 UNL     1      49.124   7.630   0.297  1.00  0.00     0.204 A 
HETATM   15  C24 UNL     1      48.945   7.351   1.751  1.00  0.00     0.115 C 
HETATM   16  C25 UNL     1      47.550   7.445   2.160  1.00  0.00     0.054 C 
HETATM   17  C26 UNL     1      49.803   6.172   2.230  1.00  0.00     0.037 C 
ENDROOT
BRANCH  17  18
HETATM   18  C27 UNL     1      51.229   6.603   2.495  1.00  0.00     0.165 C 
BRANCH  18  19
HETATM   19  N1  UNL     1      51.997   7.234   1.511  1.00  0.00    -0.282 N 
HETATM   20  C28 UNL     1      52.461   6.570   0.358  1.00  0.00     0.366 C 
HETATM   21  O5  UNL     1      52.267   5.367   0.062  1.00  0.00    -0.238 OA
ATOM     22  H1  UNL     1      52.232   8.219   1.634  1.00  0.00     0.173 HD
BRANCH  20  23
HETATM   23  O6  UNL     1      53.214   7.302  -0.568  1.00  0.00    -0.309 OA
HETATM   24  C29 UNL     1      53.778   6.699  -1.718  1.00  0.00     0.215 C 
ENDBRANCH  20  23
ENDBRANCH  18  19
BRANCH  18  25
HETATM   25  O7  UNL     1      51.387   7.223   3.781  1.00  0.00    -0.261 OA
BRANCH  25  26
HETATM   26  C30 UNL     1      52.437   7.126   4.621  1.00  0.00     0.261 C 
HETATM   27  C31 UNL     1      53.161   5.847   4.805  1.00  0.00     0.126 C 
HETATM   28  O8  UNL     1      52.733   8.178   5.212  1.00  0.00    -0.265 OA
ENDBRANCH  25  26
ENDBRANCH  18  25
ENDBRANCH  17  18
BRANCH   1  29
HETATM   29  C5  UNL     1      49.145   4.549   4.134  1.00  0.00     0.009 C 
HETATM   30  C4  UNL     1      50.040   4.184   5.186  1.00  0.00     0.006 C 
BRANCH  30  31
HETATM   31  C2  UNL     1      50.814   2.955   5.319  1.00  0.00    -0.071 C 
HETATM   32  C1  UNL     1      51.497   2.295   4.412  1.00  0.00     0.018 C 
HETATM   33  C3  UNL     1      50.865   2.312   6.666  1.00  0.00     0.047 C 
ENDBRANCH  30  31
ENDBRANCH   1  29
BRANCH  15  34
HETATM   34  O4  UNL     1      49.496   8.559   2.304  1.00  0.00    -0.382 OA
ATOM     35  H4  UNL     1      49.413   8.366   3.231  1.00  0.00     0.211 HD
ENDBRANCH  15  34
BRANCH  12  36
HETATM   36  C17 UNL     1      49.006  10.034  -0.497  1.00  0.00     0.053 C 
BRANCH  36  37
HETATM   37  C18 UNL     1      47.629  10.565  -0.173  1.00  0.00     0.030 C 
BRANCH  37  38
HETATM   38  C19 UNL     1      47.716  11.351   1.090  1.00  0.00    -0.025 C 
HETATM   39  C20 UNL     1      46.622  11.735   1.726  1.00  0.00    -0.091 C 
HETATM   40  C21 UNL     1      46.768  12.515   2.980  1.00  0.00     0.042 C 
HETATM   41  C22 UNL     1      45.285  11.379   1.175  1.00  0.00     0.042 C 
ENDBRANCH  37  38
ENDBRANCH  36  37
ENDBRANCH  12  36
BRANCH   6  42
HETATM   42  O1  UNL     1      50.171   3.967  -2.688  1.00  0.00    -0.392 OA
ATOM     43  H1  UNL     1      50.136   4.166  -3.616  1.00  0.00     0.210 HD
ENDBRANCH   6  42
TORSDOF 12
ENDMDL
MODEL 3
REMARK VINA RESULT: -5.929308442      5.691      9.268
REMARK  12 active torsions:
REMARK  status: ('A' for Active; 'I' for Inactive)
REMARK    1  A    between atoms: C2_2  and  C4_4 
REMARK    2  A    between atoms: C5_5  and  C6_6 
REMARK    3  A    between atoms: C11_11  and  O1_12 
REMARK    4  A    between atoms: C16_19  and  C17_20 
REMARK    5  A    between atoms: C17_20  and  C18_21 
REMARK    6  A    between atoms: C18_21  and  C19_22 
REMARK    7  A    between atoms: C24_28  and  O4_30 
REMARK    8  A    between atoms: C26_32  and  C27_33 
REMARK    9  A    between atoms: C27_33  and  N1_34 
REMARK   10  A    between atoms: C27_33  and  O7_40 
REMARK       I    between atoms: N1_34  and  C28_36 
REMARK   11  A    between atoms: C28_36  and  O6_38 
REMARK   12  A    between atoms: O7_40  and  C30_41 
ROOT
HETATM    1  C6  UNL     1      45.554  12.603   0.395  1.00  0.00    -0.037 C 
HETATM    2  C7  UNL     1      46.529  11.561   0.943  1.00  0.00     0.037 C 
HETATM    3  C8  UNL     1      47.173  12.208   2.177  1.00  0.00     0.019 C 
HETATM    4  C9  UNL     1      47.542  10.921   0.158  1.00  0.00    -0.019 C 
HETATM    5  C10 UNL     1      48.588  11.140  -0.600  1.00  0.00     0.001 C 
HETATM    6  C11 UNL     1      49.599  10.410  -1.394  1.00  0.00     0.141 C 
HETATM    7  C12 UNL     1      49.119   9.610  -2.592  1.00  0.00     0.047 C 
HETATM    8  C13 UNL     1      48.437  10.414  -3.660  1.00  0.00     0.057 C 
HETATM    9  C14 UNL     1      49.447  10.556  -4.835  1.00  0.00     0.018 C 
HETATM   10  C15 UNL     1      47.246   9.798  -4.298  1.00  0.00     0.168 C 
HETATM   11  O2  UNL     1      47.371   9.092  -5.282  1.00  0.00    -0.294 OA
HETATM   12  C16 UNL     1      45.807   9.975  -3.809  1.00  0.00     0.151 A 
HETATM   13  O3  UNL     1      45.862   9.406  -2.591  1.00  0.00    -0.357 OA
HETATM   14  C23 UNL     1      45.705  10.762  -2.758  1.00  0.00     0.204 A 
HETATM   15  C24 UNL     1      44.734  11.273  -1.747  1.00  0.00     0.115 C 
HETATM   16  C25 UNL     1      44.120  10.194  -0.983  1.00  0.00     0.054 C 
HETATM   17  C26 UNL     1      45.249  12.523  -1.023  1.00  0.00     0.037 C 
ENDROOT
BRANCH  17  18
HETATM   18  C27 UNL     1      45.028  13.768  -1.853  1.00  0.00     0.165 C 
BRANCH  18  19
HETATM   19  N1  UNL     1      45.443  13.841  -3.187  1.00  0.00    -0.282 N 
HETATM   20  C28 UNL     1      46.799  13.834  -3.568  1.00  0.00     0.366 C 
HETATM   21  O5  UNL     1      47.789  13.771  -2.801  1.00  0.00    -0.238 OA
ATOM     22  H1  UNL     1      44.732  13.903  -3.916  1.00  0.00     0.173 HD
BRANCH  20  23
HETATM   23  O6  UNL     1      47.102  13.901  -4.933  1.00  0.00    -0.309 OA
HETATM   24  C29 UNL     1      46.459  13.072  -5.885  1.00  0.00     0.215 C 
ENDBRANCH  20  23
ENDBRANCH  18  19
BRANCH  18  25
HETATM   25  O7  UNL     1      43.719  14.330  -1.666  1.00  0.00    -0.261 OA
BRANCH  25  26
HETATM   26  C30 UNL     1      43.370  15.633  -1.674  1.00  0.00     0.261 C 
HETATM   27  C31 UNL     1      44.384  16.703  -1.530  1.00  0.00     0.126 C 
HETATM   28  O8  UNL     1      42.154  15.847  -1.810  1.00  0.00    -0.265 OA
ENDBRANCH  25  26
ENDBRANCH  18  25
ENDBRANCH  17  18
BRANCH   1  29
HETATM   29  C5  UNL     1      44.685  13.145   1.425  1.00  0.00     0.009 C 
HETATM   30  C4  UNL     1      44.272  14.454   1.822  1.00  0.00     0.006 C 
BRANCH  30  31
HETATM   31  C2  UNL     1      45.074  15.492   2.461  1.00  0.00    -0.071 C 
HETATM   32  C1  UNL     1      46.102  15.375   3.269  1.00  0.00     0.018 C 
HETATM   33  C3  UNL     1      44.706  16.914   2.189  1.00  0.00     0.047 C 
ENDBRANCH  30  31
ENDBRANCH   1  29
BRANCH  15  34
HETATM   34  O4  UNL     1      43.658  11.668  -2.614  1.00  0.00    -0.382 OA
ATOM     35  H4  UNL     1      42.987  11.059  -2.330  1.00  0.00     0.211 HD
ENDBRANCH  15  34
BRANCH  12  36
HETATM   36  C17 UNL     1      44.800   9.714  -4.881  1.00  0.00     0.053 C 
BRANCH  36  37
HETATM   37  C18 UNL     1      44.006   8.483  -4.509  1.00  0.00     0.030 C 
BRANCH  37  38
HETATM   38  C19 UNL     1      42.604   8.898  -4.228  1.00  0.00    -0.025 C 
HETATM   39  C20 UNL     1      41.941   8.395  -3.199  1.00  0.00    -0.091 C 
HETATM   40  C21 UNL     1      40.547   8.847  -2.966  1.00  0.00     0.042 C 
HETATM   41  C22 UNL     1      42.603   7.401  -2.310  1.00  0.00     0.042 C 
ENDBRANCH  37  38
ENDBRANCH  36  37
ENDBRANCH  12  36
BRANCH   6  42
HETATM   42  O1  UNL     1      50.442  11.405  -2.003  1.00  0.00    -0.392 OA
ATOM     43  H1  UNL     1      50.775  11.023  -2.807  1.00  0.00     0.210 HD
ENDBRANCH   6  42
TORSDOF 12
ENDMDL
MODEL 4
REMARK VINA RESULT: -5.922442776      3.230      5.455
REMARK  12 active torsions:
REMARK  status: ('A' for Active; 'I' for Inactive)
REMARK    1  A    between atoms: C2_2  and  C4_4 
REMARK    2  A    between atoms: C5_5  and  C6_6 
REMARK    3  A    between atoms: C11_11  and  O1_12 
REMARK    4  A    between atoms: C16_19  and  C17_20 
REMARK    5  A    between atoms: C17_20  and  C18_21 
REMARK    6  A    between atoms: C18_21  and  C19_22 
REMARK    7  A    between atoms: C24_28  and  O4_30 
REMARK    8  A    between atoms: C26_32  and  C27_33 
REMARK    9  A    between atoms: C27_33  and  N1_34 
REMARK   10  A    between atoms: C27_33  and  O7_40 
REMARK       I    between atoms: N1_34  and  C28_36 
REMARK   11  A    between atoms: C28_36  and  O6_38 
REMARK   12  A    between atoms: O7_40  and  C30_41 
ROOT
HETATM    1  C6  UNL     1      48.817   8.464  -1.901  1.00  0.00    -0.037 C 
HETATM    2  C7  UNL     1      47.492   8.037  -2.534  1.00  0.00     0.037 C 
HETATM    3  C8  UNL     1      47.856   7.487  -3.920  1.00  0.00     0.019 C 
HETATM    4  C9  UNL     1      46.346   8.891  -2.646  1.00  0.00    -0.019 C 
HETATM    5  C10 UNL     1      45.922  10.034  -3.124  1.00  0.00     0.001 C 
HETATM    6  C11 UNL     1      44.700  10.862  -3.195  1.00  0.00     0.141 C 
HETATM    7  C12 UNL     1      44.126  11.396  -1.894  1.00  0.00     0.047 C 
HETATM    8  C13 UNL     1      45.043  12.296  -1.119  1.00  0.00     0.057 C 
HETATM    9  C14 UNL     1      44.525  13.750  -1.320  1.00  0.00     0.018 C 
HETATM   10  C15 UNL     1      45.047  12.131   0.357  1.00  0.00     0.168 C 
HETATM   11  O2  UNL     1      44.272  12.764   1.050  1.00  0.00    -0.294 OA
HETATM   12  C16 UNL     1      45.979  11.191   1.125  1.00  0.00     0.151 A 
HETATM   13  O3  UNL     1      45.597   9.989   0.658  1.00  0.00    -0.357 OA
HETATM   14  C23 UNL     1      46.819  10.538   0.349  1.00  0.00     0.204 A 
HETATM   15  C24 UNL     1      47.857   9.467   0.358  1.00  0.00     0.115 C 
HETATM   16  C25 UNL     1      47.328   8.195   0.832  1.00  0.00     0.054 C 
HETATM   17  C26 UNL     1      48.747   9.505  -0.891  1.00  0.00     0.037 C 
ENDROOT
BRANCH  17  18
HETATM   18  C27 UNL     1      49.834  10.549  -0.760  1.00  0.00     0.165 C 
BRANCH  18  19
HETATM   19  N1  UNL     1      51.169  10.256  -1.055  1.00  0.00    -0.282 N 
HETATM   20  C28 UNL     1      52.248  11.018  -0.561  1.00  0.00     0.366 C 
HETATM   21  O5  UNL     1      52.170  12.029   0.177  1.00  0.00    -0.238 OA
ATOM     22  H1  UNL     1      51.372   9.456  -1.654  1.00  0.00     0.173 HD
BRANCH  20  23
HETATM   23  O6  UNL     1      53.546  10.629  -0.911  1.00  0.00    -0.309 OA
HETATM   24  C29 UNL     1      54.400  11.465  -1.671  1.00  0.00     0.215 C 
ENDBRANCH  20  23
ENDBRANCH  18  19
BRANCH  18  25
HETATM   25  O7  UNL     1      49.436  11.827  -1.282  1.00  0.00    -0.261 OA
BRANCH  25  26
HETATM   26  C30 UNL     1      49.226  12.164  -2.570  1.00  0.00     0.261 C 
HETATM   27  C31 UNL     1      48.155  13.113  -2.953  1.00  0.00     0.126 C 
HETATM   28  O8  UNL     1      49.992  11.623  -3.384  1.00  0.00    -0.265 OA
ENDBRANCH  25  26
ENDBRANCH  18  25
ENDBRANCH  17  18
BRANCH   1  29
HETATM   29  C5  UNL     1      49.833   7.429  -1.990  1.00  0.00     0.009 C 
HETATM   30  C4  UNL     1      50.437   6.516  -1.073  1.00  0.00     0.006 C 
BRANCH  30  31
HETATM   31  C2  UNL     1      51.356   6.818   0.020  1.00  0.00    -0.071 C 
HETATM   32  C1  UNL     1      51.107   7.328   1.204  1.00  0.00     0.018 C 
HETATM   33  C3  UNL     1      52.804   6.525  -0.195  1.00  0.00     0.047 C 
ENDBRANCH  30  31
ENDBRANCH   1  29
BRANCH  15  34
HETATM   34  O4  UNL     1      48.645   9.896   1.482  1.00  0.00    -0.382 OA
ATOM     35  H4  UNL     1      48.287   9.330   2.157  1.00  0.00     0.211 HD
ENDBRANCH  15  34
BRANCH  12  36
HETATM   36  C17 UNL     1      46.147  11.590   2.554  1.00  0.00     0.053 C 
BRANCH  36  37
HETATM   37  C18 UNL     1      47.069  12.785   2.617  1.00  0.00     0.030 C 
BRANCH  37  38
HETATM   38  C19 UNL     1      46.838  13.486   3.911  1.00  0.00    -0.025 C 
HETATM   39  C20 UNL     1      46.228  14.660   3.947  1.00  0.00    -0.091 C 
HETATM   40  C21 UNL     1      46.023  15.312   5.264  1.00  0.00     0.042 C 
HETATM   41  C22 UNL     1      45.766  15.289   2.679  1.00  0.00     0.042 C 
ENDBRANCH  37  38
ENDBRANCH  36  37
ENDBRANCH  12  36
BRANCH   6  42
HETATM   42  O1  UNL     1      45.059  12.069  -3.892  1.00  0.00    -0.392 OA
ATOM     43  H1  UNL     1      44.699  12.790  -3.390  1.00  0.00     0.210 HD
ENDBRANCH   6  42
TORSDOF 12
ENDMDL
MODEL 5
REMARK VINA RESULT: -5.900303250      5.739      9.341
REMARK  12 active torsions:
REMARK  status: ('A' for Active; 'I' for Inactive)
REMARK    1  A    between atoms: C2_2  and  C4_4 
REMARK    2  A    between atoms: C5_5  and  C6_6 
REMARK    3  A    between atoms: C11_11  and  O1_12 
REMARK    4  A    between atoms: C16_19  and  C17_20 
REMARK    5  A    between atoms: C17_20  and  C18_21 
REMARK    6  A    between atoms: C18_21  and  C19_22 
REMARK    7  A    between atoms: C24_28  and  O4_30 
REMARK    8  A    between atoms: C26_32  and  C27_33 
REMARK    9  A    between atoms: C27_33  and  N1_34 
REMARK   10  A    between atoms: C27_33  and  O7_40 
REMARK       I    between atoms: N1_34  and  C28_36 
REMARK   11  A    between atoms: C28_36  and  O6_38 
REMARK   12  A    between atoms: O7_40  and  C30_41 
ROOT
HETATM    1  C6  UNL     1      45.517  12.555   0.320  1.00  0.00    -0.037 C 
HETATM    2  C7  UNL     1      46.508  11.535   0.883  1.00  0.00     0.037 C 
HETATM    3  C8  UNL     1      47.141  12.209   2.109  1.00  0.00     0.019 C 
HETATM    4  C9  UNL     1      47.533  10.902   0.107  1.00  0.00    -0.019 C 
HETATM    5  C10 UNL     1      48.576  11.128  -0.653  1.00  0.00     0.001 C 
HETATM    6  C11 UNL     1      49.600  10.405  -1.436  1.00  0.00     0.141 C 
HETATM    7  C12 UNL     1      49.134   9.581  -2.625  1.00  0.00     0.047 C 
HETATM    8  C13 UNL     1      48.439  10.360  -3.703  1.00  0.00     0.057 C 
HETATM    9  C14 UNL     1      49.448  10.503  -4.880  1.00  0.00     0.018 C 
HETATM   10  C15 UNL     1      47.260   9.716  -4.334  1.00  0.00     0.168 C 
HETATM   11  O2  UNL     1      47.397   8.999  -5.309  1.00  0.00    -0.294 OA
HETATM   12  C16 UNL     1      45.817   9.875  -3.849  1.00  0.00     0.151 A 
HETATM   13  O3  UNL     1      45.880   9.324  -2.624  1.00  0.00    -0.357 OA
HETATM   14  C23 UNL     1      45.701  10.675  -2.808  1.00  0.00     0.204 A 
HETATM   15  C24 UNL     1      44.721  11.183  -1.804  1.00  0.00     0.115 C 
HETATM   16  C25 UNL     1      44.124  10.104  -1.027  1.00  0.00     0.054 C 
HETATM   17  C26 UNL     1      45.215  12.451  -1.096  1.00  0.00     0.037 C 
ENDROOT
BRANCH  17  18
HETATM   18  C27 UNL     1      44.974  13.681  -1.943  1.00  0.00     0.165 C 
BRANCH  18  19
HETATM   19  N1  UNL     1      44.020  14.640  -1.586  1.00  0.00    -0.282 N 
HETATM   20  C28 UNL     1      42.865  14.894  -2.353  1.00  0.00     0.366 C 
HETATM   21  O5  UNL     1      42.543  14.327  -3.425  1.00  0.00    -0.238 OA
ATOM     22  H1  UNL     1      44.166  15.179  -0.733  1.00  0.00     0.173 HD
BRANCH  20  23
HETATM   23  O6  UNL     1      41.971  15.869  -1.898  1.00  0.00    -0.309 OA
HETATM   24  C29 UNL     1      40.789  16.192  -2.608  1.00  0.00     0.215 C 
ENDBRANCH  20  23
ENDBRANCH  18  19
BRANCH  18  25
HETATM   25  O7  UNL     1      46.196  14.283  -2.399  1.00  0.00    -0.261 OA
BRANCH  25  26
HETATM   26  C30 UNL     1      46.895  13.992  -3.515  1.00  0.00     0.261 C 
HETATM   27  C31 UNL     1      48.375  14.038  -3.531  1.00  0.00     0.126 C 
HETATM   28  O8  UNL     1      46.203  13.689  -4.501  1.00  0.00    -0.265 OA
ENDBRANCH  25  26
ENDBRANCH  18  25
ENDBRANCH  17  18
BRANCH   1  29
HETATM   29  C5  UNL     1      44.638  13.096   1.342  1.00  0.00     0.009 C 
HETATM   30  C4  UNL     1      44.245  14.405   1.756  1.00  0.00     0.006 C 
BRANCH  30  31
HETATM   31  C2  UNL     1      45.054  15.414   2.431  1.00  0.00    -0.071 C 
HETATM   32  C1  UNL     1      46.036  15.260   3.289  1.00  0.00     0.018 C 
HETATM   33  C3  UNL     1      44.757  16.848   2.137  1.00  0.00     0.047 C 
ENDBRANCH  30  31
ENDBRANCH   1  29
BRANCH  15  34
HETATM   34  O4  UNL     1      43.640  11.549  -2.678  1.00  0.00    -0.382 OA
ATOM     35  H4  UNL     1      43.046  10.826  -2.515  1.00  0.00     0.211 HD
ENDBRANCH  15  34
BRANCH  12  36
HETATM   36  C17 UNL     1      44.816   9.584  -4.917  1.00  0.00     0.053 C 
BRANCH  36  37
HETATM   37  C18 UNL     1      44.023   8.362  -4.517  1.00  0.00     0.030 C 
BRANCH  37  38
HETATM   38  C19 UNL     1      42.608   8.773  -4.297  1.00  0.00    -0.025 C 
HETATM   39  C20 UNL     1      41.924   8.319  -3.260  1.00  0.00    -0.091 C 
HETATM   40  C21 UNL     1      40.518   8.764  -3.089  1.00  0.00     0.042 C 
HETATM   41  C22 UNL     1      42.573   7.385  -2.299  1.00  0.00     0.042 C 
ENDBRANCH  37  38
ENDBRANCH  36  37
ENDBRANCH  12  36
BRANCH   6  42
HETATM   42  O1  UNL     1      50.426  11.405  -2.058  1.00  0.00    -0.392 OA
ATOM     43  H1  UNL     1      49.837  12.035  -2.457  1.00  0.00     0.210 HD
ENDBRANCH   6  42
TORSDOF 12
ENDMDL
