MODEL 1
REMARK VINA RESULT: -7.902709929      0.000      0.000
REMARK  14 active torsions:
REMARK  status: ('A' for Active; 'I' for Inactive)
REMARK    1  A    between atoms: C2_2  and  C3_3 
REMARK    2  A    between atoms: C2_2  and  C11_13 
REMARK    3  A    between atoms: C4_4  and  C5_5 
REMARK    4  A    between atoms: C5_5  and  C7_7 
REMARK    5  A    between atoms: C8_8  and  C9_9 
REMARK    6  A    between atoms: C9_9  and  O2_11 
REMARK    7  A    between atoms: C19_21  and  O3_22 
REMARK    8  A    between atoms: C21_25  and  O4_26 
REMARK    9  A    between atoms: C22_28  and  C23_29 
REMARK   10  A    between atoms: C23_29  and  O5_30 
REMARK   11  A    between atoms: O5_30  and  C24_31 
REMARK   12  A    between atoms: C24_31  and  C25_33 
REMARK   13  A    between atoms: C30_38  and  O7_39 
REMARK   14  A    between atoms: O7_39  and  C31_40 
ROOT
HETATM    1  C11 UNL     1      45.598  10.976   0.699  1.00  0.00     0.051 C 
HETATM    2  C12 UNL     1      44.790   9.806   0.421  1.00  0.00     0.016 C 
HETATM    3  C13 UNL     1      44.536   9.247  -0.948  1.00  0.00     0.028 C 
HETATM    4  C14 UNL     1      43.684  10.057  -1.847  1.00  0.00    -0.026 C 
HETATM    5  C15 UNL     1      43.318  10.090  -3.081  1.00  0.00    -0.001 C 
HETATM    6  C16 UNL     1      42.425  11.013  -3.871  1.00  0.00    -0.077 C 
HETATM    7  C17 UNL     1      41.000  10.534  -3.970  1.00  0.00     0.044 C 
HETATM    8  C18 UNL     1      42.535  12.465  -3.743  1.00  0.00     0.052 A 
HETATM    9  C19 UNL     1      43.245  13.328  -4.692  1.00  0.00     0.134 A 
HETATM   10  C20 UNL     1      43.899  13.038  -3.382  1.00  0.00     0.059 A 
HETATM   11  C21 UNL     1      43.850  14.069  -2.353  1.00  0.00     0.156 C 
HETATM   12  C22 UNL     1      44.526  13.911  -1.039  1.00  0.00    -0.028 C 
HETATM   13  C29 UNL     1      45.299  13.035  -0.541  1.00  0.00     0.013 C 
HETATM   14  C30 UNL     1      46.103  11.812  -0.481  1.00  0.00     0.163 C 
ENDROOT
BRANCH   1  15
HETATM   15  C2  UNL     1      46.736  10.742   1.716  1.00  0.00    -0.061 C 
HETATM   16  C1  UNL     1      46.981  11.561   2.599  1.00  0.00     0.019 C 
BRANCH  15  17
HETATM   17  C3  UNL     1      47.488   9.481   1.620  1.00  0.00     0.003 C 
HETATM   18  C4  UNL     1      47.943   8.667   2.475  1.00  0.00    -0.018 C 
BRANCH  18  19
HETATM   19  C5  UNL     1      48.689   7.438   2.021  1.00  0.00     0.027 C 
HETATM   20  C6  UNL     1      48.718   7.370   0.511  1.00  0.00     0.018 C 
BRANCH  19  21
HETATM   21  C7  UNL     1      50.063   7.462   2.513  1.00  0.00    -0.012 C 
HETATM   22  C8  UNL     1      50.562   6.858   3.576  1.00  0.00     0.079 C 
BRANCH  22  23
HETATM   23  C9  UNL     1      51.986   7.009   3.899  1.00  0.00     0.282 C 
HETATM   24  O1  UNL     1      52.305   8.057   4.559  1.00  0.00    -0.260 OA
BRANCH  23  25
HETATM   25  O2  UNL     1      52.980   6.157   3.563  1.00  0.00    -0.323 OA
HETATM   26  C10 UNL     1      53.497   5.182   4.484  1.00  0.00     0.213 C 
ENDBRANCH  23  25
ENDBRANCH  22  23
ENDBRANCH  19  21
ENDBRANCH  18  19
ENDBRANCH  15  17
ENDBRANCH   1  15
BRANCH  14  27
HETATM   27  O7  UNL     1      46.370  11.163  -1.642  1.00  0.00    -0.312 OA
BRANCH  27  28
HETATM   28  C31 UNL     1      47.504  10.708  -2.233  1.00  0.00     0.255 C 
HETATM   29  C32 UNL     1      48.850  10.748  -1.565  1.00  0.00     0.126 C 
HETATM   30  O8  UNL     1      47.414  10.232  -3.389  1.00  0.00    -0.266 OA
ENDBRANCH  27  28
ENDBRANCH  14  27
BRANCH  12  31
HETATM   31  C23 UNL     1      44.092  15.098  -0.170  1.00  0.00     0.215 C 
BRANCH  31  32
HETATM   32  O5  UNL     1      44.206  14.962   1.191  1.00  0.00    -0.317 OA
BRANCH  32  33
HETATM   33  C24 UNL     1      44.469  15.998   2.032  1.00  0.00     0.266 C 
HETATM   34  O6  UNL     1      43.843  17.068   1.778  1.00  0.00    -0.264 OA
BRANCH  33  35
HETATM   35  C25 UNL     1      45.376  16.042   3.177  1.00  0.00     0.037 C 
HETATM   36  C26 UNL     1      46.187  14.792   3.289  1.00  0.00     0.025 C 
HETATM   37  C27 UNL     1      44.653  16.273   4.495  1.00  0.00     0.025 C 
HETATM   38  C28 UNL     1      46.383  17.187   2.984  1.00  0.00     0.025 C 
ENDBRANCH  33  35
ENDBRANCH  32  33
ENDBRANCH  31  32
ENDBRANCH  12  31
BRANCH  11  39
HETATM   39  O4  UNL     1      44.170  15.283  -2.947  1.00  0.00    -0.391 OA
ATOM     40  H4  UNL     1      43.398  15.836  -2.919  1.00  0.00     0.210 HD
ENDBRANCH  11  39
BRANCH   9  41
HETATM   41  O3  UNL     1      42.681  14.595  -4.872  1.00  0.00    -0.394 OA
ATOM     42  H3  UNL     1      43.307  15.306  -4.942  1.00  0.00     0.210 HD
ENDBRANCH   9  41
TORSDOF 14
ENDMDL
MODEL 2
REMARK VINA RESULT: -7.828569421      2.612      9.222
REMARK  14 active torsions:
REMARK  status: ('A' for Active; 'I' for Inactive)
REMARK    1  A    between atoms: C2_2  and  C3_3 
REMARK    2  A    between atoms: C2_2  and  C11_13 
REMARK    3  A    between atoms: C4_4  and  C5_5 
REMARK    4  A    between atoms: C5_5  and  C7_7 
REMARK    5  A    between atoms: C8_8  and  C9_9 
REMARK    6  A    between atoms: C9_9  and  O2_11 
REMARK    7  A    between atoms: C19_21  and  O3_22 
REMARK    8  A    between atoms: C21_25  and  O4_26 
REMARK    9  A    between atoms: C22_28  and  C23_29 
REMARK   10  A    between atoms: C23_29  and  O5_30 
REMARK   11  A    between atoms: O5_30  and  C24_31 
REMARK   12  A    between atoms: C24_31  and  C25_33 
REMARK   13  A    between atoms: C30_38  and  O7_39 
REMARK   14  A    between atoms: O7_39  and  C31_40 
ROOT
HETATM    1  C11 UNL     1      46.917  10.703   1.054  1.00  0.00     0.051 C 
HETATM    2  C12 UNL     1      47.952  11.428   0.345  1.00  0.00     0.016 C 
HETATM    3  C13 UNL     1      48.562  10.995  -0.956  1.00  0.00     0.028 C 
HETATM    4  C14 UNL     1      49.423   9.791  -0.916  1.00  0.00    -0.026 C 
HETATM    5  C15 UNL     1      50.013   8.983  -1.726  1.00  0.00    -0.001 C 
HETATM    6  C16 UNL     1      50.872   7.762  -1.526  1.00  0.00    -0.077 C 
HETATM    7  C17 UNL     1      52.350   8.057  -1.520  1.00  0.00     0.044 C 
HETATM    8  C18 UNL     1      50.492   6.717  -0.576  1.00  0.00     0.052 A 
HETATM    9  C19 UNL     1      49.846   5.456  -0.948  1.00  0.00     0.134 A 
HETATM   10  C20 UNL     1      49.007   6.513  -0.312  1.00  0.00     0.059 A 
HETATM   11  C21 UNL     1      48.676   6.363   1.100  1.00  0.00     0.156 C 
HETATM   12  C22 UNL     1      47.792   7.320   1.814  1.00  0.00    -0.028 C 
HETATM   13  C29 UNL     1      47.098   8.321   1.454  1.00  0.00     0.013 C 
HETATM   14  C30 UNL     1      46.519   9.315   0.546  1.00  0.00     0.163 C 
ENDROOT
BRANCH   1  15
HETATM   15  C2  UNL     1      45.659  11.537   1.379  1.00  0.00    -0.061 C 
HETATM   16  C1  UNL     1      44.552  11.215   0.954  1.00  0.00     0.019 C 
BRANCH  15  17
HETATM   17  C3  UNL     1      45.824  12.708   2.254  1.00  0.00     0.003 C 
HETATM   18  C4  UNL     1      46.665  13.023   3.146  1.00  0.00    -0.018 C 
BRANCH  18  19
HETATM   19  C5  UNL     1      46.537  14.338   3.871  1.00  0.00     0.027 C 
HETATM   20  C6  UNL     1      47.822  15.126   3.758  1.00  0.00     0.018 C 
BRANCH  19  21
HETATM   21  C7  UNL     1      45.452  15.133   3.304  1.00  0.00    -0.012 C 
HETATM   22  C8  UNL     1      45.529  16.291   2.675  1.00  0.00     0.079 C 
BRANCH  22  23
HETATM   23  C9  UNL     1      44.306  16.930   2.173  1.00  0.00     0.282 C 
HETATM   24  O1  UNL     1      43.995  18.049   2.710  1.00  0.00    -0.260 OA
BRANCH  23  25
HETATM   25  O2  UNL     1      43.484  16.450   1.213  1.00  0.00    -0.323 OA
HETATM   26  C10 UNL     1      43.973  16.017  -0.067  1.00  0.00     0.213 C 
ENDBRANCH  23  25
ENDBRANCH  22  23
ENDBRANCH  19  21
ENDBRANCH  18  19
ENDBRANCH  15  17
ENDBRANCH   1  15
BRANCH  14  27
HETATM   27  O7  UNL     1      46.600   9.087  -0.789  1.00  0.00    -0.312 OA
BRANCH  27  28
HETATM   28  C31 UNL     1      45.688   8.853  -1.766  1.00  0.00     0.255 C 
HETATM   29  C32 UNL     1      44.242   8.554  -1.484  1.00  0.00     0.126 C 
HETATM   30  O8  UNL     1      46.079   8.892  -2.957  1.00  0.00    -0.266 OA
ENDBRANCH  27  28
ENDBRANCH  14  27
BRANCH  12  31
HETATM   31  C23 UNL     1      47.837   6.945   3.300  1.00  0.00     0.215 C 
BRANCH  31  32
HETATM   32  O5  UNL     1      48.995   7.214   3.987  1.00  0.00    -0.317 OA
BRANCH  32  33
HETATM   33  C24 UNL     1      49.879   6.257   4.377  1.00  0.00     0.266 C 
HETATM   34  O6  UNL     1      49.491   5.525   5.334  1.00  0.00    -0.264 OA
BRANCH  33  35
HETATM   35  C25 UNL     1      51.208   5.965   3.845  1.00  0.00     0.037 C 
HETATM   36  C26 UNL     1      51.662   7.015   2.882  1.00  0.00     0.025 C 
HETATM   37  C27 UNL     1      51.288   4.609   3.161  1.00  0.00     0.025 C 
HETATM   38  C28 UNL     1      52.228   5.975   4.996  1.00  0.00     0.025 C 
ENDBRANCH  33  35
ENDBRANCH  32  33
ENDBRANCH  31  32
ENDBRANCH  12  31
BRANCH  11  39
HETATM   39  O4  UNL     1      48.276   5.049   1.309  1.00  0.00    -0.391 OA
ATOM     40  H4  UNL     1      49.051   4.534   1.502  1.00  0.00     0.210 HD
ENDBRANCH  11  39
BRANCH   9  41
HETATM   41  O3  UNL     1      50.209   4.354  -0.166  1.00  0.00    -0.394 OA
ATOM     42  H3  UNL     1      50.265   3.530  -0.636  1.00  0.00     0.210 HD
ENDBRANCH   9  41
TORSDOF 14
ENDMDL
MODEL 3
REMARK VINA RESULT: -7.404313796      1.196      1.524
REMARK  14 active torsions:
REMARK  status: ('A' for Active; 'I' for Inactive)
REMARK    1  A    between atoms: C2_2  and  C3_3 
REMARK    2  A    between atoms: C2_2  and  C11_13 
REMARK    3  A    between atoms: C4_4  and  C5_5 
REMARK    4  A    between atoms: C5_5  and  C7_7 
REMARK    5  A    between atoms: C8_8  and  C9_9 
REMARK    6  A    between atoms: C9_9  and  O2_11 
REMARK    7  A    between atoms: C19_21  and  O3_22 
REMARK    8  A    between atoms: C21_25  and  O4_26 
REMARK    9  A    between atoms: C22_28  and  C23_29 
REMARK   10  A    between atoms: C23_29  and  O5_30 
REMARK   11  A    between atoms: O5_30  and  C24_31 
REMARK   12  A    between atoms: C24_31  and  C25_33 
REMARK   13  A    between atoms: C30_38  and  O7_39 
REMARK   14  A    between atoms: O7_39  and  C31_40 
ROOT
HETATM    1  C11 UNL     1      45.541  11.024   0.659  1.00  0.00     0.051 C 
HETATM    2  C12 UNL     1      44.795  10.023  -0.077  1.00  0.00     0.016 C 
HETATM    3  C13 UNL     1      44.644   9.993  -1.569  1.00  0.00     0.028 C 
HETATM    4  C14 UNL     1      43.818  11.063  -2.173  1.00  0.00    -0.026 C 
HETATM    5  C15 UNL     1      43.525  11.536  -3.334  1.00  0.00    -0.001 C 
HETATM    6  C16 UNL     1      42.648  12.669  -3.798  1.00  0.00    -0.077 C 
HETATM    7  C17 UNL     1      41.250  12.241  -4.162  1.00  0.00     0.044 C 
HETATM    8  C18 UNL     1      42.696  13.978  -3.149  1.00  0.00     0.052 A 
HETATM    9  C19 UNL     1      43.429  15.135  -3.672  1.00  0.00     0.134 A 
HETATM   10  C20 UNL     1      44.013  14.400  -2.513  1.00  0.00     0.059 A 
HETATM   11  C21 UNL     1      43.864  14.988  -1.187  1.00  0.00     0.156 C 
HETATM   12  C22 UNL     1      44.466  14.374   0.025  1.00  0.00    -0.028 C 
HETATM   13  C29 UNL     1      45.240  13.388   0.227  1.00  0.00     0.013 C 
HETATM   14  C30 UNL     1      46.084  12.236  -0.102  1.00  0.00     0.163 C 
ENDROOT
BRANCH   1  15
HETATM   15  C2  UNL     1      46.624  10.452   1.600  1.00  0.00    -0.061 C 
HETATM   16  C1  UNL     1      46.912  11.012   2.656  1.00  0.00     0.019 C 
BRANCH  15  17
HETATM   17  C3  UNL     1      47.268   9.188   1.211  1.00  0.00     0.003 C 
HETATM   18  C4  UNL     1      47.434   8.076   1.791  1.00  0.00    -0.018 C 
BRANCH  18  19
HETATM   19  C5  UNL     1      48.160   6.959   1.085  1.00  0.00     0.027 C 
HETATM   20  C6  UNL     1      48.397   7.321  -0.363  1.00  0.00     0.018 C 
BRANCH  19  21
HETATM   21  C7  UNL     1      49.450   6.706   1.720  1.00  0.00    -0.012 C 
HETATM   22  C8  UNL     1      50.362   7.582   2.096  1.00  0.00     0.079 C 
BRANCH  22  23
HETATM   23  C9  UNL     1      51.605   7.117   2.725  1.00  0.00     0.282 C 
HETATM   24  O1  UNL     1      51.957   7.726   3.793  1.00  0.00    -0.260 OA
BRANCH  23  25
HETATM   25  O2  UNL     1      52.405   6.121   2.283  1.00  0.00    -0.323 OA
HETATM   26  C10 UNL     1      52.979   5.148   3.171  1.00  0.00     0.213 C 
ENDBRANCH  23  25
ENDBRANCH  22  23
ENDBRANCH  19  21
ENDBRANCH  18  19
ENDBRANCH  15  17
ENDBRANCH   1  15
BRANCH  14  27
HETATM   27  O7  UNL     1      46.444  12.055  -1.398  1.00  0.00    -0.312 OA
BRANCH  27  28
HETATM   28  C31 UNL     1      47.633  11.929  -2.041  1.00  0.00     0.255 C 
HETATM   29  C32 UNL     1      48.864  11.369  -1.387  1.00  0.00     0.126 C 
HETATM   30  O8  UNL     1      47.695  12.299  -3.238  1.00  0.00    -0.266 OA
ENDBRANCH  27  28
ENDBRANCH  14  27
BRANCH  12  31
HETATM   31  C23 UNL     1      43.937  15.161   1.231  1.00  0.00     0.215 C 
BRANCH  31  32
HETATM   32  O5  UNL     1      44.825  15.963   1.904  1.00  0.00    -0.317 OA
BRANCH  32  33
HETATM   33  C24 UNL     1      45.109  15.828   3.227  1.00  0.00     0.266 C 
HETATM   34  O6  UNL     1      44.100  15.760   3.988  1.00  0.00    -0.264 OA
BRANCH  33  35
HETATM   35  C25 UNL     1      46.413  15.756   3.883  1.00  0.00     0.037 C 
HETATM   36  C26 UNL     1      46.292  15.854   5.369  1.00  0.00     0.025 C 
HETATM   37  C27 UNL     1      47.377  16.829   3.400  1.00  0.00     0.025 C 
HETATM   38  C28 UNL     1      47.050  14.386   3.597  1.00  0.00     0.025 C 
ENDBRANCH  33  35
ENDBRANCH  32  33
ENDBRANCH  31  32
ENDBRANCH  12  31
BRANCH  11  39
HETATM   39  O4  UNL     1      44.173  16.339  -1.280  1.00  0.00    -0.391 OA
ATOM     40  H4  UNL     1      43.516  16.824  -0.795  1.00  0.00     0.210 HD
ENDBRANCH  11  39
BRANCH   9  41
HETATM   41  O3  UNL     1      42.829  16.374  -3.422  1.00  0.00    -0.394 OA
ATOM     42  H3  UNL     1      42.433  16.788  -4.180  1.00  0.00     0.210 HD
ENDBRANCH   9  41
TORSDOF 14
ENDMDL
MODEL 4
REMARK VINA RESULT: -7.396244193      1.557      2.038
REMARK  14 active torsions:
REMARK  status: ('A' for Active; 'I' for Inactive)
REMARK    1  A    between atoms: C2_2  and  C3_3 
REMARK    2  A    between atoms: C2_2  and  C11_13 
REMARK    3  A    between atoms: C4_4  and  C5_5 
REMARK    4  A    between atoms: C5_5  and  C7_7 
REMARK    5  A    between atoms: C8_8  and  C9_9 
REMARK    6  A    between atoms: C9_9  and  O2_11 
REMARK    7  A    between atoms: C19_21  and  O3_22 
REMARK    8  A    between atoms: C21_25  and  O4_26 
REMARK    9  A    between atoms: C22_28  and  C23_29 
REMARK   10  A    between atoms: C23_29  and  O5_30 
REMARK   11  A    between atoms: O5_30  and  C24_31 
REMARK   12  A    between atoms: C24_31  and  C25_33 
REMARK   13  A    between atoms: C30_38  and  O7_39 
REMARK   14  A    between atoms: O7_39  and  C31_40 
ROOT
HETATM    1  C11 UNL     1      47.442   9.499  -0.381  1.00  0.00     0.051 C 
HETATM    2  C12 UNL     1      46.881   8.519  -1.289  1.00  0.00     0.016 C 
HETATM    3  C13 UNL     1      46.500   8.792  -2.714  1.00  0.00     0.028 C 
HETATM    4  C14 UNL     1      45.329   9.672  -2.930  1.00  0.00    -0.026 C 
HETATM    5  C15 UNL     1      44.734  10.290  -3.890  1.00  0.00    -0.001 C 
HETATM    6  C16 UNL     1      43.521  11.182  -3.951  1.00  0.00    -0.077 C 
HETATM    7  C17 UNL     1      42.248  10.449  -4.289  1.00  0.00     0.044 C 
HETATM    8  C18 UNL     1      43.322  12.257  -2.979  1.00  0.00     0.052 A 
HETATM    9  C19 UNL     1      43.622  13.669  -3.235  1.00  0.00     0.134 A 
HETATM   10  C20 UNL     1      44.564  12.896  -2.375  1.00  0.00     0.059 A 
HETATM   11  C21 UNL     1      44.484  13.088  -0.931  1.00  0.00     0.156 C 
HETATM   12  C22 UNL     1      45.419  12.421   0.011  1.00  0.00    -0.028 C 
HETATM   13  C29 UNL     1      46.451  11.695  -0.131  1.00  0.00     0.013 C 
HETATM   14  C30 UNL     1      47.507  10.960  -0.833  1.00  0.00     0.163 C 
ENDROOT
BRANCH   1  15
HETATM   15  C2  UNL     1      48.778   9.079   0.270  1.00  0.00    -0.061 C 
HETATM   16  C1  UNL     1      49.845   9.567  -0.092  1.00  0.00     0.019 C 
BRANCH  15  17
HETATM   17  C3  UNL     1      48.723   8.104   1.371  1.00  0.00     0.003 C 
HETATM   18  C4  UNL     1      48.628   8.209   2.628  1.00  0.00    -0.018 C 
BRANCH  18  19
HETATM   19  C5  UNL     1      48.599   6.971   3.487  1.00  0.00     0.027 C 
HETATM   20  C6  UNL     1      48.444   5.739   2.626  1.00  0.00     0.018 C 
BRANCH  19  21
HETATM   21  C7  UNL     1      49.835   6.851   4.255  1.00  0.00    -0.012 C 
HETATM   22  C8  UNL     1      51.078   6.918   3.818  1.00  0.00     0.079 C 
BRANCH  22  23
HETATM   23  C9  UNL     1      52.192   6.774   4.764  1.00  0.00     0.282 C 
HETATM   24  O1  UNL     1      52.798   7.852   5.089  1.00  0.00    -0.260 OA
BRANCH  23  25
HETATM   25  O2  UNL     1      52.636   5.620   5.311  1.00  0.00    -0.323 OA
HETATM   26  C10 UNL     1      53.804   4.940   4.822  1.00  0.00     0.213 C 
ENDBRANCH  23  25
ENDBRANCH  22  23
ENDBRANCH  19  21
ENDBRANCH  18  19
ENDBRANCH  15  17
ENDBRANCH   1  15
BRANCH  14  27
HETATM   27  O7  UNL     1      47.684  11.202  -2.157  1.00  0.00    -0.312 OA
BRANCH  27  28
HETATM   28  C31 UNL     1      48.280  12.193  -2.866  1.00  0.00     0.255 C 
HETATM   29  C32 UNL     1      47.688  12.775  -4.119  1.00  0.00     0.126 C 
HETATM   30  O8  UNL     1      49.375  12.639  -2.448  1.00  0.00    -0.266 OA
ENDBRANCH  27  28
ENDBRANCH  14  27
BRANCH  12  31
HETATM   31  C23 UNL     1      44.905  12.710   1.427  1.00  0.00     0.215 C 
BRANCH  31  32
HETATM   32  O5  UNL     1      45.698  13.474   2.246  1.00  0.00    -0.317 OA
BRANCH  32  33
HETATM   33  C24 UNL     1      45.371  14.729   2.654  1.00  0.00     0.266 C 
HETATM   34  O6  UNL     1      44.324  15.208   2.128  1.00  0.00    -0.264 OA
BRANCH  33  35
HETATM   35  C25 UNL     1      46.064  15.594   3.607  1.00  0.00     0.037 C 
HETATM   36  C26 UNL     1      47.461  15.129   3.861  1.00  0.00     0.025 C 
HETATM   37  C27 UNL     1      45.337  15.709   4.938  1.00  0.00     0.025 C 
HETATM   38  C28 UNL     1      46.187  17.007   3.013  1.00  0.00     0.025 C 
ENDBRANCH  33  35
ENDBRANCH  32  33
ENDBRANCH  31  32
ENDBRANCH  12  31
BRANCH  11  39
HETATM   39  O4  UNL     1      44.400  14.453  -0.685  1.00  0.00    -0.391 OA
ATOM     40  H4  UNL     1      43.850  14.839  -1.356  1.00  0.00     0.210 HD
ENDBRANCH  11  39
BRANCH   9  41
HETATM   41  O3  UNL     1      42.762  14.577  -2.607  1.00  0.00    -0.394 OA
ATOM     42  H3  UNL     1      43.191  15.213  -2.047  1.00  0.00     0.210 HD
ENDBRANCH   9  41
TORSDOF 14
ENDMDL
MODEL 5
REMARK VINA RESULT: -7.353027721      1.657      2.145
REMARK  14 active torsions:
REMARK  status: ('A' for Active; 'I' for Inactive)
REMARK    1  A    between atoms: C2_2  and  C3_3 
REMARK    2  A    between atoms: C2_2  and  C11_13 
REMARK    3  A    between atoms: C4_4  and  C5_5 
REMARK    4  A    between atoms: C5_5  and  C7_7 
REMARK    5  A    between atoms: C8_8  and  C9_9 
REMARK    6  A    between atoms: C9_9  and  O2_11 
REMARK    7  A    between atoms: C19_21  and  O3_22 
REMARK    8  A    between atoms: C21_25  and  O4_26 
REMARK    9  A    between atoms: C22_28  and  C23_29 
REMARK   10  A    between atoms: C23_29  and  O5_30 
REMARK   11  A    between atoms: O5_30  and  C24_31 
REMARK   12  A    between atoms: C24_31  and  C25_33 
REMARK   13  A    between atoms: C30_38  and  O7_39 
REMARK   14  A    between atoms: O7_39  and  C31_40 
ROOT
HETATM    1  C11 UNL     1      45.586  11.027   0.739  1.00  0.00     0.051 C 
HETATM    2  C12 UNL     1      44.781   9.851   0.478  1.00  0.00     0.016 C 
HETATM    3  C13 UNL     1      44.522   9.276  -0.883  1.00  0.00     0.028 C 
HETATM    4  C14 UNL     1      43.662  10.074  -1.787  1.00  0.00    -0.026 C 
HETATM    5  C15 UNL     1      43.290  10.092  -3.020  1.00  0.00    -0.001 C 
HETATM    6  C16 UNL     1      42.391  11.002  -3.815  1.00  0.00    -0.077 C 
HETATM    7  C17 UNL     1      40.966  10.518  -3.902  1.00  0.00     0.044 C 
HETATM    8  C18 UNL     1      42.496  12.456  -3.703  1.00  0.00     0.052 A 
HETATM    9  C19 UNL     1      43.198  13.311  -4.665  1.00  0.00     0.134 A 
HETATM   10  C20 UNL     1      43.859  13.038  -3.356  1.00  0.00     0.059 A 
HETATM   11  C21 UNL     1      43.811  14.080  -2.337  1.00  0.00     0.156 C 
HETATM   12  C22 UNL     1      44.494  13.939  -1.026  1.00  0.00    -0.028 C 
HETATM   13  C29 UNL     1      45.273  13.072  -0.522  1.00  0.00     0.013 C 
HETATM   14  C30 UNL     1      46.082  11.852  -0.452  1.00  0.00     0.163 C 
ENDROOT
BRANCH   1  15
HETATM   15  C2  UNL     1      46.729  10.808   1.753  1.00  0.00    -0.061 C 
HETATM   16  C1  UNL     1      46.883  11.560   2.713  1.00  0.00     0.019 C 
BRANCH  15  17
HETATM   17  C3  UNL     1      47.602   9.640   1.556  1.00  0.00     0.003 C 
HETATM   18  C4  UNL     1      48.029   8.728   2.322  1.00  0.00    -0.018 C 
BRANCH  18  19
HETATM   19  C5  UNL     1      48.934   7.652   1.779  1.00  0.00     0.027 C 
HETATM   20  C6  UNL     1      48.190   6.797   0.779  1.00  0.00     0.018 C 
BRANCH  19  21
HETATM   21  C7  UNL     1      50.093   8.243   1.116  1.00  0.00    -0.012 C 
HETATM   22  C8  UNL     1      50.804   7.750   0.120  1.00  0.00     0.079 C 
BRANCH  22  23
HETATM   23  C9  UNL     1      51.943   8.511  -0.410  1.00  0.00     0.282 C 
HETATM   24  O1  UNL     1      52.936   7.822  -0.826  1.00  0.00    -0.260 OA
BRANCH  23  25
HETATM   25  O2  UNL     1      52.040   9.857  -0.492  1.00  0.00    -0.323 OA
HETATM   26  C10 UNL     1      52.899  10.506  -1.444  1.00  0.00     0.213 C 
ENDBRANCH  23  25
ENDBRANCH  22  23
ENDBRANCH  19  21
ENDBRANCH  18  19
ENDBRANCH  15  17
ENDBRANCH   1  15
BRANCH  14  27
HETATM   27  O7  UNL     1      46.346  11.192  -1.608  1.00  0.00    -0.312 OA
BRANCH  27  28
HETATM   28  C31 UNL     1      47.483  10.866  -2.274  1.00  0.00     0.255 C 
HETATM   29  C32 UNL     1      48.225   9.578  -2.050  1.00  0.00     0.126 C 
HETATM   30  O8  UNL     1      47.926  11.684  -3.114  1.00  0.00    -0.266 OA
ENDBRANCH  27  28
ENDBRANCH  14  27
BRANCH  12  31
HETATM   31  C23 UNL     1      44.061  15.134  -0.167  1.00  0.00     0.215 C 
BRANCH  31  32
HETATM   32  O5  UNL     1      44.164  15.007   1.196  1.00  0.00    -0.317 OA
BRANCH  32  33
HETATM   33  C24 UNL     1      44.492  16.034   2.025  1.00  0.00     0.266 C 
HETATM   34  O6  UNL     1      43.888  17.122   1.795  1.00  0.00    -0.264 OA
BRANCH  33  35
HETATM   35  C25 UNL     1      45.442  16.049   3.134  1.00  0.00     0.037 C 
HETATM   36  C26 UNL     1      46.410  17.183   3.019  1.00  0.00     0.025 C 
HETATM   37  C27 UNL     1      46.225  14.751   3.260  1.00  0.00     0.025 C 
HETATM   38  C28 UNL     1      44.681  16.271   4.452  1.00  0.00     0.025 C 
ENDBRANCH  33  35
ENDBRANCH  32  33
ENDBRANCH  31  32
ENDBRANCH  12  31
BRANCH  11  39
HETATM   39  O4  UNL     1      44.124  15.289  -2.947  1.00  0.00    -0.391 OA
ATOM     40  H4  UNL     1      44.398  15.106  -3.837  1.00  0.00     0.210 HD
ENDBRANCH  11  39
BRANCH   9  41
HETATM   41  O3  UNL     1      42.628  14.575  -4.856  1.00  0.00    -0.394 OA
ATOM     42  H3  UNL     1      42.070  14.651  -5.621  1.00  0.00     0.210 HD
ENDBRANCH   9  41
TORSDOF 14
ENDMDL
