MODEL 1
REMARK VINA RESULT: -7.429956710      0.000      0.000
REMARK  13 active torsions:
REMARK  status: ('A' for Active; 'I' for Inactive)
REMARK    1  A    between atoms: C2_2  and  O2_4 
REMARK    2  A    between atoms: O2_4  and  C3_5 
REMARK    3  A    between atoms: C3_5  and  C4_6 
REMARK    4  A    between atoms: C3_5  and  C20_24 
REMARK    5  A    between atoms: C4_6  and  C6_8 
REMARK    6  A    between atoms: C6_8  and  C7_9 
REMARK    7  A    between atoms: C7_9  and  C9_11 
REMARK    8  A    between atoms: C13_16  and  C14_17 
REMARK    9  A    between atoms: C20_24  and  C22_26 
REMARK   10  A    between atoms: C22_26  and  C23_27 
REMARK   11  A    between atoms: C30_35  and  O6_36 
REMARK   12  A    between atoms: C31_38  and  O7_39 
REMARK   13  A    between atoms: C32_41  and  O8_42 
ROOT
HETATM    1  C3  UNL     1      49.768   8.520  -0.611  1.00  0.00     0.143 C 
ENDROOT
BRANCH   1   2
HETATM    2  O2  UNL     1      50.730   8.561  -1.729  1.00  0.00    -0.315 OA
BRANCH   2   3
HETATM    3  C2  UNL     1      51.981   9.120  -1.580  1.00  0.00     0.255 C 
HETATM    4  C1  UNL     1      52.813   9.352  -2.798  1.00  0.00     0.126 C 
HETATM    5  O1  UNL     1      52.372   9.413  -0.434  1.00  0.00    -0.266 OA
ENDBRANCH   2   3
ENDBRANCH   1   2
BRANCH   1   6
HETATM    6  C4  UNL     1      48.635   9.345  -0.942  1.00  0.00     0.012 C 
HETATM    7  C5  UNL     1      48.491   9.828  -2.359  1.00  0.00     0.012 C 
BRANCH   6   8
HETATM    8  C6  UNL     1      47.303   9.174  -0.335  1.00  0.00     0.014 C 
BRANCH   8   9
HETATM    9  C7  UNL     1      46.978   9.766   0.985  1.00  0.00     0.018 C 
HETATM   10  C8  UNL     1      47.801   9.352   2.160  1.00  0.00     0.013 C 
BRANCH   9  11
HETATM   11  C9  UNL     1      46.885  11.277   0.962  1.00  0.00     0.195 C 
HETATM   12  O3  UNL     1      46.555  11.783  -0.264  1.00  0.00    -0.367 OA
HETATM   13  C10 UNL     1      45.326  12.270  -0.508  1.00  0.00     0.062 C 
HETATM   14  C11 UNL     1      45.407  13.198  -1.728  1.00  0.00     0.046 C 
HETATM   15  C12 UNL     1      44.527  11.064  -1.106  1.00  0.00     0.046 C 
HETATM   16  C13 UNL     1      44.521  12.801   0.561  1.00  0.00     0.049 C 
HETATM   17  C18 UNL     1      44.534  11.815   1.757  1.00  0.00     0.092 C 
HETATM   18  C19 UNL     1      45.991  11.699   2.065  1.00  0.00     0.156 C 
HETATM   19  O4  UNL     1      46.356  11.961   3.205  1.00  0.00    -0.295 OA
BRANCH  16  20
HETATM   20  C14 UNL     1      44.617  14.107   1.154  1.00  0.00    -0.017 C 
HETATM   21  C15 UNL     1      44.353  15.326   0.914  1.00  0.00    -0.091 C 
HETATM   22  C16 UNL     1      44.696  16.360   1.990  1.00  0.00     0.042 C 
HETATM   23  C17 UNL     1      43.776  15.912  -0.292  1.00  0.00     0.042 C 
ENDBRANCH  16  20
ENDBRANCH   9  11
ENDBRANCH   8   9
ENDBRANCH   6   8
ENDBRANCH   1   6
BRANCH   1  24
HETATM   24  C20 UNL     1      49.569   7.018  -0.349  1.00  0.00     0.034 C 
HETATM   25  C21 UNL     1      49.226   6.456  -1.702  1.00  0.00     0.017 C 
BRANCH  24  26
HETATM   26  C22 UNL     1      50.660   6.469   0.402  1.00  0.00    -0.014 C 
BRANCH  26  27
HETATM   27  C23 UNL     1      50.665   6.151   1.839  1.00  0.00    -0.041 C 
HETATM   28  C24 UNL     1      50.688   4.739   2.295  1.00  0.00     0.083 C 
HETATM   29  C25 UNL     1      50.600   3.691   1.220  1.00  0.00     0.023 C 
HETATM   30  C26 UNL     1      51.796   4.398   3.216  1.00  0.00     0.145 C 
HETATM   31  O5  UNL     1      52.412   3.422   2.837  1.00  0.00    -0.296 OA
HETATM   32  C27 UNL     1      52.357   4.921   4.469  1.00  0.00     0.042 C 
HETATM   33  C28 UNL     1      52.061   3.916   5.600  1.00  0.00     0.026 C 
HETATM   34  C29 UNL     1      53.885   4.855   4.319  1.00  0.00     0.026 C 
HETATM   35  C30 UNL     1      51.898   6.231   4.952  1.00  0.00     0.165 C 
HETATM   36  C31 UNL     1      50.914   6.983   4.129  1.00  0.00     0.180 C 
HETATM   37  C32 UNL     1      51.462   7.093   2.724  1.00  0.00     0.179 C 
BRANCH  35  38
HETATM   38  O6  UNL     1      53.039   7.066   5.067  1.00  0.00    -0.392 OA
ATOM     39  H6  UNL     1      53.717   6.563   5.503  1.00  0.00     0.210 HD
ENDBRANCH  35  38
BRANCH  36  40
HETATM   40  O7  UNL     1      49.613   6.565   4.210  1.00  0.00    -0.390 OA
ATOM     41  H7  UNL     1      49.273   6.102   3.454  1.00  0.00     0.210 HD
ENDBRANCH  36  40
BRANCH  37  42
HETATM   42  O8  UNL     1      51.198   8.381   2.246  1.00  0.00    -0.389 OA
ATOM     43  H8  UNL     1      51.560   8.977   2.892  1.00  0.00     0.210 HD
ENDBRANCH  37  42
ENDBRANCH  26  27
ENDBRANCH  24  26
ENDBRANCH   1  24
TORSDOF 13
ENDMDL
MODEL 2
REMARK VINA RESULT: -7.332383027      1.432      2.326
REMARK  13 active torsions:
REMARK  status: ('A' for Active; 'I' for Inactive)
REMARK    1  A    between atoms: C2_2  and  O2_4 
REMARK    2  A    between atoms: O2_4  and  C3_5 
REMARK    3  A    between atoms: C3_5  and  C4_6 
REMARK    4  A    between atoms: C3_5  and  C20_24 
REMARK    5  A    between atoms: C4_6  and  C6_8 
REMARK    6  A    between atoms: C6_8  and  C7_9 
REMARK    7  A    between atoms: C7_9  and  C9_11 
REMARK    8  A    between atoms: C13_16  and  C14_17 
REMARK    9  A    between atoms: C20_24  and  C22_26 
REMARK   10  A    between atoms: C22_26  and  C23_27 
REMARK   11  A    between atoms: C30_35  and  O6_36 
REMARK   12  A    between atoms: C31_38  and  O7_39 
REMARK   13  A    between atoms: C32_41  and  O8_42 
ROOT
HETATM    1  C3  UNL     1      49.691   7.509  -0.160  1.00  0.00     0.143 C 
ENDROOT
BRANCH   1   2
HETATM    2  O2  UNL     1      48.762   6.727  -0.998  1.00  0.00    -0.315 OA
BRANCH   2   3
HETATM    3  C2  UNL     1      48.908   6.664  -2.367  1.00  0.00     0.255 C 
HETATM    4  C1  UNL     1      50.121   5.996  -2.929  1.00  0.00     0.126 C 
HETATM    5  O1  UNL     1      48.025   7.167  -3.087  1.00  0.00    -0.266 OA
ENDBRANCH   2   3
ENDBRANCH   1   2
BRANCH   1   6
HETATM    6  C4  UNL     1      49.275   8.887  -0.167  1.00  0.00     0.012 C 
HETATM    7  C5  UNL     1      50.139   9.892  -0.879  1.00  0.00     0.012 C 
BRANCH   6   8
HETATM    8  C6  UNL     1      47.864   9.307  -0.229  1.00  0.00     0.014 C 
BRANCH   8   9
HETATM    9  C7  UNL     1      47.175   9.870   0.957  1.00  0.00     0.018 C 
HETATM   10  C8  UNL     1      47.692   9.498   2.307  1.00  0.00     0.013 C 
BRANCH   9  11
HETATM   11  C9  UNL     1      47.002  11.372   0.897  1.00  0.00     0.195 C 
HETATM   12  O3  UNL     1      46.650  11.831  -0.341  1.00  0.00    -0.367 OA
HETATM   13  C10 UNL     1      45.398  12.246  -0.601  1.00  0.00     0.062 C 
HETATM   14  C11 UNL     1      45.434  13.147  -1.843  1.00  0.00     0.046 C 
HETATM   15  C12 UNL     1      44.667  10.985  -1.172  1.00  0.00     0.046 C 
HETATM   16  C13 UNL     1      44.561  12.758   0.453  1.00  0.00     0.049 C 
HETATM   17  C18 UNL     1      44.622  11.803   1.673  1.00  0.00     0.092 C 
HETATM   18  C19 UNL     1      46.082  11.772   1.987  1.00  0.00     0.156 C 
HETATM   19  O4  UNL     1      46.428  12.080   3.121  1.00  0.00    -0.295 OA
BRANCH  16  20
HETATM   20  C14 UNL     1      44.585  14.081   1.015  1.00  0.00    -0.017 C 
HETATM   21  C15 UNL     1      44.296  15.284   0.729  1.00  0.00    -0.091 C 
HETATM   22  C16 UNL     1      44.549  16.356   1.793  1.00  0.00     0.042 C 
HETATM   23  C17 UNL     1      43.765  15.821  -0.520  1.00  0.00     0.042 C 
ENDBRANCH  16  20
ENDBRANCH   9  11
ENDBRANCH   8   9
ENDBRANCH   6   8
ENDBRANCH   1   6
BRANCH   1  24
HETATM   24  C20 UNL     1      49.737   6.731   1.166  1.00  0.00     0.034 C 
HETATM   25  C21 UNL     1      49.935   5.301   0.741  1.00  0.00     0.017 C 
BRANCH  24  26
HETATM   26  C22 UNL     1      50.645   7.336   2.096  1.00  0.00    -0.014 C 
BRANCH  26  27
HETATM   27  C23 UNL     1      51.233   6.703   3.288  1.00  0.00    -0.041 C 
HETATM   28  C24 UNL     1      50.380   6.362   4.454  1.00  0.00     0.083 C 
HETATM   29  C25 UNL     1      48.942   6.795   4.376  1.00  0.00     0.023 C 
HETATM   30  C26 UNL     1      50.440   4.945   4.878  1.00  0.00     0.145 C 
HETATM   31  O5  UNL     1      49.331   4.457   4.971  1.00  0.00    -0.296 OA
HETATM   32  C27 UNL     1      51.478   3.963   5.218  1.00  0.00     0.042 C 
HETATM   33  C28 UNL     1      51.402   3.666   6.729  1.00  0.00     0.026 C 
HETATM   34  C29 UNL     1      51.049   2.638   4.568  1.00  0.00     0.026 C 
HETATM   35  C30 UNL     1      52.881   4.297   4.934  1.00  0.00     0.165 C 
HETATM   36  C31 UNL     1      53.180   5.599   4.282  1.00  0.00     0.180 C 
HETATM   37  C32 UNL     1      52.342   5.700   3.027  1.00  0.00     0.179 C 
BRANCH  35  38
HETATM   38  O6  UNL     1      53.391   3.294   4.070  1.00  0.00    -0.392 OA
ATOM     39  H6  UNL     1      54.337   3.384   4.057  1.00  0.00     0.210 HD
ENDBRANCH  35  38
BRANCH  36  40
HETATM   40  O7  UNL     1      53.145   6.703   5.090  1.00  0.00    -0.390 OA
ATOM     41  H7  UNL     1      52.383   7.264   5.001  1.00  0.00     0.210 HD
ENDBRANCH  36  40
BRANCH  37  42
HETATM   42  O8  UNL     1      53.130   6.256   2.013  1.00  0.00    -0.389 OA
ATOM     43  H8  UNL     1      53.701   5.558   1.715  1.00  0.00     0.210 HD
ENDBRANCH  37  42
ENDBRANCH  26  27
ENDBRANCH  24  26
ENDBRANCH   1  24
TORSDOF 13
ENDMDL
MODEL 3
REMARK VINA RESULT: -7.249767705      2.456      4.936
REMARK  13 active torsions:
REMARK  status: ('A' for Active; 'I' for Inactive)
REMARK    1  A    between atoms: C2_2  and  O2_4 
REMARK    2  A    between atoms: O2_4  and  C3_5 
REMARK    3  A    between atoms: C3_5  and  C4_6 
REMARK    4  A    between atoms: C3_5  and  C20_24 
REMARK    5  A    between atoms: C4_6  and  C6_8 
REMARK    6  A    between atoms: C6_8  and  C7_9 
REMARK    7  A    between atoms: C7_9  and  C9_11 
REMARK    8  A    between atoms: C13_16  and  C14_17 
REMARK    9  A    between atoms: C20_24  and  C22_26 
REMARK   10  A    between atoms: C22_26  and  C23_27 
REMARK   11  A    between atoms: C30_35  and  O6_36 
REMARK   12  A    between atoms: C31_38  and  O7_39 
REMARK   13  A    between atoms: C32_41  and  O8_42 
ROOT
HETATM    1  C3  UNL     1      51.941   5.435   1.310  1.00  0.00     0.143 C 
ENDROOT
BRANCH   1   2
HETATM    2  O2  UNL     1      53.034   5.971   0.475  1.00  0.00    -0.315 OA
BRANCH   2   3
HETATM    3  C2  UNL     1      52.805   6.956  -0.460  1.00  0.00     0.255 C 
HETATM    4  C1  UNL     1      53.094   6.663  -1.897  1.00  0.00     0.126 C 
HETATM    5  O1  UNL     1      52.366   8.056  -0.075  1.00  0.00    -0.266 OA
ENDBRANCH   2   3
ENDBRANCH   1   2
BRANCH   1   6
HETATM    6  C4  UNL     1      51.092   4.609   0.492  1.00  0.00     0.012 C 
HETATM    7  C5  UNL     1      51.249   3.116   0.577  1.00  0.00     0.012 C 
BRANCH   6   8
HETATM    8  C6  UNL     1      49.693   4.948   0.178  1.00  0.00     0.014 C 
BRANCH   8   9
HETATM    9  C7  UNL     1      49.349   6.175  -0.580  1.00  0.00     0.018 C 
HETATM   10  C8  UNL     1      49.231   6.071  -2.064  1.00  0.00     0.013 C 
BRANCH   9  11
HETATM   11  C9  UNL     1      48.130   6.893  -0.042  1.00  0.00     0.195 C 
HETATM   12  O3  UNL     1      48.017   6.831   1.318  1.00  0.00    -0.367 OA
HETATM   13  C10 UNL     1      48.285   7.899   2.089  1.00  0.00     0.062 C 
HETATM   14  C11 UNL     1      47.600   7.700   3.448  1.00  0.00     0.046 C 
HETATM   15  C12 UNL     1      49.789   7.739   2.490  1.00  0.00     0.046 C 
HETATM   16  C13 UNL     1      48.144   9.234   1.569  1.00  0.00     0.049 C 
HETATM   17  C18 UNL     1      48.831   9.325   0.182  1.00  0.00     0.092 C 
HETATM   18  C19 UNL     1      48.123   8.266  -0.599  1.00  0.00     0.156 C 
HETATM   19  O4  UNL     1      47.581   8.597  -1.647  1.00  0.00    -0.295 OA
BRANCH  16  20
HETATM   20  C14 UNL     1      46.927   9.988   1.430  1.00  0.00    -0.017 C 
HETATM   21  C15 UNL     1      46.412  11.105   1.748  1.00  0.00    -0.091 C 
HETATM   22  C16 UNL     1      44.977  11.388   1.295  1.00  0.00     0.042 C 
HETATM   23  C17 UNL     1      46.997  12.187   2.534  1.00  0.00     0.042 C 
ENDBRANCH  16  20
ENDBRANCH   9  11
ENDBRANCH   8   9
ENDBRANCH   6   8
ENDBRANCH   1   6
BRANCH   1  24
HETATM   24  C20 UNL     1      52.667   4.824   2.520  1.00  0.00     0.034 C 
HETATM   25  C21 UNL     1      54.120   4.868   2.132  1.00  0.00     0.017 C 
BRANCH  24  26
HETATM   26  C22 UNL     1      52.232   5.423   3.748  1.00  0.00    -0.014 C 
BRANCH  26  27
HETATM   27  C23 UNL     1      51.785   4.716   4.960  1.00  0.00    -0.041 C 
HETATM   28  C24 UNL     1      50.406   4.175   5.047  1.00  0.00     0.083 C 
HETATM   29  C25 UNL     1      49.496   4.484   3.891  1.00  0.00     0.023 C 
HETATM   30  C26 UNL     1      50.322   2.730   5.361  1.00  0.00     0.145 C 
HETATM   31  O5  UNL     1      49.619   2.139   4.565  1.00  0.00    -0.296 OA
HETATM   32  C27 UNL     1      50.858   1.812   6.374  1.00  0.00     0.042 C 
HETATM   33  C28 UNL     1      49.701   1.345   7.279  1.00  0.00     0.026 C 
HETATM   34  C29 UNL     1      51.269   0.534   5.626  1.00  0.00     0.026 C 
HETATM   35  C30 UNL     1      51.913   2.299   7.274  1.00  0.00     0.165 C 
HETATM   36  C31 UNL     1      52.415   3.686   7.091  1.00  0.00     0.180 C 
HETATM   37  C32 UNL     1      52.827   3.850   5.645  1.00  0.00     0.179 C 
BRANCH  35  38
HETATM   38  O6  UNL     1      53.036   1.446   7.113  1.00  0.00    -0.392 OA
ATOM     39  H6  UNL     1      52.734   0.553   7.225  1.00  0.00     0.210 HD
ENDBRANCH  35  38
BRANCH  36  40
HETATM   40  O7  UNL     1      51.621   4.687   7.582  1.00  0.00    -0.390 OA
ATOM     41  H7  UNL     1      52.054   5.342   8.115  1.00  0.00     0.210 HD
ENDBRANCH  36  40
BRANCH  37  42
HETATM   42  O8  UNL     1      54.019   4.583   5.606  1.00  0.00    -0.389 OA
ATOM     43  H8  UNL     1      54.633   4.111   6.157  1.00  0.00     0.210 HD
ENDBRANCH  37  42
ENDBRANCH  26  27
ENDBRANCH  24  26
ENDBRANCH   1  24
TORSDOF 13
ENDMDL
MODEL 4
REMARK VINA RESULT: -7.179158893      2.553      4.986
REMARK  13 active torsions:
REMARK  status: ('A' for Active; 'I' for Inactive)
REMARK    1  A    between atoms: C2_2  and  O2_4 
REMARK    2  A    between atoms: O2_4  and  C3_5 
REMARK    3  A    between atoms: C3_5  and  C4_6 
REMARK    4  A    between atoms: C3_5  and  C20_24 
REMARK    5  A    between atoms: C4_6  and  C6_8 
REMARK    6  A    between atoms: C6_8  and  C7_9 
REMARK    7  A    between atoms: C7_9  and  C9_11 
REMARK    8  A    between atoms: C13_16  and  C14_17 
REMARK    9  A    between atoms: C20_24  and  C22_26 
REMARK   10  A    between atoms: C22_26  and  C23_27 
REMARK   11  A    between atoms: C30_35  and  O6_36 
REMARK   12  A    between atoms: C31_38  and  O7_39 
REMARK   13  A    between atoms: C32_41  and  O8_42 
ROOT
HETATM    1  C3  UNL     1      53.757   5.514   1.278  1.00  0.00     0.143 C 
ENDROOT
BRANCH   1   2
HETATM    2  O2  UNL     1      54.817   4.897   0.457  1.00  0.00    -0.315 OA
BRANCH   2   3
HETATM    3  C2  UNL     1      55.557   5.640  -0.436  1.00  0.00     0.255 C 
HETATM    4  C1  UNL     1      55.340   5.428  -1.899  1.00  0.00     0.126 C 
HETATM    5  O1  UNL     1      56.380   6.464   0.008  1.00  0.00    -0.266 OA
ENDBRANCH   2   3
ENDBRANCH   1   2
BRANCH   1   6
HETATM    6  C4  UNL     1      52.654   5.869   0.424  1.00  0.00     0.012 C 
HETATM    7  C5  UNL     1      51.705   4.785  -0.008  1.00  0.00     0.012 C 
BRANCH   6   8
HETATM    8  C6  UNL     1      51.937   7.153   0.518  1.00  0.00     0.014 C 
BRANCH   8   9
HETATM    9  C7  UNL     1      50.794   7.329   1.445  1.00  0.00     0.018 C 
HETATM   10  C8  UNL     1      51.092   7.518   2.896  1.00  0.00     0.013 C 
BRANCH   9  11
HETATM   11  C9  UNL     1      49.820   8.401   1.003  1.00  0.00     0.195 C 
HETATM   12  O3  UNL     1      49.555   8.377  -0.337  1.00  0.00    -0.367 OA
HETATM   13  C10 UNL     1      48.382   7.916  -0.806  1.00  0.00     0.062 C 
HETATM   14  C11 UNL     1      48.175   8.472  -2.222  1.00  0.00     0.046 C 
HETATM   15  C12 UNL     1      48.640   6.404  -1.118  1.00  0.00     0.046 C 
HETATM   16  C13 UNL     1      47.195   7.967   0.006  1.00  0.00     0.049 C 
HETATM   17  C18 UNL     1      47.514   7.424   1.423  1.00  0.00     0.092 C 
HETATM   18  C19 UNL     1      48.622   8.319   1.871  1.00  0.00     0.156 C 
HETATM   19  O4  UNL     1      48.473   8.930   2.923  1.00  0.00    -0.295 OA
BRANCH  16  20
HETATM   20  C14 UNL     1      46.342   9.104   0.228  1.00  0.00    -0.017 C 
HETATM   21  C15 UNL     1      45.169   9.524  -0.017  1.00  0.00    -0.091 C 
HETATM   22  C16 UNL     1      44.779  10.911   0.505  1.00  0.00     0.042 C 
HETATM   23  C17 UNL     1      44.105   8.868  -0.772  1.00  0.00     0.042 C 
ENDBRANCH  16  20
ENDBRANCH   9  11
ENDBRANCH   8   9
ENDBRANCH   6   8
ENDBRANCH   1   6
BRANCH   1  24
HETATM   24  C20 UNL     1      53.545   4.510   2.423  1.00  0.00     0.034 C 
HETATM   25  C21 UNL     1      54.848   3.760   2.495  1.00  0.00     0.017 C 
BRANCH  24  26
HETATM   26  C22 UNL     1      53.020   5.153   3.592  1.00  0.00    -0.014 C 
BRANCH  26  27
HETATM   27  C23 UNL     1      52.327   4.502   4.716  1.00  0.00    -0.041 C 
HETATM   28  C24 UNL     1      51.004   3.861   4.511  1.00  0.00     0.083 C 
HETATM   29  C25 UNL     1      50.395   4.015   3.145  1.00  0.00     0.023 C 
HETATM   30  C26 UNL     1      50.928   2.441   4.922  1.00  0.00     0.145 C 
HETATM   31  O5  UNL     1      50.482   1.741   4.034  1.00  0.00    -0.296 OA
HETATM   32  C27 UNL     1      51.247   1.643   6.113  1.00  0.00     0.042 C 
HETATM   33  C28 UNL     1      49.929   1.152   6.746  1.00  0.00     0.026 C 
HETATM   34  C29 UNL     1      51.905   0.351   5.604  1.00  0.00     0.026 C 
HETATM   35  C30 UNL     1      52.013   2.273   7.197  1.00  0.00     0.165 C 
HETATM   36  C31 UNL     1      52.463   3.679   7.019  1.00  0.00     0.180 C 
HETATM   37  C32 UNL     1      53.213   3.772   5.709  1.00  0.00     0.179 C 
BRANCH  35  38
HETATM   38  O6  UNL     1      53.189   1.502   7.391  1.00  0.00    -0.392 OA
ATOM     39  H6  UNL     1      52.986   0.608   7.142  1.00  0.00     0.210 HD
ENDBRANCH  35  38
BRANCH  36  40
HETATM   40  O7  UNL     1      51.515   4.647   7.210  1.00  0.00    -0.390 OA
ATOM     41  H7  UNL     1      51.427   5.291   6.518  1.00  0.00     0.210 HD
ENDBRANCH  36  40
BRANCH  37  42
HETATM   42  O8  UNL     1      54.332   4.590   5.897  1.00  0.00    -0.389 OA
ATOM     43  H8  UNL     1      55.004   4.249   5.319  1.00  0.00     0.210 HD
ENDBRANCH  37  42
ENDBRANCH  26  27
ENDBRANCH  24  26
ENDBRANCH   1  24
TORSDOF 13
ENDMDL
MODEL 5
REMARK VINA RESULT: -7.132164545      2.548      9.145
REMARK  13 active torsions:
REMARK  status: ('A' for Active; 'I' for Inactive)
REMARK    1  A    between atoms: C2_2  and  O2_4 
REMARK    2  A    between atoms: O2_4  and  C3_5 
REMARK    3  A    between atoms: C3_5  and  C4_6 
REMARK    4  A    between atoms: C3_5  and  C20_24 
REMARK    5  A    between atoms: C4_6  and  C6_8 
REMARK    6  A    between atoms: C6_8  and  C7_9 
REMARK    7  A    between atoms: C7_9  and  C9_11 
REMARK    8  A    between atoms: C13_16  and  C14_17 
REMARK    9  A    between atoms: C20_24  and  C22_26 
REMARK   10  A    between atoms: C22_26  and  C23_27 
REMARK   11  A    between atoms: C30_35  and  O6_36 
REMARK   12  A    between atoms: C31_38  and  O7_39 
REMARK   13  A    between atoms: C32_41  and  O8_42 
ROOT
HETATM    1  C3  UNL     1      45.052  11.692  -1.707  1.00  0.00     0.143 C 
ENDROOT
BRANCH   1   2
HETATM    2  O2  UNL     1      44.862  13.027  -2.308  1.00  0.00    -0.315 OA
BRANCH   2   3
HETATM    3  C2  UNL     1      43.670  13.383  -2.901  1.00  0.00     0.255 C 
HETATM    4  C1  UNL     1      42.899  12.343  -3.645  1.00  0.00     0.126 C 
HETATM    5  O1  UNL     1      43.278  14.561  -2.793  1.00  0.00    -0.266 OA
ENDBRANCH   2   3
ENDBRANCH   1   2
BRANCH   1   6
HETATM    6  C4  UNL     1      46.359  11.204  -2.064  1.00  0.00     0.012 C 
HETATM    7  C5  UNL     1      46.563  10.648  -3.446  1.00  0.00     0.012 C 
BRANCH   6   8
HETATM    8  C6  UNL     1      47.611  11.813  -1.581  1.00  0.00     0.014 C 
BRANCH   8   9
HETATM    9  C7  UNL     1      48.883  11.051  -1.568  1.00  0.00     0.018 C 
HETATM   10  C8  UNL     1      50.094  11.701  -2.149  1.00  0.00     0.013 C 
BRANCH   9  11
HETATM   11  C9  UNL     1      49.235  10.490  -0.207  1.00  0.00     0.195 C 
HETATM   12  O3  UNL     1      48.214   9.795   0.377  1.00  0.00    -0.367 OA
HETATM   13  C10 UNL     1      48.235   8.453   0.448  1.00  0.00     0.062 C 
HETATM   14  C11 UNL     1      47.273   8.011   1.560  1.00  0.00     0.046 C 
HETATM   15  C12 UNL     1      47.457   7.972  -0.823  1.00  0.00     0.046 C 
HETATM   16  C13 UNL     1      49.484   7.737   0.455  1.00  0.00     0.049 C 
HETATM   17  C18 UNL     1      50.398   8.280  -0.674  1.00  0.00     0.092 C 
HETATM   18  C19 UNL     1      50.501   9.731  -0.337  1.00  0.00     0.156 C 
HETATM   19  O4  UNL     1      51.622  10.204  -0.186  1.00  0.00    -0.295 OA
BRANCH  16  20
HETATM   20  C14 UNL     1      50.360   7.532   1.576  1.00  0.00    -0.017 C 
HETATM   21  C15 UNL     1      50.648   6.670   2.463  1.00  0.00    -0.091 C 
HETATM   22  C16 UNL     1      51.749   7.016   3.470  1.00  0.00     0.042 C 
HETATM   23  C17 UNL     1      50.045   5.360   2.690  1.00  0.00     0.042 C 
ENDBRANCH  16  20
ENDBRANCH   9  11
ENDBRANCH   8   9
ENDBRANCH   6   8
ENDBRANCH   1   6
BRANCH   1  24
HETATM   24  C20 UNL     1      44.691  11.899  -0.227  1.00  0.00     0.034 C 
HETATM   25  C21 UNL     1      44.761  10.515   0.360  1.00  0.00     0.017 C 
BRANCH  24  26
HETATM   26  C22 UNL     1      45.455  12.965   0.354  1.00  0.00    -0.014 C 
BRANCH  26  27
HETATM   27  C23 UNL     1      45.069  13.792   1.509  1.00  0.00    -0.041 C 
HETATM   28  C24 UNL     1      45.751  13.619   2.816  1.00  0.00     0.083 C 
HETATM   29  C25 UNL     1      46.752  12.502   2.901  1.00  0.00     0.023 C 
HETATM   30  C26 UNL     1      46.348  14.853   3.377  1.00  0.00     0.145 C 
HETATM   31  O5  UNL     1      47.513  14.689   3.682  1.00  0.00    -0.296 OA
HETATM   32  C27 UNL     1      45.916  16.227   3.666  1.00  0.00     0.042 C 
HETATM   33  C28 UNL     1      45.859  16.415   5.195  1.00  0.00     0.026 C 
HETATM   34  C29 UNL     1      47.070  17.144   3.232  1.00  0.00     0.026 C 
HETATM   35  C30 UNL     1      44.617  16.678   3.148  1.00  0.00     0.165 C 
HETATM   36  C31 UNL     1      43.817  15.734   2.322  1.00  0.00     0.180 C 
HETATM   37  C32 UNL     1      44.696  15.231   1.199  1.00  0.00     0.179 C 
BRANCH  35  38
HETATM   38  O6  UNL     1      44.856  17.814   2.331  1.00  0.00    -0.392 OA
ATOM     39  H6  UNL     1      44.069  18.346   2.348  1.00  0.00     0.210 HD
ENDBRANCH  35  38
BRANCH  36  40
HETATM   40  O7  UNL     1      43.138  14.761   3.004  1.00  0.00    -0.390 OA
ATOM     41  H7  UNL     1      42.342  15.035   3.444  1.00  0.00     0.210 HD
ENDBRANCH  36  40
BRANCH  37  42
HETATM   42  O8  UNL     1      43.932  15.184   0.027  1.00  0.00    -0.389 OA
ATOM     43  H8  UNL     1      43.121  14.749   0.263  1.00  0.00     0.210 HD
ENDBRANCH  37  42
ENDBRANCH  26  27
ENDBRANCH  24  26
ENDBRANCH   1  24
TORSDOF 13
ENDMDL
