MODEL 1
REMARK VINA RESULT: -6.545467159      0.000      0.000
REMARK  1 active torsions:
REMARK  status: ('A' for Active; 'I' for Inactive)
REMARK    1  A    between atoms: N1_1  and  C1_4 
REMARK       I    between atoms: N4_13  and  C4_14 
REMARK       I    between atoms: C4_14  and  N5_15 
REMARK       I    between atoms: C4_14  and  N6_19 
ROOT
HETATM    1  C1  UNL     1       6.943 105.687  12.856  1.00  0.00     0.689 A 
HETATM    2  N2  UNL     1       6.304 104.522  12.670  1.00  0.00    -0.141 N 
ATOM      3  H2  UNL     1       5.354 104.543  12.299  1.00  0.00     0.189 HD
HETATM    4  C2  UNL     1       6.857 103.327  12.948  1.00  0.00     0.342 A 
HETATM    5  O1  UNL     1       6.226 102.236  12.761  1.00  0.00    -0.246 OA
HETATM    6  N3  UNL     1       8.111 103.314  13.437  1.00  0.00    -0.259 N 
ATOM      7  H3  UNL     1       8.563 102.428  13.661  1.00  0.00     0.175 HD
HETATM    8  C3  UNL     1       8.766 104.470  13.630  1.00  0.00     0.348 A 
HETATM    9  O2  UNL     1       9.954 104.412  14.096  1.00  0.00    -0.246 OA
HETATM   10  N4  UNL     1       8.196 105.650  13.346  1.00  0.00    -0.077 N 
HETATM   11  C4  UNL     1       8.969 106.860  13.583  1.00  0.00     0.505 C 
HETATM   12  N5  UNL     1      10.340 106.454  13.805  1.00  0.00    -0.032 N 
ATOM     13  H51 UNL     1      10.881 107.302  13.972  1.00  0.00     0.279 HD
ATOM     14  H52 UNL     1      10.715 105.881  13.049  1.00  0.00     0.279 HD
ATOM     15  H53 UNL     1      10.436 105.765  14.552  1.00  0.00     0.279 HD
HETATM   16  N6  UNL     1       8.461 107.557  14.751  1.00  0.00    -0.032 N 
ATOM     17  H61 UNL     1       9.003 108.406  14.918  1.00  0.00     0.279 HD
ATOM     18  H62 UNL     1       8.435 106.954  15.573  1.00  0.00     0.279 HD
ATOM     19  H63 UNL     1       7.463 107.751  14.675  1.00  0.00     0.279 HD
ENDROOT
BRANCH   1  20
HETATM   20  N1  UNL     1       6.394 106.806  12.585  1.00  0.00    -0.234 N 
ATOM     21  H12 UNL     1       5.402 106.846  12.347  1.00  0.00     0.174 HD
ATOM     22  H11 UNL     1       6.920 107.680  12.595  1.00  0.00     0.174 HD
ENDBRANCH   1  20
TORSDOF 1
ENDMDL
MODEL 2
REMARK VINA RESULT: -5.856929210      1.529      2.528
REMARK  1 active torsions:
REMARK  status: ('A' for Active; 'I' for Inactive)
REMARK    1  A    between atoms: N1_1  and  C1_4 
REMARK       I    between atoms: N4_13  and  C4_14 
REMARK       I    between atoms: C4_14  and  N5_15 
REMARK       I    between atoms: C4_14  and  N6_19 
ROOT
HETATM    1  C1  UNL     1       8.837 104.299  13.624  1.00  0.00     0.689 A 
HETATM    2  N2  UNL     1       8.212 103.221  13.126  1.00  0.00    -0.141 N 
ATOM      3  H2  UNL     1       8.714 102.333  13.110  1.00  0.00     0.189 HD
HETATM    4  C2  UNL     1       6.954 103.255  12.648  1.00  0.00     0.342 A 
HETATM    5  O1  UNL     1       6.385 102.215  12.182  1.00  0.00    -0.246 OA
HETATM    6  N3  UNL     1       6.304 104.433  12.676  1.00  0.00    -0.259 N 
ATOM      7  H3  UNL     1       5.349 104.498  12.322  1.00  0.00     0.175 HD
HETATM    8  C3  UNL     1       6.912 105.522  13.171  1.00  0.00     0.348 A 
HETATM    9  O2  UNL     1       6.259 106.620  13.178  1.00  0.00    -0.246 OA
HETATM   10  N4  UNL     1       8.167 105.466  13.642  1.00  0.00    -0.077 N 
HETATM   11  C4  UNL     1       8.760 106.690  14.161  1.00  0.00     0.505 C 
HETATM   12  N5  UNL     1       7.690 107.651  14.315  1.00  0.00    -0.032 N 
ATOM     13  H51 UNL     1       8.106 108.508  14.679  1.00  0.00     0.279 HD
ATOM     14  H52 UNL     1       6.921 107.304  14.889  1.00  0.00     0.279 HD
ATOM     15  H53 UNL     1       7.157 107.797  13.457  1.00  0.00     0.279 HD
HETATM   16  N6  UNL     1       9.754 107.197  13.231  1.00  0.00    -0.032 N 
ATOM     17  H61 UNL     1      10.170 108.054  13.595  1.00  0.00     0.279 HD
ATOM     18  H62 UNL     1       9.369 107.327  12.296  1.00  0.00     0.279 HD
ATOM     19  H63 UNL     1      10.459 106.495  13.008  1.00  0.00     0.279 HD
ENDROOT
BRANCH   1  20
HETATM   20  N1  UNL     1      10.030 104.238  14.069  1.00  0.00    -0.234 N 
ATOM     21  H12 UNL     1      10.301 104.784  14.887  1.00  0.00     0.174 HD
ATOM     22  H11 UNL     1      10.740 103.653  13.627  1.00  0.00     0.174 HD
ENDBRANCH   1  20
TORSDOF 1
ENDMDL
MODEL 3
REMARK VINA RESULT: -5.341921443      1.487      3.642
REMARK  1 active torsions:
REMARK  status: ('A' for Active; 'I' for Inactive)
REMARK    1  A    between atoms: N1_1  and  C1_4 
REMARK       I    between atoms: N4_13  and  C4_14 
REMARK       I    between atoms: C4_14  and  N5_15 
REMARK       I    between atoms: C4_14  and  N6_19 
ROOT
HETATM    1  C1  UNL     1       7.583 106.120  12.927  1.00  0.00     0.689 A 
HETATM    2  N2  UNL     1       8.480 106.886  13.565  1.00  0.00    -0.141 N 
ATOM      3  H2  UNL     1       8.437 107.896  13.435  1.00  0.00     0.189 HD
HETATM    4  C2  UNL     1       9.435 106.384  14.371  1.00  0.00     0.342 A 
HETATM    5  O1  UNL     1      10.275 107.135  14.966  1.00  0.00    -0.246 OA
HETATM    6  N3  UNL     1       9.480 105.048  14.534  1.00  0.00    -0.259 N 
ATOM      7  H3  UNL     1      10.190 104.631  15.136  1.00  0.00     0.175 HD
HETATM    8  C3  UNL     1       8.590 104.266  13.903  1.00  0.00     0.348 A 
HETATM    9  O2  UNL     1       8.669 103.004  14.086  1.00  0.00    -0.246 OA
HETATM   10  N4  UNL     1       7.647 104.787  13.105  1.00  0.00    -0.077 N 
HETATM   11  C4  UNL     1       6.718 103.875  12.454  1.00  0.00     0.505 C 
HETATM   12  N5  UNL     1       6.869 102.586  13.093  1.00  0.00    -0.032 N 
ATOM     13  H51 UNL     1       6.218 101.946  12.636  1.00  0.00     0.279 HD
ATOM     14  H52 UNL     1       6.749 102.624  14.105  1.00  0.00     0.279 HD
ATOM     15  H53 UNL     1       7.832 102.247  13.088  1.00  0.00     0.279 HD
HETATM   16  N6  UNL     1       7.030 103.769  11.040  1.00  0.00    -0.032 N 
ATOM     17  H61 UNL     1       6.379 103.130  10.583  1.00  0.00     0.279 HD
ATOM     18  H62 UNL     1       8.001 103.500  10.883  1.00  0.00     0.279 HD
ATOM     19  H63 UNL     1       7.051 104.681  10.585  1.00  0.00     0.279 HD
ENDROOT
BRANCH   1  20
HETATM   20  N1  UNL     1       6.690 106.623  12.168  1.00  0.00    -0.234 N 
ATOM     21  H12 UNL     1       6.480 107.620  12.214  1.00  0.00     0.174 HD
ATOM     22  H11 UNL     1       6.165 106.053  11.504  1.00  0.00     0.174 HD
ENDBRANCH   1  20
TORSDOF 1
ENDMDL
MODEL 4
REMARK VINA RESULT: -5.290129790      8.763     10.184
REMARK  1 active torsions:
REMARK  status: ('A' for Active; 'I' for Inactive)
REMARK    1  A    between atoms: N1_1  and  C1_4 
REMARK       I    between atoms: N4_13  and  C4_14 
REMARK       I    between atoms: C4_14  and  N5_15 
REMARK       I    between atoms: C4_14  and  N6_19 
ROOT
HETATM    1  C1  UNL     1       3.392 102.694   5.619  1.00  0.00     0.689 A 
HETATM    2  N2  UNL     1       2.229 103.128   5.111  1.00  0.00    -0.141 N 
ATOM      3  H2  UNL     1       2.130 104.122   4.903  1.00  0.00     0.189 HD
HETATM    4  C2  UNL     1       1.185 102.315   4.860  1.00  0.00     0.342 A 
HETATM    5  O1  UNL     1       0.092 102.756   4.376  1.00  0.00    -0.246 OA
HETATM    6  N3  UNL     1       1.329 101.006   5.138  1.00  0.00    -0.259 N 
ATOM      7  H3  UNL     1       0.560 100.359   4.963  1.00  0.00     0.175 HD
HETATM    8  C3  UNL     1       2.485 100.553   5.647  1.00  0.00     0.348 A 
HETATM    9  O2  UNL     1       2.579  99.303   5.897  1.00  0.00    -0.246 OA
HETATM   10  N4  UNL     1       3.512 101.381   5.889  1.00  0.00    -0.077 N 
HETATM   11  C4  UNL     1       4.734 100.815   6.443  1.00  0.00     0.505 C 
HETATM   12  N5  UNL     1       4.633  99.377   6.317  1.00  0.00    -0.032 N 
ATOM     13  H51 UNL     1       5.489  98.981   6.706  1.00  0.00     0.279 HD
ATOM     14  H52 UNL     1       4.448  99.071   5.362  1.00  0.00     0.279 HD
ATOM     15  H53 UNL     1       3.787  98.997   6.743  1.00  0.00     0.279 HD
HETATM   16  N6  UNL     1       4.866 101.184   7.841  1.00  0.00    -0.032 N 
ATOM     17  H61 UNL     1       5.723 100.788   8.230  1.00  0.00     0.279 HD
ATOM     18  H62 UNL     1       4.044 100.921   8.384  1.00  0.00     0.279 HD
ATOM     19  H63 UNL     1       4.818 102.194   7.975  1.00  0.00     0.279 HD
ENDROOT
BRANCH   1  20
HETATM   20  N1  UNL     1       4.363 103.487   5.848  1.00  0.00    -0.234 N 
ATOM     21  H12 UNL     1       4.261 104.487   5.670  1.00  0.00     0.174 HD
ATOM     22  H11 UNL     1       5.258 103.153   6.208  1.00  0.00     0.174 HD
ENDBRANCH   1  20
TORSDOF 1
ENDMDL
MODEL 5
REMARK VINA RESULT: -4.913070124      8.897     10.206
REMARK  1 active torsions:
REMARK  status: ('A' for Active; 'I' for Inactive)
REMARK    1  A    between atoms: N1_1  and  C1_4 
REMARK       I    between atoms: N4_13  and  C4_14 
REMARK       I    between atoms: C4_14  and  N5_15 
REMARK       I    between atoms: C4_14  and  N6_19 
ROOT
HETATM    1  C1  UNL     1       4.036 102.054   6.177  1.00  0.00     0.689 A 
HETATM    2  N2  UNL     1       3.114 102.861   5.629  1.00  0.00    -0.141 N 
ATOM      3  H2  UNL     1       3.257 103.869   5.685  1.00  0.00     0.189 HD
HETATM    4  C2  UNL     1       2.011 102.403   5.009  1.00  0.00     0.342 A 
HETATM    5  O1  UNL     1       1.153 103.193   4.496  1.00  0.00    -0.246 OA
HETATM    6  N3  UNL     1       1.836 101.070   4.942  1.00  0.00    -0.259 N 
ATOM      7  H3  UNL     1       1.012 100.685   4.480  1.00  0.00     0.175 HD
HETATM    8  C3  UNL     1       2.747 100.247   5.484  1.00  0.00     0.348 A 
HETATM    9  O2  UNL     1       2.542  98.989   5.398  1.00  0.00    -0.246 OA
HETATM   10  N4  UNL     1       3.840 100.725   6.098  1.00  0.00    -0.077 N 
HETATM   11  C4  UNL     1       4.782  99.770   6.663  1.00  0.00     0.505 C 
HETATM   12  N5  UNL     1       4.434  98.467   6.140  1.00  0.00    -0.032 N 
ATOM     13  H51 UNL     1       5.095  97.798   6.536  1.00  0.00     0.279 HD
ATOM     14  H52 UNL     1       4.401  98.441   5.121  1.00  0.00     0.279 HD
ATOM     15  H53 UNL     1       3.460  98.215   6.309  1.00  0.00     0.279 HD
HETATM   16  N6  UNL     1       4.683  99.767   8.112  1.00  0.00    -0.032 N 
ATOM     17  H61 UNL     1       5.343  99.098   8.508  1.00  0.00     0.279 HD
ATOM     18  H62 UNL     1       3.729  99.593   8.428  1.00  0.00     0.279 HD
ATOM     19  H63 UNL     1       4.804 100.700   8.504  1.00  0.00     0.279 HD
ENDROOT
BRANCH   1  20
HETATM   20  N1  UNL     1       5.071 102.516   6.761  1.00  0.00    -0.234 N 
ATOM     21  H12 UNL     1       5.757 101.879   7.167  1.00  0.00     0.174 HD
ATOM     22  H11 UNL     1       5.242 103.519   6.840  1.00  0.00     0.174 HD
ENDBRANCH   1  20
TORSDOF 1
ENDMDL
