MODEL 1
REMARK VINA RESULT: -5.351230173      0.000      0.000
REMARK  4 active torsions:
REMARK  status: ('A' for Active; 'I' for Inactive)
REMARK    1  A    between atoms: N1_1  and  S1_4 
REMARK    2  A    between atoms: S1_4  and  N2_5 
REMARK    3  A    between atoms: S1_4  and  C1_9 
REMARK    4  A    between atoms: N5_16  and  N6_17 
ROOT
HETATM    1  C1  UNL     1       7.839 105.389  13.544  1.00  0.00     0.241 A 
HETATM    2  N3  UNL     1       6.724 105.890  12.992  1.00  0.00    -0.270 N 
ATOM      3  H3  UNL     1       6.503 106.883  12.920  1.00  0.00     0.189 HD
HETATM    4  N4  UNL     1       5.954 104.907  12.556  1.00  0.00    -0.248 N 
ATOM      5  H4  UNL     1       5.048 104.994  12.095  1.00  0.00     0.192 HD
HETATM    6  C2  UNL     1       6.608 103.776  12.843  1.00  0.00     0.362 A 
HETATM    7  O2  UNL     1       6.182 102.619  12.575  1.00  0.00    -0.243 OA
HETATM    8  N5  UNL     1       7.754 104.050  13.443  1.00  0.00    -0.182 N 
ENDROOT
BRANCH   1   9
HETATM    9  S1  UNL     1       9.109 106.341  14.236  1.00  0.00     0.167 S 
HETATM   10  O1  UNL     1      10.115 105.473  14.968  1.00  0.00    -0.221 OA
BRANCH   9  11
HETATM   11  N1  UNL     1       9.915 106.987  13.058  1.00  0.00    -0.339 N 
ATOM     12  H12 UNL     1       9.889 106.632  12.102  1.00  0.00     0.167 HD
ATOM     13  H11 UNL     1      10.458 107.793  13.367  1.00  0.00     0.167 HD
ENDBRANCH   9  11
BRANCH   9  14
HETATM   14  N2  UNL     1       8.496 107.525  15.313  1.00  0.00    -0.339 N 
ATOM     15  H22 UNL     1       7.505 107.756  15.385  1.00  0.00     0.167 HD
ATOM     16  H21 UNL     1       9.238 107.960  15.861  1.00  0.00     0.167 HD
ENDBRANCH   9  14
ENDBRANCH   1   9
BRANCH   8  17
HETATM   17  N6  UNL     1       8.703 103.117  13.891  1.00  0.00    -0.332 N 
ATOM     18  H62 UNL     1       9.448 103.290  14.566  1.00  0.00     0.177 HD
ATOM     19  H61 UNL     1       8.776 102.142  13.604  1.00  0.00     0.177 HD
ENDBRANCH   8  17
TORSDOF 4
ENDMDL
MODEL 2
REMARK VINA RESULT: -5.300812535      1.365      2.386
REMARK  4 active torsions:
REMARK  status: ('A' for Active; 'I' for Inactive)
REMARK    1  A    between atoms: N1_1  and  S1_4 
REMARK    2  A    between atoms: S1_4  and  N2_5 
REMARK    3  A    between atoms: S1_4  and  C1_9 
REMARK    4  A    between atoms: N5_16  and  N6_17 
ROOT
HETATM    1  C1  UNL     1       8.215 105.070  13.421  1.00  0.00     0.241 A 
HETATM    2  N3  UNL     1       8.917 103.996  13.810  1.00  0.00    -0.270 N 
ATOM      3  H3  UNL     1       9.862 104.022  14.193  1.00  0.00     0.189 HD
HETATM    4  N4  UNL     1       8.203 102.898  13.625  1.00  0.00    -0.248 N 
ATOM      5  H4  UNL     1       8.484 101.939  13.831  1.00  0.00     0.192 HD
HETATM    6  C2  UNL     1       7.036 103.304  13.112  1.00  0.00     0.362 A 
HETATM    7  O2  UNL     1       6.087 102.532  12.801  1.00  0.00    -0.243 OA
HETATM    8  N5  UNL     1       7.027 104.620  12.981  1.00  0.00    -0.182 N 
ENDROOT
BRANCH   1   9
HETATM    9  S1  UNL     1       8.790 106.702  13.497  1.00  0.00     0.167 S 
HETATM   10  O1  UNL     1       8.687 107.389  12.149  1.00  0.00    -0.221 OA
BRANCH   9  11
HETATM   11  N1  UNL     1       7.821 107.504  14.432  1.00  0.00    -0.339 N 
ATOM     12  H12 UNL     1       7.272 107.069  15.174  1.00  0.00     0.167 HD
ATOM     13  H11 UNL     1       7.812 108.498  14.205  1.00  0.00     0.167 HD
ENDBRANCH   9  11
BRANCH   9  14
HETATM   14  N2  UNL     1      10.412 106.776  14.047  1.00  0.00    -0.339 N 
ATOM     15  H22 UNL     1      10.915 107.653  14.187  1.00  0.00     0.167 HD
ATOM     16  H21 UNL     1      10.799 105.848  14.211  1.00  0.00     0.167 HD
ENDBRANCH   9  14
ENDBRANCH   1   9
BRANCH   8  17
HETATM   17  N6  UNL     1       5.972 105.399  12.478  1.00  0.00    -0.332 N 
ATOM     18  H62 UNL     1       5.965 105.904  11.592  1.00  0.00     0.177 HD
ATOM     19  H61 UNL     1       5.073 105.565  12.928  1.00  0.00     0.177 HD
ENDBRANCH   8  17
TORSDOF 4
ENDMDL
MODEL 3
REMARK VINA RESULT: -4.948940455      1.182      1.422
REMARK  4 active torsions:
REMARK  status: ('A' for Active; 'I' for Inactive)
REMARK    1  A    between atoms: N1_1  and  S1_4 
REMARK    2  A    between atoms: S1_4  and  N2_5 
REMARK    3  A    between atoms: S1_4  and  C1_9 
REMARK    4  A    between atoms: N5_16  and  N6_17 
ROOT
HETATM    1  C1  UNL     1       7.590 105.310  13.287  1.00  0.00     0.241 A 
HETATM    2  N3  UNL     1       6.391 105.611  12.769  1.00  0.00    -0.270 N 
ATOM      3  H3  UNL     1       6.041 106.557  12.613  1.00  0.00     0.189 HD
HETATM    4  N4  UNL     1       5.727 104.501  12.488  1.00  0.00    -0.248 N 
ATOM      5  H4  UNL     1       4.792 104.428  12.086  1.00  0.00     0.192 HD
HETATM    6  C2  UNL     1       6.535 103.494  12.840  1.00  0.00     0.362 A 
HETATM    7  O2  UNL     1       6.245 102.272  12.721  1.00  0.00    -0.243 OA
HETATM    8  N5  UNL     1       7.670 103.968  13.327  1.00  0.00    -0.182 N 
ENDROOT
BRANCH   1   9
HETATM    9  S1  UNL     1       8.766 106.477  13.789  1.00  0.00     0.167 S 
HETATM   10  O1  UNL     1       9.393 107.179  12.599  1.00  0.00    -0.221 OA
BRANCH   9  11
HETATM   11  N1  UNL     1       8.012 107.606  14.571  1.00  0.00    -0.339 N 
ATOM     12  H12 UNL     1       7.021 107.811  14.440  1.00  0.00     0.167 HD
ATOM     13  H11 UNL     1       8.630 108.099  15.215  1.00  0.00     0.167 HD
ENDBRANCH   9  11
BRANCH   9  14
HETATM   14  N2  UNL     1      10.002 105.762  14.737  1.00  0.00    -0.339 N 
ATOM     15  H22 UNL     1      10.539 106.276  15.436  1.00  0.00     0.167 HD
ATOM     16  H21 UNL     1      10.128 104.775  14.515  1.00  0.00     0.167 HD
ENDBRANCH   9  14
ENDBRANCH   1   9
BRANCH   8  17
HETATM   17  N6  UNL     1       8.754 103.209  13.798  1.00  0.00    -0.332 N 
ATOM     18  H62 UNL     1       8.835 102.778  14.719  1.00  0.00     0.177 HD
ATOM     19  H61 UNL     1       9.606 102.987  13.285  1.00  0.00     0.177 HD
ENDBRANCH   8  17
TORSDOF 4
ENDMDL
MODEL 4
REMARK VINA RESULT: -4.919504603      0.742      1.846
REMARK  4 active torsions:
REMARK  status: ('A' for Active; 'I' for Inactive)
REMARK    1  A    between atoms: N1_1  and  S1_4 
REMARK    2  A    between atoms: S1_4  and  N2_5 
REMARK    3  A    between atoms: S1_4  and  C1_9 
REMARK    4  A    between atoms: N5_16  and  N6_17 
ROOT
HETATM    1  C1  UNL     1       8.275 105.072  13.646  1.00  0.00     0.241 A 
HETATM    2  N3  UNL     1       8.810 103.856  13.825  1.00  0.00    -0.270 N 
ATOM      3  H3  UNL     1       9.742 103.676  14.201  1.00  0.00     0.189 HD
HETATM    4  N4  UNL     1       7.952 102.923  13.444  1.00  0.00    -0.248 N 
ATOM      5  H4  UNL     1       8.091 101.913  13.467  1.00  0.00     0.192 HD
HETATM    6  C2  UNL     1       6.865 103.579  13.022  1.00  0.00     0.362 A 
HETATM    7  O2  UNL     1       5.824 103.021  12.578  1.00  0.00    -0.243 OA
HETATM    8  N5  UNL     1       7.045 104.884  13.137  1.00  0.00    -0.182 N 
ENDROOT
BRANCH   1   9
HETATM    9  S1  UNL     1       9.073 106.563  14.020  1.00  0.00     0.167 S 
HETATM   10  O1  UNL     1      10.493 106.326  14.500  1.00  0.00    -0.221 OA
BRANCH   9  11
HETATM   11  N1  UNL     1       9.228 107.367  12.684  1.00  0.00    -0.339 N 
ATOM     12  H12 UNL     1       8.591 108.112  12.402  1.00  0.00     0.167 HD
ATOM     13  H11 UNL     1      10.035 107.053  12.144  1.00  0.00     0.167 HD
ENDBRANCH   9  11
BRANCH   9  14
HETATM   14  N2  UNL     1       8.218 107.457  15.206  1.00  0.00    -0.339 N 
ATOM     15  H22 UNL     1       8.656 107.826  16.051  1.00  0.00     0.167 HD
ATOM     16  H21 UNL     1       7.235 107.568  14.962  1.00  0.00     0.167 HD
ENDBRANCH   9  14
ENDBRANCH   1   9
BRANCH   8  17
HETATM   17  N6  UNL     1       6.122 105.885  12.792  1.00  0.00    -0.332 N 
ATOM     18  H62 UNL     1       5.512 105.888  11.974  1.00  0.00     0.177 HD
ATOM     19  H61 UNL     1       5.936 106.742  13.311  1.00  0.00     0.177 HD
ENDBRANCH   8  17
TORSDOF 4
ENDMDL
MODEL 5
REMARK VINA RESULT: -4.839040778      1.351      2.364
REMARK  4 active torsions:
REMARK  status: ('A' for Active; 'I' for Inactive)
REMARK    1  A    between atoms: N1_1  and  S1_4 
REMARK    2  A    between atoms: S1_4  and  N2_5 
REMARK    3  A    between atoms: S1_4  and  C1_9 
REMARK    4  A    between atoms: N5_16  and  N6_17 
ROOT
HETATM    1  C1  UNL     1       8.067 105.131  13.644  1.00  0.00     0.241 A 
HETATM    2  N3  UNL     1       8.875 104.105  13.946  1.00  0.00    -0.270 N 
ATOM      3  H3  UNL     1       9.800 104.193  14.368  1.00  0.00     0.189 HD
HETATM    4  N4  UNL     1       8.296 102.962  13.618  1.00  0.00    -0.248 N 
ATOM      5  H4  UNL     1       8.679 102.023  13.733  1.00  0.00     0.192 HD
HETATM    6  C2  UNL     1       7.106 103.290  13.104  1.00  0.00     0.362 A 
HETATM    7  O2  UNL     1       6.261 102.457  12.674  1.00  0.00    -0.243 OA
HETATM    8  N5  UNL     1       6.951 104.603  13.112  1.00  0.00    -0.182 N 
ENDROOT
BRANCH   1   9
HETATM    9  S1  UNL     1       8.450 106.799  13.916  1.00  0.00     0.167 S 
HETATM   10  O1  UNL     1       7.256 107.559  14.462  1.00  0.00    -0.221 OA
BRANCH   9  11
HETATM   11  N1  UNL     1       9.523 106.860  15.056  1.00  0.00    -0.339 N 
ATOM     12  H12 UNL     1       9.300 106.719  16.041  1.00  0.00     0.167 HD
ATOM     13  H11 UNL     1      10.454 107.056  14.689  1.00  0.00     0.167 HD
ENDBRANCH   9  11
BRANCH   9  14
HETATM   14  N2  UNL     1       8.998 107.563  12.483  1.00  0.00    -0.339 N 
ATOM     15  H22 UNL     1       9.253 107.050  11.638  1.00  0.00     0.167 HD
ATOM     16  H21 UNL     1       9.035 108.577  12.584  1.00  0.00     0.167 HD
ENDBRANCH   9  14
ENDBRANCH   1   9
BRANCH   8  17
HETATM   17  N6  UNL     1       5.830 105.312  12.650  1.00  0.00    -0.332 N 
ATOM     18  H62 UNL     1       5.837 106.225  12.195  1.00  0.00     0.177 HD
ATOM     19  H61 UNL     1       4.857 105.011  12.707  1.00  0.00     0.177 HD
ENDBRANCH   8  17
TORSDOF 4
ENDMDL
