MODEL 1
REMARK VINA RESULT: -5.734820502      0.000      0.000
REMARK  3 active torsions:
REMARK  status: ('A' for Active; 'I' for Inactive)
REMARK    1  A    between atoms: N1_1  and  C1_4 
REMARK    2  A    between atoms: C2_5  and  C3_6 
REMARK    3  A    between atoms: N4_14  and  N5_15 
ROOT
HETATM    1  C1  UNL     1       7.507 105.598  13.267  1.00  0.00     0.142 A 
HETATM    2  C2  UNL     1       7.955 104.294  13.029  1.00  0.00     0.090 A 
HETATM    3  C4  UNL     1       9.196 103.936  13.469  1.00  0.00     0.113 A 
HETATM    4  N3  UNL     1       9.943 104.834  14.111  1.00  0.00    -0.316 N 
ATOM      5  H3  UNL     1      10.870 104.565  14.440  1.00  0.00     0.170 HD
HETATM    6  C5  UNL     1       9.509 106.077  14.334  1.00  0.00     0.346 A 
HETATM    7  O2  UNL     1      10.196 106.953  14.940  1.00  0.00    -0.245 OA
HETATM    8  N4  UNL     1       8.288 106.467  13.914  1.00  0.00    -0.195 N 
ENDROOT
BRANCH   1   9
HETATM    9  N1  UNL     1       6.316 105.927  12.839  1.00  0.00    -0.383 N 
ATOM     10  H12 UNL     1       5.609 105.225  12.623  1.00  0.00     0.157 HD
ATOM     11  H11 UNL     1       6.105 106.918  12.725  1.00  0.00     0.157 HD
ENDBRANCH   1   9
BRANCH   2  12
HETATM   12  C3  UNL     1       7.096 103.358  12.324  1.00  0.00     0.270 C 
HETATM   13  N2  UNL     1       6.159 102.529  12.980  1.00  0.00    -0.057 NA
HETATM   14  O1  UNL     1       7.187 103.278  11.080  1.00  0.00    -0.271 OA
ENDBRANCH   2  12
BRANCH   8  15
HETATM   15  N5  UNL     1       7.811 107.768  14.137  1.00  0.00    -0.333 N 
ATOM     16  H52 UNL     1       8.003 108.529  13.486  1.00  0.00     0.177 HD
ATOM     17  H51 UNL     1       7.259 107.951  14.975  1.00  0.00     0.177 HD
ENDBRANCH   8  15
TORSDOF 3
ENDMDL
MODEL 2
REMARK VINA RESULT: -4.802741864      1.636      2.521
REMARK  3 active torsions:
REMARK  status: ('A' for Active; 'I' for Inactive)
REMARK    1  A    between atoms: N1_1  and  C1_4 
REMARK    2  A    between atoms: C2_5  and  C3_6 
REMARK    3  A    between atoms: N4_14  and  N5_15 
ROOT
HETATM    1  C1  UNL     1       8.698 105.041  13.414  1.00  0.00     0.142 A 
HETATM    2  C2  UNL     1       7.498 104.417  13.057  1.00  0.00     0.090 A 
HETATM    3  C4  UNL     1       6.407 105.195  12.795  1.00  0.00     0.113 A 
HETATM    4  N3  UNL     1       6.516 106.520  12.884  1.00  0.00    -0.316 N 
ATOM      5  H3  UNL     1       5.701 107.100  12.687  1.00  0.00     0.170 HD
HETATM    6  C5  UNL     1       7.665 107.108  13.226  1.00  0.00     0.346 A 
HETATM    7  O2  UNL     1       7.799 108.365  13.321  1.00  0.00    -0.245 OA
HETATM    8  N4  UNL     1       8.764 106.373  13.493  1.00  0.00    -0.195 N 
ENDROOT
BRANCH   1   9
HETATM    9  N1  UNL     1       9.734 104.284  13.664  1.00  0.00    -0.383 N 
ATOM     10  H12 UNL     1      10.005 103.521  13.044  1.00  0.00     0.157 HD
ATOM     11  H11 UNL     1      10.276 104.476  14.506  1.00  0.00     0.157 HD
ENDBRANCH   1   9
BRANCH   2  12
HETATM   12  C3  UNL     1       7.439 102.968  12.975  1.00  0.00     0.270 C 
HETATM   13  N2  UNL     1       6.731 102.283  11.963  1.00  0.00    -0.057 NA
HETATM   14  O1  UNL     1       8.040 102.292  13.838  1.00  0.00    -0.271 OA
ENDBRANCH   2  12
BRANCH   8  15
HETATM   15  N5  UNL     1       9.981 106.969  13.855  1.00  0.00    -0.333 N 
ATOM     16  H52 UNL     1      10.156 107.302  14.803  1.00  0.00     0.177 HD
ATOM     17  H51 UNL     1      10.708 107.070  13.146  1.00  0.00     0.177 HD
ENDBRANCH   8  15
TORSDOF 3
ENDMDL
MODEL 3
REMARK VINA RESULT: -4.782598150      8.168      9.569
REMARK  3 active torsions:
REMARK  status: ('A' for Active; 'I' for Inactive)
REMARK    1  A    between atoms: N1_1  and  C1_4 
REMARK    2  A    between atoms: C2_5  and  C3_6 
REMARK    3  A    between atoms: N4_14  and  N5_15 
ROOT
HETATM    1  C1  UNL     1       3.284 102.272   5.547  1.00  0.00     0.142 A 
HETATM    2  C2  UNL     1       3.001 100.906   5.663  1.00  0.00     0.090 A 
HETATM    3  C4  UNL     1       3.926 100.094   6.253  1.00  0.00     0.113 A 
HETATM    4  N3  UNL     1       5.066 100.621   6.699  1.00  0.00    -0.316 N 
ATOM      5  H3  UNL     1       5.755 100.012   7.140  1.00  0.00     0.170 HD
HETATM    6  C5  UNL     1       5.328 101.925   6.584  1.00  0.00     0.346 A 
HETATM    7  O2  UNL     1       6.403 102.455   6.998  1.00  0.00    -0.245 OA
HETATM    8  N4  UNL     1       4.439 102.759   6.008  1.00  0.00    -0.195 N 
ENDROOT
BRANCH   1   9
HETATM    9  N1  UNL     1       2.390 103.039   4.980  1.00  0.00    -0.383 N 
ATOM     10  H12 UNL     1       2.384 103.205   3.973  1.00  0.00     0.157 HD
ATOM     11  H11 UNL     1       1.685 103.474   5.574  1.00  0.00     0.157 HD
ENDBRANCH   1   9
BRANCH   2  12
HETATM   12  C3  UNL     1       1.742 100.388   5.158  1.00  0.00     0.270 C 
HETATM   13  N2  UNL     1       0.488 100.936   5.511  1.00  0.00    -0.057 NA
HETATM   14  O1  UNL     1       1.763  99.414   4.376  1.00  0.00    -0.271 OA
ENDBRANCH   2  12
BRANCH   8  15
HETATM   15  N5  UNL     1       4.694 104.133   5.875  1.00  0.00    -0.333 N 
ATOM     16  H52 UNL     1       4.645 104.603   4.972  1.00  0.00     0.177 HD
ATOM     17  H51 UNL     1       4.934 104.670   6.709  1.00  0.00     0.177 HD
ENDBRANCH   8  15
TORSDOF 3
ENDMDL
MODEL 4
REMARK VINA RESULT: -4.685665263      9.187     10.773
REMARK  3 active torsions:
REMARK  status: ('A' for Active; 'I' for Inactive)
REMARK    1  A    between atoms: N1_1  and  C1_4 
REMARK    2  A    between atoms: C2_5  and  C3_6 
REMARK    3  A    between atoms: N4_14  and  N5_15 
ROOT
HETATM    1  C1  UNL     1       2.548 100.482   5.821  1.00  0.00     0.142 A 
HETATM    2  C2  UNL     1       3.687 101.287   5.931  1.00  0.00     0.090 A 
HETATM    3  C4  UNL     1       3.622 102.577   5.490  1.00  0.00     0.113 A 
HETATM    4  N3  UNL     1       2.483 103.031   4.969  1.00  0.00    -0.316 N 
ATOM      5  H3  UNL     1       2.436 103.995   4.641  1.00  0.00     0.170 HD
HETATM    6  C5  UNL     1       1.400 102.256   4.867  1.00  0.00     0.346 A 
HETATM    7  O2  UNL     1       0.303 102.658   4.376  1.00  0.00    -0.245 OA
HETATM    8  N4  UNL     1       1.425 100.977   5.292  1.00  0.00    -0.195 N 
ENDROOT
BRANCH   1   9
HETATM    9  N1  UNL     1       2.624  99.248   6.247  1.00  0.00    -0.383 N 
ATOM     10  H12 UNL     1       3.324  98.957   6.929  1.00  0.00     0.157 HD
ATOM     11  H11 UNL     1       1.957  98.571   5.877  1.00  0.00     0.157 HD
ENDBRANCH   1   9
BRANCH   2  12
HETATM   12  C3  UNL     1       4.902 100.738   6.508  1.00  0.00     0.270 C 
HETATM   13  N2  UNL     1       5.667  99.733   5.875  1.00  0.00    -0.057 NA
HETATM   14  O1  UNL     1       5.291 101.171   7.614  1.00  0.00    -0.271 OA
ENDBRANCH   2  12
BRANCH   8  15
HETATM   15  N5  UNL     1       0.300 100.144   5.194  1.00  0.00    -0.333 N 
ATOM     16  H52 UNL     1       0.387  99.140   5.032  1.00  0.00     0.177 HD
ATOM     17  H51 UNL     1      -0.627 100.558   5.288  1.00  0.00     0.177 HD
ENDBRANCH   8  15
TORSDOF 3
ENDMDL
MODEL 5
REMARK VINA RESULT: -4.675887961      8.321      9.842
REMARK  3 active torsions:
REMARK  status: ('A' for Active; 'I' for Inactive)
REMARK    1  A    between atoms: N1_1  and  C1_4 
REMARK    2  A    between atoms: C2_5  and  C3_6 
REMARK    3  A    between atoms: N4_14  and  N5_15 
ROOT
HETATM    1  C1  UNL     1       3.996 100.888   6.480  1.00  0.00     0.142 A 
HETATM    2  C2  UNL     1       3.007 100.671   5.513  1.00  0.00     0.090 A 
HETATM    3  C4  UNL     1       2.717 101.676   4.636  1.00  0.00     0.113 A 
HETATM    4  N3  UNL     1       3.380 102.828   4.723  1.00  0.00    -0.316 N 
ATOM      5  H3  UNL     1       3.162 103.578   4.066  1.00  0.00     0.170 HD
HETATM    6  C5  UNL     1       4.321 103.028   5.649  1.00  0.00     0.346 A 
HETATM    7  O2  UNL     1       4.967 104.113   5.758  1.00  0.00    -0.245 OA
HETATM    8  N4  UNL     1       4.636 102.060   6.533  1.00  0.00    -0.195 N 
ENDROOT
BRANCH   1   9
HETATM    9  N1  UNL     1       4.263  99.918   7.314  1.00  0.00    -0.383 N 
ATOM     10  H12 UNL     1       5.158  99.430   7.303  1.00  0.00     0.157 HD
ATOM     11  H11 UNL     1       3.545  99.655   7.989  1.00  0.00     0.157 HD
ENDBRANCH   1   9
BRANCH   2  12
HETATM   12  C3  UNL     1       2.318  99.393   5.465  1.00  0.00     0.270 C 
HETATM   13  N2  UNL     1       2.848  98.258   4.813  1.00  0.00    -0.057 NA
HETATM   14  O1  UNL     1       1.205  99.290   6.025  1.00  0.00    -0.271 OA
ENDBRANCH   2  12
BRANCH   8  15
HETATM   15  N5  UNL     1       5.621 102.247   7.515  1.00  0.00    -0.333 N 
ATOM     16  H52 UNL     1       6.613 102.143   7.306  1.00  0.00     0.177 HD
ATOM     17  H51 UNL     1       5.330 102.495   8.460  1.00  0.00     0.177 HD
ENDBRANCH   8  15
TORSDOF 3
ENDMDL
