MODEL 1
REMARK VINA RESULT: -5.289510724      0.000      0.000
REMARK  2 active torsions:
REMARK  status: ('A' for Active; 'I' for Inactive)
REMARK    1  A    between atoms: C3_3  and  C4_4 
REMARK    2  A    between atoms: C4_4  and  N1_5 
ROOT
HETATM    1  C1  UNL     1       7.925   8.498  15.143  1.00  0.00     0.012 C 
HETATM    2  C2  UNL     1       9.016   9.003  15.016  1.00  0.00    -0.116 C 
HETATM    3  C3  UNL     1      10.340   9.624  14.842  1.00  0.00     0.123 C 
ENDROOT
BRANCH   3   4
HETATM    4  C4  UNL     1      10.412  10.802  15.743  1.00  0.00     0.287 C 
BRANCH   4   5
HETATM    5  N1  UNL     1      10.778  10.579  17.085  1.00  0.00     0.114 N 
HETATM    6  C5  UNL     1      11.564   9.385  17.187  1.00  0.00     0.301 C 
HETATM    7  C6  UNL     1      10.821   8.579  18.216  1.00  0.00     0.200 C 
HETATM    8  O1  UNL     1       9.814   9.331  18.729  1.00  0.00    -0.361 OA
HETATM    9  C7  UNL     1       9.827  10.581  18.092  1.00  0.00     0.440 C 
ENDBRANCH   4   5
ENDBRANCH   3   4
TORSDOF 2
ENDMDL
MODEL 2
REMARK VINA RESULT: -5.130133339      1.061      1.378
REMARK  2 active torsions:
REMARK  status: ('A' for Active; 'I' for Inactive)
REMARK    1  A    between atoms: C3_3  and  C4_4 
REMARK    2  A    between atoms: C4_4  and  N1_5 
ROOT
HETATM    1  C1  UNL     1       7.988   8.490  15.293  1.00  0.00     0.012 C 
HETATM    2  C2  UNL     1       9.049   8.985  14.993  1.00  0.00    -0.116 C 
HETATM    3  C3  UNL     1      10.334   9.606  14.630  1.00  0.00     0.123 C 
ENDROOT
BRANCH   3   4
HETATM    4  C4  UNL     1      11.295   9.341  15.730  1.00  0.00     0.287 C 
BRANCH   4   5
HETATM    5  N1  UNL     1      11.214  10.153  16.879  1.00  0.00     0.114 N 
HETATM    6  C5  UNL     1      10.710   9.392  17.984  1.00  0.00     0.301 C 
HETATM    7  C6  UNL     1       9.536  10.210  18.446  1.00  0.00     0.200 C 
HETATM    8  O1  UNL     1       9.502  11.375  17.752  1.00  0.00    -0.361 OA
HETATM    9  C7  UNL     1      10.570  11.378  16.842  1.00  0.00     0.440 C 
ENDBRANCH   4   5
ENDBRANCH   3   4
TORSDOF 2
ENDMDL
MODEL 3
REMARK VINA RESULT: -5.084266640      1.161      1.474
REMARK  2 active torsions:
REMARK  status: ('A' for Active; 'I' for Inactive)
REMARK    1  A    between atoms: C3_3  and  C4_4 
REMARK    2  A    between atoms: C4_4  and  N1_5 
ROOT
HETATM    1  C1  UNL     1       8.259   8.544  15.066  1.00  0.00     0.012 C 
HETATM    2  C2  UNL     1       8.725   9.618  15.371  1.00  0.00    -0.116 C 
HETATM    3  C3  UNL     1       9.275  10.934  15.738  1.00  0.00     0.123 C 
ENDROOT
BRANCH   3   4
HETATM    4  C4  UNL     1       9.501  10.939  17.205  1.00  0.00     0.287 C 
BRANCH   4   5
HETATM    5  N1  UNL     1      10.599  10.208  17.701  1.00  0.00     0.114 N 
HETATM    6  C5  UNL     1      11.584  10.045  16.673  1.00  0.00     0.301 C 
HETATM    7  C6  UNL     1      11.784   8.555  16.633  1.00  0.00     0.200 C 
HETATM    8  O1  UNL     1      11.085   7.984  17.646  1.00  0.00    -0.361 OA
HETATM    9  C7  UNL     1      10.415   8.998  18.347  1.00  0.00     0.440 C 
ENDBRANCH   4   5
ENDBRANCH   3   4
TORSDOF 2
ENDMDL
MODEL 4
REMARK VINA RESULT: -4.784682610      1.433      2.649
REMARK  2 active torsions:
REMARK  status: ('A' for Active; 'I' for Inactive)
REMARK    1  A    between atoms: C3_3  and  C4_4 
REMARK    2  A    between atoms: C4_4  and  N1_5 
ROOT
HETATM    1  C1  UNL     1       9.966  12.705  16.770  1.00  0.00     0.012 C 
HETATM    2  C2  UNL     1      10.717  11.870  16.319  1.00  0.00    -0.116 C 
HETATM    3  C3  UNL     1      11.637  10.851  15.789  1.00  0.00     0.123 C 
ENDROOT
BRANCH   3   4
HETATM    4  C4  UNL     1      10.828   9.676  15.378  1.00  0.00     0.287 C 
BRANCH   4   5
HETATM    5  N1  UNL     1      10.335   8.833  16.394  1.00  0.00     0.114 N 
HETATM    6  C5  UNL     1       9.058   9.303  16.844  1.00  0.00     0.301 C 
HETATM    7  C6  UNL     1       9.256   9.445  18.328  1.00  0.00     0.200 C 
HETATM    8  O1  UNL     1      10.477   8.957  18.664  1.00  0.00    -0.361 OA
HETATM    9  C7  UNL     1      11.113   8.514  17.494  1.00  0.00     0.440 C 
ENDBRANCH   4   5
ENDBRANCH   3   4
TORSDOF 2
ENDMDL
MODEL 5
REMARK VINA RESULT: -4.443442658      1.739      3.311
REMARK  2 active torsions:
REMARK  status: ('A' for Active; 'I' for Inactive)
REMARK    1  A    between atoms: C3_3  and  C4_4 
REMARK    2  A    between atoms: C4_4  and  N1_5 
ROOT
HETATM    1  C1  UNL     1      11.220   8.267  18.222  1.00  0.00     0.012 C 
HETATM    2  C2  UNL     1      10.389   9.146  18.259  1.00  0.00    -0.116 C 
HETATM    3  C3  UNL     1       9.382  10.218  18.323  1.00  0.00     0.123 C 
ENDROOT
BRANCH   3   4
HETATM    4  C4  UNL     1       9.922  11.394  17.596  1.00  0.00     0.287 C 
BRANCH   4   5
HETATM    5  N1  UNL     1      10.120  11.270  16.206  1.00  0.00     0.114 N 
HETATM    6  C5  UNL     1       9.062  10.494  15.628  1.00  0.00     0.301 C 
HETATM    7  C6  UNL     1       9.804   9.405  14.902  1.00  0.00     0.200 C 
HETATM    8  O1  UNL     1      11.135   9.657  14.960  1.00  0.00    -0.361 OA
HETATM    9  C7  UNL     1      11.331  10.836  15.695  1.00  0.00     0.440 C 
ENDBRANCH   4   5
ENDBRANCH   3   4
TORSDOF 2
ENDMDL
