MODEL 1
REMARK VINA RESULT: -7.649958064      0.000      0.000
REMARK  12 active torsions:
REMARK  status: ('A' for Active; 'I' for Inactive)
REMARK    1  A    between atoms: N1_2  and  C2_5 
REMARK    2  A    between atoms: C13_19  and  C14_20 
REMARK    3  A    between atoms: C14_20  and  C15_21 
REMARK    4  A    between atoms: C15_21  and  C16_22 
REMARK    5  A    between atoms: C16_22  and  N3_23 
REMARK       I    between atoms: N3_23  and  C17_25 
REMARK    6  A    between atoms: C20_34  and  O1_35 
REMARK    7  A    between atoms: C21_37  and  C22_38 
REMARK    8  A    between atoms: C22_38  and  C23_39 
REMARK    9  A    between atoms: C23_39  and  C24_40 
REMARK   10  A    between atoms: C24_40  and  C25_41 
REMARK   11  A    between atoms: C25_41  and  N7_42 
REMARK   12  A    between atoms: C26_48  and  O2_49 
ROOT
HETATM    1  C2  UNL     1     -15.922   9.747  17.308  1.00  0.00     0.263 C 
HETATM    2  C3  UNL     1     -17.122   8.848  17.379  1.00  0.00     0.080 C 
HETATM    3  C4  UNL     1     -17.029   7.658  16.422  1.00  0.00    -0.056 A 
HETATM    4  C5  UNL     1     -17.712   7.616  15.229  1.00  0.00     0.009 A 
HETATM    5  C6  UNL     1     -17.544   6.624  14.211  1.00  0.00     0.029 A 
HETATM    6  C7  UNL     1     -16.633   5.625  14.419  1.00  0.00     0.028 A 
HETATM    7  C8  UNL     1     -15.963   5.666  15.624  1.00  0.00     0.029 A 
HETATM    8  C9  UNL     1     -16.127   6.650  16.641  1.00  0.00     0.009 A 
HETATM    9  N2  UNL     1     -16.260   4.715  13.330  1.00  0.00    -0.389 N 
ATOM     10  H2  UNL     1     -16.678   3.792  13.212  1.00  0.00     0.159 HD
HETATM   11  C10 UNL     1     -15.201   5.261  12.397  1.00  0.00     0.127 C 
HETATM   12  C11 UNL     1     -13.838   4.890  12.803  1.00  0.00     0.035 C 
HETATM   13  C12 UNL     1     -13.236   4.095  11.638  1.00  0.00     0.082 C 
HETATM   14  S1  UNL     1     -12.174   5.163  10.620  1.00  0.00    -0.164 SA
HETATM   15  C13 UNL     1     -11.001   5.906  11.831  1.00  0.00     0.049 C 
HETATM   16  C18 UNL     1     -11.541   5.688  13.220  1.00  0.00     0.040 C 
HETATM   17  C19 UNL     1     -13.033   6.024  13.294  1.00  0.00     0.090 C 
HETATM   18  N6  UNL     1     -13.313   7.310  12.719  1.00  0.00    -0.368 N 
ATOM     19  H6  UNL     1     -13.632   7.251  11.752  1.00  0.00     0.161 HD
HETATM   20  C20 UNL     1     -13.247   8.606  13.185  1.00  0.00     0.135 C 
HETATM   21  C21 UNL     1     -14.142   9.411  14.090  1.00  0.00     0.157 C 
HETATM   22  N8  UNL     1     -14.227   8.933  15.424  1.00  0.00    -0.361 N 
ATOM     23  H8  UNL     1     -13.781   8.019  15.504  1.00  0.00     0.162 HD
HETATM   24  C26 UNL     1     -14.732   9.335  16.651  1.00  0.00     0.143 C 
ENDROOT
BRANCH  15  25
HETATM   25  C14 UNL     1      -9.668   5.317  11.566  1.00  0.00     0.017 C 
BRANCH  25  26
HETATM   26  C15 UNL     1      -9.518   3.901  12.069  1.00  0.00     0.021 C 
BRANCH  26  27
HETATM   27  C16 UNL     1      -8.435   3.788  13.114  1.00  0.00     0.122 C 
BRANCH  27  28
HETATM   28  N3  UNL     1      -7.349   4.690  12.902  1.00  0.00    -0.365 N 
HETATM   29  C17 UNL     1      -6.929   5.651  13.862  1.00  0.00     0.181 C 
HETATM   30  N4  UNL     1      -7.217   6.922  13.715  1.00  0.00    -0.374 N 
HETATM   31  N5  UNL     1      -6.193   5.321  15.013  1.00  0.00    -0.064 NA
ATOM     32  H42 UNL     1      -7.751   7.162  12.880  1.00  0.00     0.158 HD
ATOM     33  H41 UNL     1      -6.916   7.611  14.403  1.00  0.00     0.158 HD
ATOM     34  H3  UNL     1      -6.847   4.642  12.015  1.00  0.00     0.162 HD
ENDBRANCH  27  28
ENDBRANCH  26  27
ENDBRANCH  25  26
ENDBRANCH  15  25
BRANCH  20  35
HETATM   35  O1  UNL     1     -12.216   9.305  12.782  1.00  0.00    -0.348 OA
ATOM     36  H1  UNL     1     -12.266  10.242  12.934  1.00  0.00     0.219 HD
ENDBRANCH  20  35
BRANCH  21  37
HETATM   37  C22 UNL     1     -15.401   9.790  13.375  1.00  0.00     0.033 C 
BRANCH  37  38
HETATM   38  C23 UNL     1     -15.456  11.216  12.924  1.00  0.00     0.004 C 
BRANCH  38  39
HETATM   39  C24 UNL     1     -14.575  12.169  13.639  1.00  0.00     0.027 C 
BRANCH  39  40
HETATM   40  C25 UNL     1     -13.804  12.943  12.556  1.00  0.00     0.229 C 
BRANCH  40  41
HETATM   41  N7  UNL     1     -12.828  12.074  11.917  1.00  0.00    -0.079 N 
ATOM     42  H73 UNL     1     -12.341  11.486  12.593  1.00  0.00     0.274 HD
ATOM     43  H72 UNL     1     -13.273  11.337  11.371  1.00  0.00     0.274 HD
ATOM     44  H71 UNL     1     -12.179  12.626  11.355  1.00  0.00     0.274 HD
ENDBRANCH  40  41
ENDBRANCH  39  40
ENDBRANCH  38  39
ENDBRANCH  37  38
ENDBRANCH  21  37
BRANCH  24  45
HETATM   45  O2  UNL     1     -13.743   9.340  17.572  1.00  0.00    -0.348 OA
ATOM     46  H2  UNL     1     -12.935   9.129  17.119  1.00  0.00     0.219 HD
ENDBRANCH  24  45
BRANCH   1  47
HETATM   47  N1  UNL     1     -16.357  11.069  16.897  1.00  0.00    -0.067 N 
HETATM   48  C1  UNL     1     -17.501  10.978  15.989  1.00  0.00     0.267 C 
ATOM     49  H12 UNL     1     -15.593  11.608  16.489  1.00  0.00     0.277 HD
ATOM     50  H11 UNL     1     -16.556  11.667  17.699  1.00  0.00     0.277 HD
ENDBRANCH   1  47
TORSDOF 12
ENDMDL
MODEL 2
REMARK VINA RESULT: -7.238726322      2.985      7.842
REMARK  12 active torsions:
REMARK  status: ('A' for Active; 'I' for Inactive)
REMARK    1  A    between atoms: N1_2  and  C2_5 
REMARK    2  A    between atoms: C13_19  and  C14_20 
REMARK    3  A    between atoms: C14_20  and  C15_21 
REMARK    4  A    between atoms: C15_21  and  C16_22 
REMARK    5  A    between atoms: C16_22  and  N3_23 
REMARK       I    between atoms: N3_23  and  C17_25 
REMARK    6  A    between atoms: C20_34  and  O1_35 
REMARK    7  A    between atoms: C21_37  and  C22_38 
REMARK    8  A    between atoms: C22_38  and  C23_39 
REMARK    9  A    between atoms: C23_39  and  C24_40 
REMARK   10  A    between atoms: C24_40  and  C25_41 
REMARK   11  A    between atoms: C25_41  and  N7_42 
REMARK   12  A    between atoms: C26_48  and  O2_49 
ROOT
HETATM    1  C2  UNL     1     -10.614   5.023  12.008  1.00  0.00     0.263 C 
HETATM    2  C3  UNL     1     -10.911   5.045  10.536  1.00  0.00     0.080 C 
HETATM    3  C4  UNL     1     -12.310   5.578  10.222  1.00  0.00    -0.056 A 
HETATM    4  C5  UNL     1     -13.358   4.750   9.895  1.00  0.00     0.009 A 
HETATM    5  C6  UNL     1     -14.723   5.156   9.757  1.00  0.00     0.029 A 
HETATM    6  C7  UNL     1     -15.036   6.471   9.962  1.00  0.00     0.028 A 
HETATM    7  C8  UNL     1     -13.977   7.298  10.274  1.00  0.00     0.029 A 
HETATM    8  C9  UNL     1     -12.615   6.900  10.412  1.00  0.00     0.009 A 
HETATM    9  N2  UNL     1     -16.436   6.902  10.052  1.00  0.00    -0.389 N 
ATOM     10  H2  UNL     1     -16.945   7.297   9.261  1.00  0.00     0.159 HD
HETATM   11  C10 UNL     1     -17.060   6.712  11.417  1.00  0.00     0.127 C 
HETATM   12  C11 UNL     1     -16.929   7.900  12.274  1.00  0.00     0.035 C 
HETATM   13  C12 UNL     1     -18.353   8.342  12.629  1.00  0.00     0.082 C 
HETATM   14  S1  UNL     1     -18.814   7.739  14.281  1.00  0.00    -0.164 SA
HETATM   15  C13 UNL     1     -17.449   8.332  15.367  1.00  0.00     0.049 C 
HETATM   16  C18 UNL     1     -16.293   8.754  14.499  1.00  0.00     0.040 C 
HETATM   17  C19 UNL     1     -16.008   7.715  13.411  1.00  0.00     0.090 C 
HETATM   18  N6  UNL     1     -15.917   6.391  13.958  1.00  0.00    -0.368 N 
ATOM     19  H6  UNL     1     -16.789   5.867  13.877  1.00  0.00     0.161 HD
HETATM   20  C20 UNL     1     -14.913   5.669  14.568  1.00  0.00     0.135 C 
HETATM   21  C21 UNL     1     -13.702   4.953  14.031  1.00  0.00     0.157 C 
HETATM   22  N8  UNL     1     -12.732   5.793  13.423  1.00  0.00    -0.361 N 
ATOM     23  H8  UNL     1     -13.099   6.739  13.312  1.00  0.00     0.162 HD
HETATM   24  C26 UNL     1     -11.437   5.715  12.934  1.00  0.00     0.143 C 
ENDROOT
BRANCH  15  25
HETATM   25  C14 UNL     1     -18.012   9.392  16.235  1.00  0.00     0.017 C 
BRANCH  25  26
HETATM   26  C15 UNL     1     -17.126  10.608  16.366  1.00  0.00     0.021 C 
BRANCH  26  27
HETATM   27  C16 UNL     1     -16.392  10.630  17.685  1.00  0.00     0.122 C 
BRANCH  27  28
HETATM   28  N3  UNL     1     -15.998   9.333  18.133  1.00  0.00    -0.365 N 
HETATM   29  C17 UNL     1     -14.644   8.902  18.193  1.00  0.00     0.181 C 
HETATM   30  N4  UNL     1     -14.159   8.074  17.300  1.00  0.00    -0.374 N 
HETATM   31  N5  UNL     1     -13.746   9.322  19.188  1.00  0.00    -0.064 NA
ATOM     32  H42 UNL     1     -14.811   7.769  16.578  1.00  0.00     0.158 HD
ATOM     33  H41 UNL     1     -13.188   7.764  17.343  1.00  0.00     0.158 HD
ATOM     34  H3  UNL     1     -16.725   8.681  18.426  1.00  0.00     0.162 HD
ENDBRANCH  27  28
ENDBRANCH  26  27
ENDBRANCH  25  26
ENDBRANCH  15  25
BRANCH  20  35
HETATM   35  O1  UNL     1     -14.995   5.566  15.871  1.00  0.00    -0.348 OA
ATOM     36  H1  UNL     1     -14.495   4.859  16.263  1.00  0.00     0.219 HD
ENDBRANCH  20  35
BRANCH  21  37
HETATM   37  C22 UNL     1     -14.108   3.693  13.334  1.00  0.00     0.033 C 
BRANCH  37  38
HETATM   38  C23 UNL     1     -15.107   2.863  14.079  1.00  0.00     0.004 C 
BRANCH  38  39
HETATM   39  C24 UNL     1     -16.409   2.640  13.409  1.00  0.00     0.027 C 
BRANCH  39  40
HETATM   40  C25 UNL     1     -17.434   2.387  14.528  1.00  0.00     0.229 C 
BRANCH  40  41
HETATM   41  N7  UNL     1     -17.694   3.618  15.258  1.00  0.00    -0.079 N 
ATOM     42  H73 UNL     1     -17.194   3.647  16.147  1.00  0.00     0.274 HD
ATOM     43  H72 UNL     1     -17.256   4.424  14.813  1.00  0.00     0.274 HD
ATOM     44  H71 UNL     1     -18.699   3.749  15.382  1.00  0.00     0.274 HD
ENDBRANCH  40  41
ENDBRANCH  39  40
ENDBRANCH  38  39
ENDBRANCH  37  38
ENDBRANCH  21  37
BRANCH  24  45
HETATM   45  O2  UNL     1     -10.660   6.629  13.557  1.00  0.00    -0.348 OA
ATOM     46  H2  UNL     1     -10.669   6.422  14.484  1.00  0.00     0.219 HD
ENDBRANCH  24  45
BRANCH   1  47
HETATM   47  N1  UNL     1     -10.354   3.653  12.408  1.00  0.00    -0.067 N 
HETATM   48  C1  UNL     1      -8.916   3.381  12.422  1.00  0.00     0.267 C 
ATOM     49  H12 UNL     1     -10.859   2.986  11.824  1.00  0.00     0.277 HD
ATOM     50  H11 UNL     1     -10.790   3.432  13.304  1.00  0.00     0.277 HD
ENDBRANCH   1  47
TORSDOF 12
ENDMDL
MODEL 3
REMARK VINA RESULT: -7.220732030      1.564      1.829
REMARK  12 active torsions:
REMARK  status: ('A' for Active; 'I' for Inactive)
REMARK    1  A    between atoms: N1_2  and  C2_5 
REMARK    2  A    between atoms: C13_19  and  C14_20 
REMARK    3  A    between atoms: C14_20  and  C15_21 
REMARK    4  A    between atoms: C15_21  and  C16_22 
REMARK    5  A    between atoms: C16_22  and  N3_23 
REMARK       I    between atoms: N3_23  and  C17_25 
REMARK    6  A    between atoms: C20_34  and  O1_35 
REMARK    7  A    between atoms: C21_37  and  C22_38 
REMARK    8  A    between atoms: C22_38  and  C23_39 
REMARK    9  A    between atoms: C23_39  and  C24_40 
REMARK   10  A    between atoms: C24_40  and  C25_41 
REMARK   11  A    between atoms: C25_41  and  N7_42 
REMARK   12  A    between atoms: C26_48  and  O2_49 
ROOT
HETATM    1  C2  UNL     1     -15.650  10.849  16.159  1.00  0.00     0.263 C 
HETATM    2  C3  UNL     1     -17.062  10.461  15.833  1.00  0.00     0.080 C 
HETATM    3  C4  UNL     1     -17.144   9.273  14.872  1.00  0.00    -0.056 A 
HETATM    4  C5  UNL     1     -17.423   9.425  13.533  1.00  0.00     0.009 A 
HETATM    5  C6  UNL     1     -17.348   8.390  12.548  1.00  0.00     0.029 A 
HETATM    6  C7  UNL     1     -16.969   7.138  12.945  1.00  0.00     0.028 A 
HETATM    7  C8  UNL     1     -16.704   6.991  14.291  1.00  0.00     0.029 A 
HETATM    8  C9  UNL     1     -16.779   8.017  15.277  1.00  0.00     0.009 A 
HETATM    9  N2  UNL     1     -16.661   6.100  11.954  1.00  0.00    -0.389 N 
ATOM     10  H2  UNL     1     -17.337   5.392  11.667  1.00  0.00     0.159 HD
HETATM   11  C10 UNL     1     -15.257   6.168  11.395  1.00  0.00     0.127 C 
HETATM   12  C11 UNL     1     -14.303   5.342  12.148  1.00  0.00     0.035 C 
HETATM   13  C12 UNL     1     -13.730   4.323  11.157  1.00  0.00     0.082 C 
HETATM   14  S1  UNL     1     -12.107   4.870  10.548  1.00  0.00    -0.164 SA
HETATM   15  C13 UNL     1     -11.141   5.189  12.084  1.00  0.00     0.049 C 
HETATM   16  C18 UNL     1     -12.096   5.257  13.247  1.00  0.00     0.040 C 
HETATM   17  C19 UNL     1     -13.314   6.123  12.915  1.00  0.00     0.090 C 
HETATM   18  N6  UNL     1     -12.926   7.390  12.363  1.00  0.00    -0.368 N 
ATOM     19  H6  UNL     1     -12.953   7.403  11.343  1.00  0.00     0.161 HD
HETATM   20  C20 UNL     1     -12.524   8.592  12.904  1.00  0.00     0.135 C 
HETATM   21  C21 UNL     1     -13.279   9.716  13.565  1.00  0.00     0.157 C 
HETATM   22  N8  UNL     1     -13.910   9.372  14.789  1.00  0.00    -0.361 N 
ATOM     23  H8  UNL     1     -13.874   8.363  14.938  1.00  0.00     0.162 HD
HETATM   24  C26 UNL     1     -14.561   9.994  15.844  1.00  0.00     0.143 C 
ENDROOT
BRANCH  15  25
HETATM   25  C14 UNL     1     -10.103   4.137  12.174  1.00  0.00     0.017 C 
BRANCH  25  26
HETATM   26  C15 UNL     1      -8.691   4.673  12.193  1.00  0.00     0.021 C 
BRANCH  26  27
HETATM   27  C16 UNL     1      -8.634   6.086  12.722  1.00  0.00     0.122 C 
BRANCH  27  28
HETATM   28  N3  UNL     1      -7.344   6.456  13.208  1.00  0.00    -0.365 N 
HETATM   29  C17 UNL     1      -6.835   6.045  14.471  1.00  0.00     0.181 C 
HETATM   30  N4  UNL     1      -6.785   6.879  15.482  1.00  0.00    -0.374 N 
HETATM   31  N5  UNL     1      -6.360   4.748  14.726  1.00  0.00    -0.064 NA
ATOM     32  H42 UNL     1      -7.129   7.821  15.297  1.00  0.00     0.158 HD
ATOM     33  H41 UNL     1      -6.420   6.585  16.387  1.00  0.00     0.158 HD
ATOM     34  H3  UNL     1      -6.756   7.045  12.619  1.00  0.00     0.162 HD
ENDBRANCH  27  28
ENDBRANCH  26  27
ENDBRANCH  25  26
ENDBRANCH  15  25
BRANCH  20  35
HETATM   35  O1  UNL     1     -11.239   8.841  12.854  1.00  0.00    -0.348 OA
ATOM     36  H1  UNL     1     -10.967   9.687  13.190  1.00  0.00     0.219 HD
ENDBRANCH  20  35
BRANCH  21  37
HETATM   37  C22 UNL     1     -14.049  10.495  12.547  1.00  0.00     0.033 C 
BRANCH  37  38
HETATM   38  C23 UNL     1     -13.212  11.378  11.673  1.00  0.00     0.004 C 
BRANCH  38  39
HETATM   39  C24 UNL     1     -13.421  11.248  10.212  1.00  0.00     0.027 C 
BRANCH  39  40
HETATM   40  C25 UNL     1     -12.229  10.437   9.675  1.00  0.00     0.229 C 
BRANCH  40  41
HETATM   41  N7  UNL     1     -11.036  10.720  10.457  1.00  0.00    -0.079 N 
ATOM     42  H73 UNL     1     -10.420  11.384   9.987  1.00  0.00     0.274 HD
ATOM     43  H72 UNL     1     -11.247  11.274  11.287  1.00  0.00     0.274 HD
ATOM     44  H71 UNL     1     -10.553   9.852  10.691  1.00  0.00     0.274 HD
ENDBRANCH  40  41
ENDBRANCH  39  40
ENDBRANCH  38  39
ENDBRANCH  37  38
ENDBRANCH  21  37
BRANCH  24  45
HETATM   45  O2  UNL     1     -13.946   9.682  17.006  1.00  0.00    -0.348 OA
ATOM     46  H2  UNL     1     -14.039   8.744  17.130  1.00  0.00     0.219 HD
ENDBRANCH  24  45
BRANCH   1  47
HETATM   47  N1  UNL     1     -15.431  12.215  15.722  1.00  0.00    -0.067 N 
HETATM   48  C1  UNL     1     -16.701  12.936  15.624  1.00  0.00     0.267 C 
ATOM     49  H12 UNL     1     -14.907  12.253  14.848  1.00  0.00     0.277 HD
ATOM     50  H11 UNL     1     -14.765  12.701  16.322  1.00  0.00     0.277 HD
ENDBRANCH   1  47
TORSDOF 12
ENDMDL
MODEL 4
REMARK VINA RESULT: -7.061577885      2.486      4.280
REMARK  12 active torsions:
REMARK  status: ('A' for Active; 'I' for Inactive)
REMARK    1  A    between atoms: N1_2  and  C2_5 
REMARK    2  A    between atoms: C13_19  and  C14_20 
REMARK    3  A    between atoms: C14_20  and  C15_21 
REMARK    4  A    between atoms: C15_21  and  C16_22 
REMARK    5  A    between atoms: C16_22  and  N3_23 
REMARK       I    between atoms: N3_23  and  C17_25 
REMARK    6  A    between atoms: C20_34  and  O1_35 
REMARK    7  A    between atoms: C21_37  and  C22_38 
REMARK    8  A    between atoms: C22_38  and  C23_39 
REMARK    9  A    between atoms: C23_39  and  C24_40 
REMARK   10  A    between atoms: C24_40  and  C25_41 
REMARK   11  A    between atoms: C25_41  and  N7_42 
REMARK   12  A    between atoms: C26_48  and  O2_49 
ROOT
HETATM    1  C2  UNL     1     -18.660   4.642  14.278  1.00  0.00     0.263 C 
HETATM    2  C3  UNL     1     -19.420   5.155  13.090  1.00  0.00     0.080 C 
HETATM    3  C4  UNL     1     -18.525   5.876  12.080  1.00  0.00    -0.056 A 
HETATM    4  C5  UNL     1     -18.474   7.247  11.988  1.00  0.00     0.009 A 
HETATM    5  C6  UNL     1     -17.543   7.990  11.194  1.00  0.00     0.029 A 
HETATM    6  C7  UNL     1     -16.620   7.302  10.457  1.00  0.00     0.028 A 
HETATM    7  C8  UNL     1     -16.688   5.927  10.544  1.00  0.00     0.029 A 
HETATM    8  C9  UNL     1     -17.613   5.182  11.331  1.00  0.00     0.009 A 
HETATM    9  N2  UNL     1     -15.509   8.005   9.804  1.00  0.00    -0.389 N 
ATOM     10  H2  UNL     1     -15.529   8.279   8.822  1.00  0.00     0.159 HD
HETATM   11  C10 UNL     1     -14.332   8.288  10.711  1.00  0.00     0.127 C 
HETATM   12  C11 UNL     1     -13.316   7.226  10.674  1.00  0.00     0.035 C 
HETATM   13  C12 UNL     1     -12.014   7.883  10.201  1.00  0.00     0.082 C 
HETATM   14  S1  UNL     1     -10.939   8.261  11.617  1.00  0.00    -0.164 SA
HETATM   15  C13 UNL     1     -10.800   6.655  12.510  1.00  0.00     0.049 C 
HETATM   16  C18 UNL     1     -11.876   5.729  12.005  1.00  0.00     0.040 C 
HETATM   17  C19 UNL     1     -13.227   6.444  11.922  1.00  0.00     0.090 C 
HETATM   18  N6  UNL     1     -13.534   7.137  13.141  1.00  0.00    -0.368 N 
ATOM     19  H6  UNL     1     -13.292   8.128  13.105  1.00  0.00     0.161 HD
HETATM   20  C20 UNL     1     -14.082   6.762  14.349  1.00  0.00     0.135 C 
HETATM   21  C21 UNL     1     -15.497   6.479  14.782  1.00  0.00     0.157 C 
HETATM   22  N8  UNL     1     -16.099   5.356  14.157  1.00  0.00    -0.361 N 
ATOM     23  H8  UNL     1     -15.515   5.018  13.391  1.00  0.00     0.162 HD
HETATM   24  C26 UNL     1     -17.242   4.579  14.273  1.00  0.00     0.143 C 
ENDROOT
BRANCH  15  25
HETATM   25  C14 UNL     1      -9.411   6.175  12.329  1.00  0.00     0.017 C 
BRANCH  25  26
HETATM   26  C15 UNL     1      -9.318   4.740  11.866  1.00  0.00     0.021 C 
BRANCH  26  27
HETATM   27  C16 UNL     1      -8.595   3.872  12.867  1.00  0.00     0.122 C 
BRANCH  27  28
HETATM   28  N3  UNL     1      -7.223   4.227  13.036  1.00  0.00    -0.365 N 
HETATM   29  C17 UNL     1      -6.626   4.470  14.303  1.00  0.00     0.181 C 
HETATM   30  N4  UNL     1      -6.361   5.691  14.702  1.00  0.00    -0.374 N 
HETATM   31  N5  UNL     1      -6.285   3.446  15.204  1.00  0.00    -0.064 NA
ATOM     32  H42 UNL     1      -6.608   6.433  14.049  1.00  0.00     0.158 HD
ATOM     33  H41 UNL     1      -5.933   5.865  15.611  1.00  0.00     0.158 HD
ATOM     34  H3  UNL     1      -6.639   4.310  12.204  1.00  0.00     0.162 HD
ENDBRANCH  27  28
ENDBRANCH  26  27
ENDBRANCH  25  26
ENDBRANCH  15  25
BRANCH  20  35
HETATM   35  O1  UNL     1     -13.237   6.611  15.338  1.00  0.00    -0.348 OA
ATOM     36  H1  UNL     1     -13.519   6.950  16.180  1.00  0.00     0.219 HD
ENDBRANCH  20  35
BRANCH  21  37
HETATM   37  C22 UNL     1     -16.274   7.753  14.888  1.00  0.00     0.033 C 
BRANCH  37  38
HETATM   38  C23 UNL     1     -16.941   7.968  16.211  1.00  0.00     0.004 C 
BRANCH  38  39
HETATM   39  C24 UNL     1     -16.190   7.524  17.408  1.00  0.00     0.027 C 
BRANCH  39  40
HETATM   40  C25 UNL     1     -15.326   8.719  17.845  1.00  0.00     0.229 C 
BRANCH  40  41
HETATM   41  N7  UNL     1     -13.919   8.434  17.612  1.00  0.00    -0.079 N 
ATOM     42  H73 UNL     1     -13.441   8.147  18.466  1.00  0.00     0.274 HD
ATOM     43  H72 UNL     1     -13.788   7.578  17.072  1.00  0.00     0.274 HD
ATOM     44  H71 UNL     1     -13.465   9.235  17.171  1.00  0.00     0.274 HD
ENDBRANCH  40  41
ENDBRANCH  39  40
ENDBRANCH  38  39
ENDBRANCH  37  38
ENDBRANCH  21  37
BRANCH  24  45
HETATM   45  O2  UNL     1     -16.897   3.283  14.441  1.00  0.00    -0.348 OA
ATOM     46  H2  UNL     1     -16.065   3.154  14.001  1.00  0.00     0.219 HD
ENDBRANCH  24  45
BRANCH   1  47
HETATM   47  N1  UNL     1     -19.185   5.276  15.473  1.00  0.00    -0.067 N 
HETATM   48  C1  UNL     1     -20.376   6.068  15.159  1.00  0.00     0.267 C 
ATOM     49  H12 UNL     1     -18.476   5.834  15.949  1.00  0.00     0.277 HD
ATOM     50  H11 UNL     1     -19.367   4.597  16.212  1.00  0.00     0.277 HD
ENDBRANCH   1  47
TORSDOF 12
ENDMDL
MODEL 5
REMARK VINA RESULT: -7.037661328      1.767      2.319
REMARK  12 active torsions:
REMARK  status: ('A' for Active; 'I' for Inactive)
REMARK    1  A    between atoms: N1_2  and  C2_5 
REMARK    2  A    between atoms: C13_19  and  C14_20 
REMARK    3  A    between atoms: C14_20  and  C15_21 
REMARK    4  A    between atoms: C15_21  and  C16_22 
REMARK    5  A    between atoms: C16_22  and  N3_23 
REMARK       I    between atoms: N3_23  and  C17_25 
REMARK    6  A    between atoms: C20_34  and  O1_35 
REMARK    7  A    between atoms: C21_37  and  C22_38 
REMARK    8  A    between atoms: C22_38  and  C23_39 
REMARK    9  A    between atoms: C23_39  and  C24_40 
REMARK   10  A    between atoms: C24_40  and  C25_41 
REMARK   11  A    between atoms: C25_41  and  N7_42 
REMARK   12  A    between atoms: C26_48  and  O2_49 
ROOT
HETATM    1  C2  UNL     1     -17.632   6.488  17.151  1.00  0.00     0.263 C 
HETATM    2  C3  UNL     1     -18.706   5.620  16.562  1.00  0.00     0.080 C 
HETATM    3  C4  UNL     1     -18.291   4.980  15.236  1.00  0.00    -0.056 A 
HETATM    4  C5  UNL     1     -18.728   5.454  14.021  1.00  0.00     0.009 A 
HETATM    5  C6  UNL     1     -18.251   5.020  12.743  1.00  0.00     0.029 A 
HETATM    6  C7  UNL     1     -17.282   4.056  12.701  1.00  0.00     0.028 A 
HETATM    7  C8  UNL     1     -16.860   3.577  13.923  1.00  0.00     0.029 A 
HETATM    8  C9  UNL     1     -17.331   4.003  15.199  1.00  0.00     0.009 A 
HETATM    9  N2  UNL     1     -16.603   3.733  11.441  1.00  0.00    -0.389 N 
ATOM     10  H2  UNL     1     -16.876   2.947  10.851  1.00  0.00     0.159 HD
HETATM   11  C10 UNL     1     -15.462   4.663  11.092  1.00  0.00     0.127 C 
HETATM   12  C11 UNL     1     -14.164   4.187  11.592  1.00  0.00     0.035 C 
HETATM   13  C12 UNL     1     -13.263   4.006  10.366  1.00  0.00     0.082 C 
HETATM   14  S1  UNL     1     -12.165   5.442  10.165  1.00  0.00    -0.164 SA
HETATM   15  C13 UNL     1     -11.340   5.603  11.804  1.00  0.00     0.049 C 
HETATM   16  C18 UNL     1     -12.101   4.777  12.809  1.00  0.00     0.040 C 
HETATM   17  C19 UNL     1     -13.610   5.007  12.685  1.00  0.00     0.090 C 
HETATM   18  N6  UNL     1     -13.931   6.406  12.668  1.00  0.00    -0.368 N 
ATOM     19  H6  UNL     1     -14.052   6.773  11.724  1.00  0.00     0.161 HD
HETATM   20  C20 UNL     1     -14.112   7.363  13.644  1.00  0.00     0.135 C 
HETATM   21  C21 UNL     1     -15.252   7.660  14.583  1.00  0.00     0.157 C 
HETATM   22  N8  UNL     1     -15.527   6.639  15.529  1.00  0.00    -0.361 N 
ATOM     23  H8  UNL     1     -14.997   5.795  15.308  1.00  0.00     0.162 HD
HETATM   24  C26 UNL     1     -16.300   6.441  16.664  1.00  0.00     0.143 C 
ENDROOT
BRANCH  15  25
HETATM   25  C14 UNL     1      -9.920   5.226  11.617  1.00  0.00     0.017 C 
BRANCH  25  26
HETATM   26  C15 UNL     1      -9.606   3.807  12.027  1.00  0.00     0.021 C 
BRANCH  26  27
HETATM   27  C16 UNL     1      -8.521   3.752  13.075  1.00  0.00     0.122 C 
BRANCH  27  28
HETATM   28  N3  UNL     1      -7.437   4.643  12.813  1.00  0.00    -0.365 N 
HETATM   29  C17 UNL     1      -6.993   5.630  13.735  1.00  0.00     0.181 C 
HETATM   30  N4  UNL     1      -7.279   6.897  13.557  1.00  0.00    -0.374 N 
HETATM   31  N5  UNL     1      -6.233   5.330  14.879  1.00  0.00    -0.064 NA
ATOM     32  H42 UNL     1      -7.830   7.115  12.727  1.00  0.00     0.158 HD
ATOM     33  H41 UNL     1      -6.960   7.605  14.218  1.00  0.00     0.158 HD
ATOM     34  H3  UNL     1      -6.955   4.567  11.917  1.00  0.00     0.162 HD
ENDBRANCH  27  28
ENDBRANCH  26  27
ENDBRANCH  25  26
ENDBRANCH  15  25
BRANCH  20  35
HETATM   35  O1  UNL     1     -13.116   8.195  13.819  1.00  0.00    -0.348 OA
ATOM     36  H1  UNL     1     -12.413   7.888  14.380  1.00  0.00     0.219 HD
ENDBRANCH  20  35
BRANCH  21  37
HETATM   37  C22 UNL     1     -16.390   8.283  13.838  1.00  0.00     0.033 C 
BRANCH  37  38
HETATM   38  C23 UNL     1     -16.573   9.747  14.091  1.00  0.00     0.004 C 
BRANCH  38  39
HETATM   39  C24 UNL     1     -15.987  10.279  15.343  1.00  0.00     0.027 C 
BRANCH  39  40
HETATM   40  C25 UNL     1     -14.811  11.177  14.924  1.00  0.00     0.229 C 
BRANCH  40  41
HETATM   41  N7  UNL     1     -13.556  10.618  15.404  1.00  0.00    -0.079 N 
ATOM     42  H73 UNL     1     -13.703   9.923  16.135  1.00  0.00     0.274 HD
ATOM     43  H72 UNL     1     -13.117  10.015  14.709  1.00  0.00     0.274 HD
ATOM     44  H71 UNL     1     -12.931  11.365  15.709  1.00  0.00     0.274 HD
ENDBRANCH  40  41
ENDBRANCH  39  40
ENDBRANCH  38  39
ENDBRANCH  37  38
ENDBRANCH  21  37
BRANCH  24  45
HETATM   45  O2  UNL     1     -15.509   6.064  17.693  1.00  0.00    -0.348 OA
ATOM     46  H2  UNL     1     -14.927   6.791  17.882  1.00  0.00     0.219 HD
ENDBRANCH  24  45
BRANCH   1  47
HETATM   47  N1  UNL     1     -18.139   7.844  17.258  1.00  0.00    -0.067 N 
HETATM   48  C1  UNL     1     -19.377   7.996  16.492  1.00  0.00     0.267 C 
ATOM     49  H12 UNL     1     -17.439   8.532  16.985  1.00  0.00     0.277 HD
ATOM     50  H11 UNL     1     -18.260   8.126  18.231  1.00  0.00     0.277 HD
ENDBRANCH   1  47
TORSDOF 12
ENDMDL
