MODEL 1
REMARK VINA RESULT: -8.087505084      0.000      0.000
REMARK  9 active torsions:
REMARK  status: ('A' for Active; 'I' for Inactive)
REMARK    1  A    between atoms: C13_23  and  C14_24 
REMARK    2  A    between atoms: C14_24  and  N5_25 
REMARK       I    between atoms: N5_25  and  C15_27 
REMARK       I    between atoms: C15_27  and  N7_31 
REMARK    3  A    between atoms: N7_31  and  C16_33 
REMARK    4  A    between atoms: C16_33  and  C17_34 
REMARK    5  A    between atoms: C17_34  and  S1_35 
REMARK    6  A    between atoms: S1_35  and  S2_36 
REMARK    7  A    between atoms: S2_36  and  C18_37 
REMARK    8  A    between atoms: C18_37  and  C19_38 
REMARK    9  A    between atoms: C19_38  and  N8_39 
ROOT
HETATM    1  C1  UNL     1     -11.656   1.358   6.873  1.00  0.00     0.068 C 
HETATM    2  C2  UNL     1     -12.631   2.216   7.659  1.00  0.00     0.012 A 
HETATM    3  N1  UNL     1     -12.418   2.729   8.862  1.00  0.00    -0.359 N 
ATOM      4  H1  UNL     1     -11.562   2.611   9.405  1.00  0.00     0.166 HD
HETATM    5  C3  UNL     1     -13.532   3.450   9.272  1.00  0.00     0.032 A 
HETATM    6  C4  UNL     1     -14.475   3.377   8.273  1.00  0.00     0.038 A 
HETATM    7  C5  UNL     1     -13.921   2.612   7.270  1.00  0.00    -0.034 A 
HETATM    8  C6  UNL     1     -14.507   2.212   5.930  1.00  0.00     0.042 C 
HETATM    9  C7  UNL     1     -15.375   0.980   6.072  1.00  0.00     0.024 C 
HETATM   10  C8  UNL     1     -16.699   1.218   6.720  1.00  0.00     0.125 C 
HETATM   11  N2  UNL     1     -17.338  -0.065   6.931  1.00  0.00    -0.343 N 
ATOM     12  H2  UNL     1     -16.745  -0.895   6.945  1.00  0.00     0.164 HD
HETATM   13  C9  UNL     1     -18.733  -0.246   7.120  1.00  0.00     0.316 C 
HETATM   14  O1  UNL     1     -19.348  -1.241   6.589  1.00  0.00    -0.247 OA
HETATM   15  N3  UNL     1     -19.452   0.692   7.910  1.00  0.00    -0.343 N 
ATOM     16  H3  UNL     1     -20.360   1.000   7.561  1.00  0.00     0.164 HD
HETATM   17  C10 UNL     1     -19.002   1.241   9.160  1.00  0.00     0.126 C 
HETATM   18  C11 UNL     1     -19.271   2.728   9.284  1.00  0.00     0.047 C 
HETATM   19  C12 UNL     1     -18.717   3.229  10.610  1.00  0.00     0.234 C 
HETATM   20  N4  UNL     1     -17.679   4.176  10.330  1.00  0.00    -0.069 N 
ATOM     21  H41 UNL     1     -18.057   5.020   9.900  1.00  0.00     0.277 HD
ATOM     22  H42 UNL     1     -17.086   3.857   9.564  1.00  0.00     0.277 HD
HETATM   23  C13 UNL     1     -16.879   4.499  11.522  1.00  0.00     0.207 C 
HETATM   24  C21 UNL     1     -15.708   3.528  11.600  1.00  0.00     0.062 C 
HETATM   25  C22 UNL     1     -14.385   4.180  11.545  1.00  0.00    -0.022 C 
HETATM   26  C23 UNL     1     -13.510   4.129  10.569  1.00  0.00     0.025 C 
ENDROOT
BRANCH  23  27
HETATM   27  C14 UNL     1     -17.733   4.438  12.751  1.00  0.00     0.171 C 
BRANCH  27  28
HETATM   28  N5  UNL     1     -17.694   5.619  13.564  1.00  0.00    -0.225 N 
HETATM   29  C15 UNL     1     -16.929   5.715  14.757  1.00  0.00     0.667 C 
HETATM   30  N6  UNL     1     -17.435   6.067  15.855  1.00  0.00    -0.235 N 
HETATM   31  N7  UNL     1     -15.508   5.432  14.739  1.00  0.00    -0.226 N 
ATOM     32  H62 UNL     1     -18.435   6.266  15.868  1.00  0.00     0.174 HD
ATOM     33  H61 UNL     1     -16.886   6.135  16.712  1.00  0.00     0.174 HD
ATOM     34  H7  UNL     1     -15.138   4.642  14.212  1.00  0.00     0.177 HD
ATOM     35  H5  UNL     1     -18.241   6.429  13.271  1.00  0.00     0.177 HD
BRANCH  31  36
HETATM   36  C16 UNL     1     -14.639   6.289  15.478  1.00  0.00     0.149 C 
BRANCH  36  37
HETATM   37  C17 UNL     1     -14.468   7.646  14.864  1.00  0.00     0.106 C 
BRANCH  37  38
HETATM   38  S1  UNL     1     -13.750   7.487  13.195  1.00  0.00    -0.096 SA
BRANCH  38  39
HETATM   39  S2  UNL     1     -11.943   6.379  13.266  1.00  0.00    -0.096 SA
BRANCH  39  40
HETATM   40  C18 UNL     1     -10.523   7.308  12.636  1.00  0.00     0.105 C 
BRANCH  40  41
HETATM   41  C19 UNL     1      -9.414   6.316  12.350  1.00  0.00     0.133 C 
BRANCH  41  42
HETATM   42  N8  UNL     1      -8.358   6.374  13.311  1.00  0.00    -0.366 N 
HETATM   43  C20 UNL     1      -7.498   5.449  13.487  1.00  0.00     0.196 C 
HETATM   44  N9  UNL     1      -7.539   4.274  12.715  1.00  0.00    -0.067 NA
HETATM   45  N10 UNL     1      -6.486   5.594  14.465  1.00  0.00    -0.067 NA
ATOM     46  H8  UNL     1      -8.288   7.208  13.894  1.00  0.00     0.161 HD
ENDBRANCH  41  42
ENDBRANCH  40  41
ENDBRANCH  39  40
ENDBRANCH  38  39
ENDBRANCH  37  38
ENDBRANCH  36  37
ENDBRANCH  31  36
ENDBRANCH  27  28
ENDBRANCH  23  27
TORSDOF 9
ENDMDL
MODEL 2
REMARK VINA RESULT: -7.661376213      0.874      1.094
REMARK  9 active torsions:
REMARK  status: ('A' for Active; 'I' for Inactive)
REMARK    1  A    between atoms: C13_23  and  C14_24 
REMARK    2  A    between atoms: C14_24  and  N5_25 
REMARK       I    between atoms: N5_25  and  C15_27 
REMARK       I    between atoms: C15_27  and  N7_31 
REMARK    3  A    between atoms: N7_31  and  C16_33 
REMARK    4  A    between atoms: C16_33  and  C17_34 
REMARK    5  A    between atoms: C17_34  and  S1_35 
REMARK    6  A    between atoms: S1_35  and  S2_36 
REMARK    7  A    between atoms: S2_36  and  C18_37 
REMARK    8  A    between atoms: C18_37  and  C19_38 
REMARK    9  A    between atoms: C19_38  and  N8_39 
ROOT
HETATM    1  C1  UNL     1     -11.651   1.618   7.148  1.00  0.00     0.068 C 
HETATM    2  C2  UNL     1     -12.644   2.443   7.948  1.00  0.00     0.012 A 
HETATM    3  N1  UNL     1     -12.445   2.929   9.164  1.00  0.00    -0.359 N 
ATOM      4  H1  UNL     1     -11.592   2.809   9.710  1.00  0.00     0.166 HD
HETATM    5  C3  UNL     1     -13.572   3.625   9.584  1.00  0.00     0.032 A 
HETATM    6  C4  UNL     1     -14.507   3.562   8.577  1.00  0.00     0.038 A 
HETATM    7  C5  UNL     1     -13.936   2.830   7.559  1.00  0.00    -0.034 A 
HETATM    8  C6  UNL     1     -14.508   2.454   6.207  1.00  0.00     0.042 C 
HETATM    9  C7  UNL     1     -15.359   1.207   6.313  1.00  0.00     0.024 C 
HETATM   10  C8  UNL     1     -16.691   1.410   6.957  1.00  0.00     0.125 C 
HETATM   11  N2  UNL     1     -17.313   0.114   7.133  1.00  0.00    -0.343 N 
ATOM     12  H2  UNL     1     -16.708  -0.708   7.131  1.00  0.00     0.164 HD
HETATM   13  C9  UNL     1     -18.707  -0.091   7.308  1.00  0.00     0.316 C 
HETATM   14  O1  UNL     1     -19.304  -1.082   6.749  1.00  0.00    -0.247 OA
HETATM   15  N3  UNL     1     -19.444   0.817   8.116  1.00  0.00    -0.343 N 
ATOM     16  H3  UNL     1     -20.353   1.121   7.769  1.00  0.00     0.164 HD
HETATM   17  C10 UNL     1     -19.009   1.342   9.382  1.00  0.00     0.126 C 
HETATM   18  C11 UNL     1     -19.300   2.821   9.541  1.00  0.00     0.047 C 
HETATM   19  C12 UNL     1     -18.762   3.298  10.882  1.00  0.00     0.234 C 
HETATM   20  N4  UNL     1     -17.735   4.266  10.631  1.00  0.00    -0.069 N 
ATOM     21  H41 UNL     1     -18.123   5.115  10.219  1.00  0.00     0.277 HD
ATOM     22  H42 UNL     1     -17.133   3.974   9.862  1.00  0.00     0.277 HD
HETATM   23  C13 UNL     1     -16.948   4.572  11.836  1.00  0.00     0.207 C 
HETATM   24  C21 UNL     1     -15.764   3.615  11.898  1.00  0.00     0.062 C 
HETATM   25  C22 UNL     1     -14.449   4.287  11.868  1.00  0.00    -0.022 C 
HETATM   26  C23 UNL     1     -13.568   4.271  10.897  1.00  0.00     0.025 C 
ENDROOT
BRANCH  23  27
HETATM   27  C14 UNL     1     -17.809   4.468  13.057  1.00  0.00     0.171 C 
BRANCH  27  28
HETATM   28  N5  UNL     1     -17.918   5.682  13.814  1.00  0.00    -0.225 N 
HETATM   29  C15 UNL     1     -17.389   5.830  15.124  1.00  0.00     0.667 C 
HETATM   30  N6  UNL     1     -18.090   6.225  16.094  1.00  0.00    -0.235 N 
HETATM   31  N7  UNL     1     -15.991   5.554  15.383  1.00  0.00    -0.226 N 
ATOM     32  H62 UNL     1     -19.074   6.420  15.911  1.00  0.00     0.174 HD
ATOM     33  H61 UNL     1     -17.710   6.331  17.034  1.00  0.00     0.174 HD
ATOM     34  H7  UNL     1     -15.532   4.744  14.967  1.00  0.00     0.177 HD
ATOM     35  H5  UNL     1     -18.399   6.477  13.392  1.00  0.00     0.177 HD
BRANCH  31  36
HETATM   36  C16 UNL     1     -15.272   6.444  16.235  1.00  0.00     0.149 C 
BRANCH  36  37
HETATM   37  C17 UNL     1     -14.949   7.760  15.594  1.00  0.00     0.106 C 
BRANCH  37  38
HETATM   38  S1  UNL     1     -14.335   7.491  13.897  1.00  0.00    -0.096 SA
BRANCH  38  39
HETATM   39  S2  UNL     1     -13.260   9.189  13.219  1.00  0.00    -0.096 SA
BRANCH  39  40
HETATM   40  C18 UNL     1     -11.697   8.757  12.416  1.00  0.00     0.105 C 
BRANCH  40  41
HETATM   41  C19 UNL     1     -11.397   7.308  12.742  1.00  0.00     0.133 C 
BRANCH  41  42
HETATM   42  N8  UNL     1     -10.086   7.122  13.279  1.00  0.00    -0.366 N 
HETATM   43  C20 UNL     1      -9.201   6.360  12.764  1.00  0.00     0.196 C 
HETATM   44  N9  UNL     1      -9.475   5.632  11.592  1.00  0.00    -0.067 NA
HETATM   45  N10 UNL     1      -7.928   6.238  13.367  1.00  0.00    -0.067 NA
ATOM     46  H8  UNL     1      -9.841   7.631  14.128  1.00  0.00     0.161 HD
ENDBRANCH  41  42
ENDBRANCH  40  41
ENDBRANCH  39  40
ENDBRANCH  38  39
ENDBRANCH  37  38
ENDBRANCH  36  37
ENDBRANCH  31  36
ENDBRANCH  27  28
ENDBRANCH  23  27
TORSDOF 9
ENDMDL
MODEL 3
REMARK VINA RESULT: -7.654629011      4.198      7.952
REMARK  9 active torsions:
REMARK  status: ('A' for Active; 'I' for Inactive)
REMARK    1  A    between atoms: C13_23  and  C14_24 
REMARK    2  A    between atoms: C14_24  and  N5_25 
REMARK       I    between atoms: N5_25  and  C15_27 
REMARK       I    between atoms: C15_27  and  N7_31 
REMARK    3  A    between atoms: N7_31  and  C16_33 
REMARK    4  A    between atoms: C16_33  and  C17_34 
REMARK    5  A    between atoms: C17_34  and  S1_35 
REMARK    6  A    between atoms: S1_35  and  S2_36 
REMARK    7  A    between atoms: S2_36  and  C18_37 
REMARK    8  A    between atoms: C18_37  and  C19_38 
REMARK    9  A    between atoms: C19_38  and  N8_39 
ROOT
HETATM    1  C1  UNL     1      -9.829   4.263  11.282  1.00  0.00     0.068 C 
HETATM    2  C2  UNL     1     -11.096   4.473  12.093  1.00  0.00     0.012 A 
HETATM    3  N1  UNL     1     -12.127   3.644  12.149  1.00  0.00    -0.359 N 
ATOM      4  H1  UNL     1     -12.191   2.754  11.652  1.00  0.00     0.166 HD
HETATM    5  C3  UNL     1     -13.107   4.166  12.983  1.00  0.00     0.032 A 
HETATM    6  C4  UNL     1     -12.657   5.374  13.462  1.00  0.00     0.038 A 
HETATM    7  C5  UNL     1     -11.408   5.569  12.912  1.00  0.00    -0.034 A 
HETATM    8  C6  UNL     1     -10.446   6.726  13.099  1.00  0.00     0.042 C 
HETATM    9  C7  UNL     1     -10.783   7.861  12.155  1.00  0.00     0.024 C 
HETATM   10  C8  UNL     1     -11.995   8.648  12.531  1.00  0.00     0.125 C 
HETATM   11  N2  UNL     1     -12.280   9.580  11.460  1.00  0.00    -0.343 N 
ATOM     12  H2  UNL     1     -11.894   9.378  10.537  1.00  0.00     0.164 HD
HETATM   13  C9  UNL     1     -13.061  10.757  11.606  1.00  0.00     0.316 C 
HETATM   14  O1  UNL     1     -12.728  11.848  11.013  1.00  0.00    -0.247 OA
HETATM   15  N3  UNL     1     -14.224  10.720  12.421  1.00  0.00    -0.343 N 
ATOM     16  H3  UNL     1     -14.384  11.509  13.047  1.00  0.00     0.164 HD
HETATM   17  C10 UNL     1     -15.194   9.658  12.434  1.00  0.00     0.126 C 
HETATM   18  C11 UNL     1     -15.651   9.291  13.832  1.00  0.00     0.047 C 
HETATM   19  C12 UNL     1     -16.632   8.130  13.750  1.00  0.00     0.234 C 
HETATM   20  N4  UNL     1     -16.052   7.009  14.429  1.00  0.00    -0.069 N 
ATOM     21  H41 UNL     1     -15.978   7.183  15.431  1.00  0.00     0.277 HD
ATOM     22  H42 UNL     1     -15.061   6.916  14.207  1.00  0.00     0.277 HD
HETATM   23  C13 UNL     1     -16.776   5.757  14.160  1.00  0.00     0.207 C 
HETATM   24  C21 UNL     1     -16.158   5.091  12.936  1.00  0.00     0.062 C 
HETATM   25  C22 UNL     1     -15.599   3.751  13.201  1.00  0.00    -0.022 C 
HETATM   26  C23 UNL     1     -14.335   3.401  13.213  1.00  0.00     0.025 C 
ENDROOT
BRANCH  23  27
HETATM   27  C14 UNL     1     -18.234   6.033  13.963  1.00  0.00     0.171 C 
BRANCH  27  28
HETATM   28  N5  UNL     1     -19.085   4.889  14.122  1.00  0.00    -0.225 N 
HETATM   29  C15 UNL     1     -19.773   4.277  13.040  1.00  0.00     0.667 C 
HETATM   30  N6  UNL     1     -21.017   4.078  13.060  1.00  0.00    -0.235 N 
HETATM   31  N7  UNL     1     -19.046   3.830  11.870  1.00  0.00    -0.226 N 
ATOM     32  H62 UNL     1     -21.529   4.393  13.884  1.00  0.00     0.174 HD
ATOM     33  H61 UNL     1     -21.512   3.639  12.283  1.00  0.00     0.174 HD
ATOM     34  H7  UNL     1     -18.304   4.400  11.465  1.00  0.00     0.177 HD
ATOM     35  H5  UNL     1     -19.201   4.495  15.056  1.00  0.00     0.177 HD
BRANCH  31  36
HETATM   36  C16 UNL     1     -19.395   2.570  11.298  1.00  0.00     0.149 C 
BRANCH  36  37
HETATM   37  C17 UNL     1     -18.370   2.041  10.340  1.00  0.00     0.106 C 
BRANCH  37  38
HETATM   38  S1  UNL     1     -19.185   1.457   8.817  1.00  0.00    -0.096 SA
BRANCH  38  39
HETATM   39  S2  UNL     1     -17.811   1.438   7.201  1.00  0.00    -0.096 SA
BRANCH  39  40
HETATM   40  C18 UNL     1     -16.209   0.726   7.648  1.00  0.00     0.105 C 
BRANCH  40  41
HETATM   41  C19 UNL     1     -15.254   1.872   7.918  1.00  0.00     0.133 C 
BRANCH  41  42
HETATM   42  N8  UNL     1     -13.992   1.704   7.270  1.00  0.00    -0.366 N 
HETATM   43  C20 UNL     1     -12.872   2.029   7.787  1.00  0.00     0.196 C 
HETATM   44  N9  UNL     1     -12.812   2.592   9.075  1.00  0.00    -0.067 NA
HETATM   45  N10 UNL     1     -11.670   1.826   7.070  1.00  0.00    -0.067 NA
ATOM     46  H8  UNL     1     -13.985   1.299   6.335  1.00  0.00     0.161 HD
ENDBRANCH  41  42
ENDBRANCH  40  41
ENDBRANCH  39  40
ENDBRANCH  38  39
ENDBRANCH  37  38
ENDBRANCH  36  37
ENDBRANCH  31  36
ENDBRANCH  27  28
ENDBRANCH  23  27
TORSDOF 9
ENDMDL
MODEL 4
REMARK VINA RESULT: -7.640227988      4.061      7.855
REMARK  9 active torsions:
REMARK  status: ('A' for Active; 'I' for Inactive)
REMARK    1  A    between atoms: C13_23  and  C14_24 
REMARK    2  A    between atoms: C14_24  and  N5_25 
REMARK       I    between atoms: N5_25  and  C15_27 
REMARK       I    between atoms: C15_27  and  N7_31 
REMARK    3  A    between atoms: N7_31  and  C16_33 
REMARK    4  A    between atoms: C16_33  and  C17_34 
REMARK    5  A    between atoms: C17_34  and  S1_35 
REMARK    6  A    between atoms: S1_35  and  S2_36 
REMARK    7  A    between atoms: S2_36  and  C18_37 
REMARK    8  A    between atoms: C18_37  and  C19_38 
REMARK    9  A    between atoms: C19_38  and  N8_39 
ROOT
HETATM    1  C1  UNL     1      -9.886   4.210  11.277  1.00  0.00     0.068 C 
HETATM    2  C2  UNL     1     -11.148   4.459  12.086  1.00  0.00     0.012 A 
HETATM    3  N1  UNL     1     -12.202   3.660  12.142  1.00  0.00    -0.359 N 
ATOM      4  H1  UNL     1     -12.291   2.772  11.647  1.00  0.00     0.166 HD
HETATM    5  C3  UNL     1     -13.168   4.211  12.974  1.00  0.00     0.032 A 
HETATM    6  C4  UNL     1     -12.684   5.407  13.451  1.00  0.00     0.038 A 
HETATM    7  C5  UNL     1     -11.429   5.565  12.903  1.00  0.00    -0.034 A 
HETATM    8  C6  UNL     1     -10.434   6.694  13.088  1.00  0.00     0.042 C 
HETATM    9  C7  UNL     1     -10.737   7.836  12.142  1.00  0.00     0.024 C 
HETATM   10  C8  UNL     1     -11.927   8.659  12.514  1.00  0.00     0.125 C 
HETATM   11  N2  UNL     1     -12.183   9.597  11.441  1.00  0.00    -0.343 N 
ATOM     12  H2  UNL     1     -11.802   9.381  10.520  1.00  0.00     0.164 HD
HETATM   13  C9  UNL     1     -12.930  10.796  11.584  1.00  0.00     0.316 C 
HETATM   14  O1  UNL     1     -12.565  11.875  10.990  1.00  0.00    -0.247 OA
HETATM   15  N3  UNL     1     -14.095  10.794  12.398  1.00  0.00    -0.343 N 
ATOM     16  H3  UNL     1     -14.232  11.588  13.022  1.00  0.00     0.164 HD
HETATM   17  C10 UNL     1     -15.095   9.760  12.411  1.00  0.00     0.126 C 
HETATM   18  C11 UNL     1     -15.564   9.409  13.809  1.00  0.00     0.047 C 
HETATM   19  C12 UNL     1     -16.578   8.277  13.729  1.00  0.00     0.234 C 
HETATM   20  N4  UNL     1     -16.031   7.141  14.410  1.00  0.00    -0.069 N 
ATOM     21  H41 UNL     1     -15.954   7.315  15.412  1.00  0.00     0.277 HD
ATOM     22  H42 UNL     1     -15.043   7.019  14.190  1.00  0.00     0.277 HD
HETATM   23  C13 UNL     1     -16.791   5.910  14.142  1.00  0.00     0.207 C 
HETATM   24  C21 UNL     1     -16.191   5.224  12.921  1.00  0.00     0.062 C 
HETATM   25  C22 UNL     1     -15.671   3.869  13.189  1.00  0.00    -0.022 C 
HETATM   26  C23 UNL     1     -14.418   3.483  13.204  1.00  0.00     0.025 C 
ENDROOT
BRANCH  23  27
HETATM   27  C14 UNL     1     -18.240   6.228  13.943  1.00  0.00     0.171 C 
BRANCH  27  28
HETATM   28  N5  UNL     1     -19.136   5.151  14.257  1.00  0.00    -0.225 N 
HETATM   29  C15 UNL     1     -20.007   4.563  13.301  1.00  0.00     0.667 C 
HETATM   30  N6  UNL     1     -21.246   4.453  13.498  1.00  0.00    -0.235 N 
HETATM   31  N7  UNL     1     -19.481   4.035  12.060  1.00  0.00    -0.226 N 
ATOM     32  H62 UNL     1     -21.617   4.825  14.372  1.00  0.00     0.174 HD
ATOM     33  H61 UNL     1     -21.872   4.031  12.812  1.00  0.00     0.174 HD
ATOM     34  H7  UNL     1     -18.765   4.540  11.538  1.00  0.00     0.177 HD
ATOM     35  H5  UNL     1     -19.147   4.791  15.212  1.00  0.00     0.177 HD
BRANCH  31  36
HETATM   36  C16 UNL     1     -19.988   2.789  11.585  1.00  0.00     0.149 C 
BRANCH  36  37
HETATM   37  C17 UNL     1     -19.664   2.516  10.147  1.00  0.00     0.106 C 
BRANCH  37  38
HETATM   38  S1  UNL     1     -17.978   1.834  10.009  1.00  0.00    -0.096 SA
BRANCH  38  39
HETATM   39  S2  UNL     1     -17.339   1.840   7.987  1.00  0.00    -0.096 SA
BRANCH  39  40
HETATM   40  C18 UNL     1     -15.893   0.788   7.703  1.00  0.00     0.105 C 
BRANCH  40  41
HETATM   41  C19 UNL     1     -14.695   1.696   7.507  1.00  0.00     0.133 C 
BRANCH  41  42
HETATM   42  N8  UNL     1     -14.825   2.940   8.197  1.00  0.00    -0.366 N 
HETATM   43  C20 UNL     1     -13.940   3.423   8.978  1.00  0.00     0.196 C 
HETATM   44  N9  UNL     1     -12.737   2.732   9.214  1.00  0.00    -0.067 NA
HETATM   45  N10 UNL     1     -14.156   4.664   9.619  1.00  0.00    -0.067 NA
ATOM     46  H8  UNL     1     -15.680   3.477   8.056  1.00  0.00     0.161 HD
ENDBRANCH  41  42
ENDBRANCH  40  41
ENDBRANCH  39  40
ENDBRANCH  38  39
ENDBRANCH  37  38
ENDBRANCH  36  37
ENDBRANCH  31  36
ENDBRANCH  27  28
ENDBRANCH  23  27
TORSDOF 9
ENDMDL
MODEL 5
REMARK VINA RESULT: -7.567892003      1.090      1.288
REMARK  9 active torsions:
REMARK  status: ('A' for Active; 'I' for Inactive)
REMARK    1  A    between atoms: C13_23  and  C14_24 
REMARK    2  A    between atoms: C14_24  and  N5_25 
REMARK       I    between atoms: N5_25  and  C15_27 
REMARK       I    between atoms: C15_27  and  N7_31 
REMARK    3  A    between atoms: N7_31  and  C16_33 
REMARK    4  A    between atoms: C16_33  and  C17_34 
REMARK    5  A    between atoms: C17_34  and  S1_35 
REMARK    6  A    between atoms: S1_35  and  S2_36 
REMARK    7  A    between atoms: S2_36  and  C18_37 
REMARK    8  A    between atoms: C18_37  and  C19_38 
REMARK    9  A    between atoms: C19_38  and  N8_39 
ROOT
HETATM    1  C1  UNL     1     -11.678   1.452   6.931  1.00  0.00     0.068 C 
HETATM    2  C2  UNL     1     -12.592   2.322   7.777  1.00  0.00     0.012 A 
HETATM    3  N1  UNL     1     -12.312   2.796   8.982  1.00  0.00    -0.359 N 
ATOM      4  H1  UNL     1     -11.441   2.635   9.487  1.00  0.00     0.166 HD
HETATM    5  C3  UNL     1     -13.383   3.544   9.454  1.00  0.00     0.032 A 
HETATM    6  C4  UNL     1     -14.368   3.528   8.493  1.00  0.00     0.038 A 
HETATM    7  C5  UNL     1     -13.881   2.771   7.450  1.00  0.00    -0.034 A 
HETATM    8  C6  UNL     1     -14.533   2.425   6.126  1.00  0.00     0.042 C 
HETATM    9  C7  UNL     1     -15.437   1.220   6.273  1.00  0.00     0.024 C 
HETATM   10  C8  UNL     1     -16.726   1.486   6.980  1.00  0.00     0.125 C 
HETATM   11  N2  UNL     1     -17.400   0.220   7.186  1.00  0.00    -0.343 N 
ATOM     12  H2  UNL     1     -16.836  -0.629   7.156  1.00  0.00     0.164 HD
HETATM   13  C9  UNL     1     -18.792   0.082   7.427  1.00  0.00     0.316 C 
HETATM   14  O1  UNL     1     -19.462  -0.878   6.897  1.00  0.00    -0.247 OA
HETATM   15  N3  UNL     1     -19.446   1.023   8.267  1.00  0.00    -0.343 N 
ATOM     16  H3  UNL     1     -20.355   1.371   7.963  1.00  0.00     0.164 HD
HETATM   17  C10 UNL     1     -18.928   1.525   9.512  1.00  0.00     0.126 C 
HETATM   18  C11 UNL     1     -19.139   3.016   9.683  1.00  0.00     0.047 C 
HETATM   19  C12 UNL     1     -18.516   3.463  10.997  1.00  0.00     0.234 C 
HETATM   20  N4  UNL     1     -17.457   4.382  10.697  1.00  0.00    -0.069 N 
ATOM     21  H41 UNL     1     -17.823   5.249  10.304  1.00  0.00     0.277 HD
ATOM     22  H42 UNL     1     -16.907   4.063   9.901  1.00  0.00     0.277 HD
HETATM   23  C13 UNL     1     -16.601   4.648  11.863  1.00  0.00     0.207 C 
HETATM   24  C21 UNL     1     -15.461   3.636  11.870  1.00  0.00     0.062 C 
HETATM   25  C22 UNL     1     -14.119   4.243  11.778  1.00  0.00    -0.022 C 
HETATM   26  C23 UNL     1     -13.286   4.188  10.766  1.00  0.00     0.025 C 
ENDROOT
BRANCH  23  27
HETATM   27  C14 UNL     1     -17.406   4.584  13.124  1.00  0.00     0.171 C 
BRANCH  27  28
HETATM   28  N5  UNL     1     -16.838   5.295  14.232  1.00  0.00    -0.225 N 
HETATM   29  C15 UNL     1     -15.768   6.220  14.094  1.00  0.00     0.667 C 
HETATM   30  N6  UNL     1     -14.710   6.132  14.771  1.00  0.00    -0.235 N 
HETATM   31  N7  UNL     1     -15.878   7.332  13.172  1.00  0.00    -0.226 N 
ATOM     32  H62 UNL     1     -14.633   5.349  15.420  1.00  0.00     0.174 HD
ATOM     33  H61 UNL     1     -13.942   6.795  14.672  1.00  0.00     0.174 HD
ATOM     34  H7  UNL     1     -16.282   7.205  12.245  1.00  0.00     0.177 HD
ATOM     35  H5  UNL     1     -17.220   5.130  15.164  1.00  0.00     0.177 HD
BRANCH  31  36
HETATM   36  C16 UNL     1     -15.405   8.610  13.595  1.00  0.00     0.149 C 
BRANCH  36  37
HETATM   37  C17 UNL     1     -14.522   9.287  12.591  1.00  0.00     0.106 C 
BRANCH  37  38
HETATM   38  S1  UNL     1     -13.529   8.044  11.698  1.00  0.00    -0.096 SA
BRANCH  38  39
HETATM   39  S2  UNL     1     -11.476   8.242  12.190  1.00  0.00    -0.096 SA
BRANCH  39  40
HETATM   40  C18 UNL     1     -10.459   6.904  11.516  1.00  0.00     0.105 C 
BRANCH  40  41
HETATM   41  C19 UNL     1     -10.350   5.829  12.578  1.00  0.00     0.133 C 
BRANCH  41  42
HETATM   42  N8  UNL     1      -8.998   5.556  12.952  1.00  0.00    -0.366 N 
HETATM   43  C20 UNL     1      -8.410   4.442  12.751  1.00  0.00     0.196 C 
HETATM   44  N9  UNL     1      -9.083   3.377  12.125  1.00  0.00    -0.067 NA
HETATM   45  N10 UNL     1      -7.067   4.262  13.156  1.00  0.00    -0.067 NA
ATOM     46  H8  UNL     1      -8.470   6.299  13.408  1.00  0.00     0.161 HD
ENDBRANCH  41  42
ENDBRANCH  40  41
ENDBRANCH  39  40
ENDBRANCH  38  39
ENDBRANCH  37  38
ENDBRANCH  36  37
ENDBRANCH  31  36
ENDBRANCH  27  28
ENDBRANCH  23  27
TORSDOF 9
ENDMDL
