MODEL 1
REMARK VINA RESULT: -8.874732696      0.000      0.000
REMARK  12 active torsions:
REMARK  status: ('A' for Active; 'I' for Inactive)
REMARK    1  A    between atoms: C2_2  and  C3_3 
REMARK    2  A    between atoms: C3_3  and  C4_4 
REMARK    3  A    between atoms: C4_4  and  N1_5 
REMARK       I    between atoms: N1_5  and  C5_7 
REMARK       I    between atoms: C5_7  and  N3_11 
REMARK    4  A    between atoms: N3_11  and  C6_13 
REMARK    5  A    between atoms: C6_13  and  C7_14 
REMARK    6  A    between atoms: C7_14  and  C8_15 
REMARK    7  A    between atoms: N4_17  and  C10_18 
REMARK    8  A    between atoms: C10_18  and  C11_19 
REMARK    9  A    between atoms: C21_31  and  N6_32 
REMARK   10  A    between atoms: C22_37  and  N8_38 
REMARK   11  A    between atoms: C23_41  and  C24_42 
REMARK   12  A    between atoms: C24_42  and  O1_43 
ROOT
HETATM    1  C8  UNL     1     -15.717   4.780  12.218  1.00  0.00     0.117 C 
HETATM    2  C9  UNL     1     -15.212   5.662  11.059  1.00  0.00     0.090 C 
HETATM    3  N4  UNL     1     -14.047   5.200  10.426  1.00  0.00    -0.345 N 
HETATM    4  C17 UNL     1     -12.999   4.762  11.235  1.00  0.00     0.198 C 
HETATM    5  C18 UNL     1     -11.637   4.669  10.641  1.00  0.00     0.092 C 
HETATM    6  C19 UNL     1     -10.573   5.116  11.567  1.00  0.00     0.015 A 
HETATM    7  C20 UNL     1     -10.725   6.285  12.332  1.00  0.00     0.061 A 
HETATM    8  N5  UNL     1      -9.800   6.748  13.132  1.00  0.00    -0.193 N 
ATOM      9  H5  UNL     1      -9.953   7.602  13.668  1.00  0.00     0.184 HD
HETATM   10  C21 UNL     1      -8.644   6.071  13.233  1.00  0.00     0.677 A 
HETATM   11  N7  UNL     1      -8.445   4.952  12.527  1.00  0.00    -0.177 N 
ATOM     12  H7  UNL     1      -7.552   4.470  12.633  1.00  0.00     0.185 HD
HETATM   13  C22 UNL     1      -9.365   4.415  11.676  1.00  0.00     0.123 A 
HETATM   14  C23 UNL     1     -12.075   6.877  12.141  1.00  0.00     0.164 C 
HETATM   15  N9  UNL     1     -12.897   5.703  12.360  1.00  0.00    -0.316 N 
HETATM   16  C25 UNL     1     -13.347   5.756  13.681  1.00  0.00     0.244 C 
HETATM   17  O2  UNL     1     -12.496   6.255  14.484  1.00  0.00    -0.271 OA
HETATM   18  C26 UNL     1     -14.620   5.337  14.302  1.00  0.00     0.166 C 
HETATM   19  C27 UNL     1     -14.814   5.881  15.689  1.00  0.00     0.042 C 
HETATM   20  N10 UNL     1     -15.730   5.546  13.443  1.00  0.00    -0.401 N 
ATOM     21  H10 UNL     1     -16.484   6.191  13.675  1.00  0.00     0.154 HD
ENDROOT
BRANCH   1  22
HETATM   22  C7  UNL     1     -17.176   4.432  11.913  1.00  0.00     0.050 C 
BRANCH  22  23
HETATM   23  C6  UNL     1     -17.372   3.070  11.360  1.00  0.00     0.140 C 
BRANCH  23  24
HETATM   24  N3  UNL     1     -18.511   3.119  10.426  1.00  0.00    -0.227 N 
HETATM   25  C5  UNL     1     -19.508   2.100  10.428  1.00  0.00     0.667 C 
HETATM   26  N1  UNL     1     -19.305   1.039   9.490  1.00  0.00    -0.227 N 
HETATM   27  N2  UNL     1     -20.536   2.095  11.205  1.00  0.00    -0.235 N 
ATOM     28  H1  UNL     1     -19.249   0.079   9.830  1.00  0.00     0.177 HD
ATOM     29  H22 UNL     1     -21.249   1.367  11.206  1.00  0.00     0.174 HD
ATOM     30  H21 UNL     1     -20.680   2.852  11.874  1.00  0.00     0.174 HD
ATOM     31  H3  UNL     1     -18.586   3.894   9.768  1.00  0.00     0.177 HD
BRANCH  26  32
HETATM   32  C4  UNL     1     -19.177   1.292   8.085  1.00  0.00     0.138 C 
BRANCH  32  33
HETATM   33  C3  UNL     1     -19.134   0.025   7.269  1.00  0.00     0.020 C 
BRANCH  33  34
HETATM   34  C2  UNL     1     -18.337   0.263   6.006  1.00  0.00    -0.003 C 
HETATM   35  C1  UNL     1     -18.752  -0.724   4.937  1.00  0.00     0.005 C 
ENDBRANCH  33  34
ENDBRANCH  32  33
ENDBRANCH  26  32
ENDBRANCH  23  24
ENDBRANCH  22  23
ENDBRANCH   1  22
BRANCH   3  36
HETATM   36  C10 UNL     1     -14.028   4.970   9.055  1.00  0.00     0.103 C 
BRANCH  36  37
HETATM   37  C11 UNL     1     -14.256   3.545   8.622  1.00  0.00    -0.021 A 
HETATM   38  C12 UNL     1     -13.213   2.699   8.357  1.00  0.00     0.013 A 
HETATM   39  C13 UNL     1     -13.468   1.416   7.963  1.00  0.00     0.001 A 
HETATM   40  C14 UNL     1     -14.753   0.944   7.824  1.00  0.00     0.000 A 
HETATM   41  C15 UNL     1     -15.824   1.776   8.086  1.00  0.00     0.001 A 
HETATM   42  C16 UNL     1     -15.533   3.056   8.479  1.00  0.00     0.013 A 
ENDBRANCH  36  37
ENDBRANCH   3  36
BRANCH  14  43
HETATM   43  C24 UNL     1     -12.411   8.163  12.667  1.00  0.00     0.196 C 
BRANCH  43  44
HETATM   44  O1  UNL     1     -11.246   8.722  13.296  1.00  0.00    -0.398 OA
ATOM     45  H1  UNL     1     -11.026   9.537  12.859  1.00  0.00     0.209 HD
ENDBRANCH  43  44
ENDBRANCH  14  43
BRANCH  13  46
HETATM   46  N8  UNL     1      -9.129   3.360  11.027  1.00  0.00    -0.385 N 
ATOM     47  H82 UNL     1      -9.877   2.823  10.588  1.00  0.00     0.157 HD
ATOM     48  H81 UNL     1      -8.188   2.984  10.910  1.00  0.00     0.157 HD
ENDBRANCH  13  46
BRANCH  10  49
HETATM   49  N6  UNL     1      -7.699   6.510  14.027  1.00  0.00    -0.234 N 
ATOM     50  H62 UNL     1      -7.061   7.234  13.696  1.00  0.00     0.174 HD
ATOM     51  H61 UNL     1      -7.606   6.126  14.968  1.00  0.00     0.174 HD
ENDBRANCH  10  49
TORSDOF 12
ENDMDL
MODEL 2
REMARK VINA RESULT: -8.826060425      0.989      1.736
REMARK  12 active torsions:
REMARK  status: ('A' for Active; 'I' for Inactive)
REMARK    1  A    between atoms: C2_2  and  C3_3 
REMARK    2  A    between atoms: C3_3  and  C4_4 
REMARK    3  A    between atoms: C4_4  and  N1_5 
REMARK       I    between atoms: N1_5  and  C5_7 
REMARK       I    between atoms: C5_7  and  N3_11 
REMARK    4  A    between atoms: N3_11  and  C6_13 
REMARK    5  A    between atoms: C6_13  and  C7_14 
REMARK    6  A    between atoms: C7_14  and  C8_15 
REMARK    7  A    between atoms: N4_17  and  C10_18 
REMARK    8  A    between atoms: C10_18  and  C11_19 
REMARK    9  A    between atoms: C21_31  and  N6_32 
REMARK   10  A    between atoms: C22_37  and  N8_38 
REMARK   11  A    between atoms: C23_41  and  C24_42 
REMARK   12  A    between atoms: C24_42  and  O1_43 
ROOT
HETATM    1  C8  UNL     1     -15.772   4.780  12.288  1.00  0.00     0.117 C 
HETATM    2  C9  UNL     1     -15.289   5.656  11.116  1.00  0.00     0.090 C 
HETATM    3  N4  UNL     1     -14.131   5.195  10.469  1.00  0.00    -0.345 N 
HETATM    4  C17 UNL     1     -13.068   4.767  11.264  1.00  0.00     0.198 C 
HETATM    5  C18 UNL     1     -11.715   4.676  10.651  1.00  0.00     0.092 C 
HETATM    6  C19 UNL     1     -10.640   5.134  11.559  1.00  0.00     0.015 A 
HETATM    7  C20 UNL     1     -10.785   6.308  12.317  1.00  0.00     0.061 A 
HETATM    8  N5  UNL     1      -9.851   6.779  13.101  1.00  0.00    -0.193 N 
ATOM      9  H5  UNL     1     -10.000   7.636  13.633  1.00  0.00     0.184 HD
HETATM   10  C21 UNL     1      -8.690   6.109  13.188  1.00  0.00     0.677 A 
HETATM   11  N7  UNL     1      -8.497   4.985  12.488  1.00  0.00    -0.177 N 
ATOM     12  H7  UNL     1      -7.600   4.509  12.583  1.00  0.00     0.185 HD
HETATM   13  C22 UNL     1      -9.427   4.439  11.654  1.00  0.00     0.123 A 
HETATM   14  C23 UNL     1     -12.141   6.892  12.143  1.00  0.00     0.164 C 
HETATM   15  N9  UNL     1     -12.954   5.716  12.381  1.00  0.00    -0.316 N 
HETATM   16  C25 UNL     1     -13.384   5.776  13.709  1.00  0.00     0.244 C 
HETATM   17  O2  UNL     1     -12.524   6.284  14.496  1.00  0.00    -0.271 OA
HETATM   18  C26 UNL     1     -14.646   5.355  14.352  1.00  0.00     0.166 C 
HETATM   19  C27 UNL     1     -14.822   5.907  15.738  1.00  0.00     0.042 C 
HETATM   20  N10 UNL     1     -15.770   5.553  13.508  1.00  0.00    -0.401 N 
ATOM     21  H10 UNL     1     -16.524   6.197  13.747  1.00  0.00     0.154 HD
ENDROOT
BRANCH   1  22
HETATM   22  C7  UNL     1     -17.234   4.423  12.008  1.00  0.00     0.050 C 
BRANCH  22  23
HETATM   23  C6  UNL     1     -18.189   4.937  13.020  1.00  0.00     0.140 C 
BRANCH  23  24
HETATM   24  N3  UNL     1     -19.227   3.913  13.226  1.00  0.00    -0.227 N 
HETATM   25  C5  UNL     1     -19.007   2.556  12.849  1.00  0.00     0.667 C 
HETATM   26  N1  UNL     1     -19.480   2.194  11.548  1.00  0.00    -0.227 N 
HETATM   27  N2  UNL     1     -18.425   1.683  13.597  1.00  0.00    -0.235 N 
ATOM     28  H1  UNL     1     -18.823   1.809  10.870  1.00  0.00     0.177 HD
ATOM     29  H22 UNL     1     -18.267   0.712  13.328  1.00  0.00     0.174 HD
ATOM     30  H21 UNL     1     -18.087   1.941  14.524  1.00  0.00     0.174 HD
ATOM     31  H3  UNL     1     -20.118   4.179  13.645  1.00  0.00     0.177 HD
BRANCH  26  32
HETATM   32  C4  UNL     1     -20.854   2.361  11.175  1.00  0.00     0.138 C 
BRANCH  32  33
HETATM   33  C3  UNL     1     -21.083   2.158   9.698  1.00  0.00     0.020 C 
BRANCH  33  34
HETATM   34  C2  UNL     1     -19.760   2.215   8.968  1.00  0.00    -0.003 C 
HETATM   35  C1  UNL     1     -19.535   0.930   8.201  1.00  0.00     0.005 C 
ENDBRANCH  33  34
ENDBRANCH  32  33
ENDBRANCH  26  32
ENDBRANCH  23  24
ENDBRANCH  22  23
ENDBRANCH   1  22
BRANCH   3  36
HETATM   36  C10 UNL     1     -14.131   4.955   9.099  1.00  0.00     0.103 C 
BRANCH  36  37
HETATM   37  C11 UNL     1     -14.514   3.562   8.673  1.00  0.00    -0.021 A 
HETATM   38  C12 UNL     1     -15.811   3.127   8.726  1.00  0.00     0.013 A 
HETATM   39  C13 UNL     1     -16.111   1.853   8.333  1.00  0.00     0.001 A 
HETATM   40  C14 UNL     1     -15.141   0.987   7.881  1.00  0.00     0.000 A 
HETATM   41  C15 UNL     1     -13.825   1.402   7.817  1.00  0.00     0.001 A 
HETATM   42  C16 UNL     1     -13.558   2.684   8.218  1.00  0.00     0.013 A 
ENDBRANCH  36  37
ENDBRANCH   3  36
BRANCH  14  43
HETATM   43  C24 UNL     1     -12.475   8.180  12.665  1.00  0.00     0.196 C 
BRANCH  43  44
HETATM   44  O1  UNL     1     -11.298   8.758  13.254  1.00  0.00    -0.398 OA
ATOM     45  H1  UNL     1     -10.792   9.181  12.570  1.00  0.00     0.209 HD
ENDBRANCH  43  44
ENDBRANCH  14  43
BRANCH  13  46
HETATM   46  N8  UNL     1      -9.196   3.381  11.008  1.00  0.00    -0.385 N 
ATOM     47  H82 UNL     1      -9.896   2.965  10.393  1.00  0.00     0.157 HD
ATOM     48  H81 UNL     1      -8.308   2.882  11.068  1.00  0.00     0.157 HD
ENDBRANCH  13  46
BRANCH  10  49
HETATM   49  N6  UNL     1      -7.735   6.557  13.966  1.00  0.00    -0.234 N 
ATOM     50  H62 UNL     1      -7.714   7.545  14.217  1.00  0.00     0.174 HD
ATOM     51  H61 UNL     1      -7.021   5.916  14.314  1.00  0.00     0.174 HD
ENDBRANCH  10  49
TORSDOF 12
ENDMDL
MODEL 3
REMARK VINA RESULT: -8.735296488      1.276      1.866
REMARK  12 active torsions:
REMARK  status: ('A' for Active; 'I' for Inactive)
REMARK    1  A    between atoms: C2_2  and  C3_3 
REMARK    2  A    between atoms: C3_3  and  C4_4 
REMARK    3  A    between atoms: C4_4  and  N1_5 
REMARK       I    between atoms: N1_5  and  C5_7 
REMARK       I    between atoms: C5_7  and  N3_11 
REMARK    4  A    between atoms: N3_11  and  C6_13 
REMARK    5  A    between atoms: C6_13  and  C7_14 
REMARK    6  A    between atoms: C7_14  and  C8_15 
REMARK    7  A    between atoms: N4_17  and  C10_18 
REMARK    8  A    between atoms: C10_18  and  C11_19 
REMARK    9  A    between atoms: C21_31  and  N6_32 
REMARK   10  A    between atoms: C22_37  and  N8_38 
REMARK   11  A    between atoms: C23_41  and  C24_42 
REMARK   12  A    between atoms: C24_42  and  O1_43 
ROOT
HETATM    1  C8  UNL     1     -15.807   4.825  12.377  1.00  0.00     0.117 C 
HETATM    2  C9  UNL     1     -15.341   5.694  11.191  1.00  0.00     0.090 C 
HETATM    3  N4  UNL     1     -14.193   5.229  10.531  1.00  0.00    -0.345 N 
HETATM    4  C17 UNL     1     -13.119   4.807  11.314  1.00  0.00     0.198 C 
HETATM    5  C18 UNL     1     -11.775   4.712  10.682  1.00  0.00     0.092 C 
HETATM    6  C19 UNL     1     -10.686   5.176  11.570  1.00  0.00     0.015 A 
HETATM    7  C20 UNL     1     -10.821   6.354  12.324  1.00  0.00     0.061 A 
HETATM    8  N5  UNL     1      -9.876   6.831  13.091  1.00  0.00    -0.193 N 
ATOM      9  H5  UNL     1     -10.018   7.692  13.619  1.00  0.00     0.184 HD
HETATM   10  C21 UNL     1      -8.714   6.162  13.166  1.00  0.00     0.677 A 
HETATM   11  N7  UNL     1      -8.530   5.034  12.469  1.00  0.00    -0.177 N 
ATOM     12  H7  UNL     1      -7.632   4.558  12.554  1.00  0.00     0.185 HD
HETATM   13  C22 UNL     1      -9.472   4.482  11.652  1.00  0.00     0.123 A 
HETATM   14  C23 UNL     1     -12.179   6.938  12.165  1.00  0.00     0.164 C 
HETATM   15  N9  UNL     1     -12.988   5.763  12.423  1.00  0.00    -0.316 N 
HETATM   16  C25 UNL     1     -13.400   5.831  13.756  1.00  0.00     0.244 C 
HETATM   17  O2  UNL     1     -12.528   6.344  14.527  1.00  0.00    -0.271 OA
HETATM   18  C26 UNL     1     -14.652   5.415  14.420  1.00  0.00     0.166 C 
HETATM   19  C27 UNL     1     -14.808   5.975  15.805  1.00  0.00     0.042 C 
HETATM   20  N10 UNL     1     -15.788   5.607  13.591  1.00  0.00    -0.401 N 
ATOM     21  H10 UNL     1     -16.539   6.252  13.837  1.00  0.00     0.154 HD
ENDROOT
BRANCH   1  22
HETATM   22  C7  UNL     1     -17.273   4.467  12.119  1.00  0.00     0.050 C 
BRANCH  22  23
HETATM   23  C6  UNL     1     -18.146   4.586  13.313  1.00  0.00     0.140 C 
BRANCH  23  24
HETATM   24  N3  UNL     1     -19.233   3.602  13.181  1.00  0.00    -0.227 N 
HETATM   25  C5  UNL     1     -18.974   2.276  12.728  1.00  0.00     0.667 C 
HETATM   26  N1  UNL     1     -19.153   2.059  11.325  1.00  0.00    -0.227 N 
HETATM   27  N2  UNL     1     -18.602   1.309  13.494  1.00  0.00    -0.235 N 
ATOM     28  H1  UNL     1     -18.372   1.704  10.773  1.00  0.00     0.177 HD
ATOM     29  H22 UNL     1     -18.417   0.360  13.170  1.00  0.00     0.174 HD
ATOM     30  H21 UNL     1     -18.474   1.464  14.494  1.00  0.00     0.174 HD
ATOM     31  H3  UNL     1     -20.187   3.874  13.417  1.00  0.00     0.177 HD
BRANCH  26  32
HETATM   32  C4  UNL     1     -20.402   2.329  10.675  1.00  0.00     0.138 C 
BRANCH  32  33
HETATM   33  C3  UNL     1     -20.277   2.380   9.174  1.00  0.00     0.020 C 
BRANCH  33  34
HETATM   34  C2  UNL     1     -19.843   3.764   8.747  1.00  0.00    -0.003 C 
HETATM   35  C1  UNL     1     -20.609   4.810   9.526  1.00  0.00     0.005 C 
ENDBRANCH  33  34
ENDBRANCH  32  33
ENDBRANCH  26  32
ENDBRANCH  23  24
ENDBRANCH  22  23
ENDBRANCH   1  22
BRANCH   3  36
HETATM   36  C10 UNL     1     -14.212   4.981   9.163  1.00  0.00     0.103 C 
BRANCH  36  37
HETATM   37  C11 UNL     1     -14.704   3.619   8.747  1.00  0.00    -0.021 A 
HETATM   38  C12 UNL     1     -13.852   2.667   8.256  1.00  0.00     0.013 A 
HETATM   39  C13 UNL     1     -14.345   1.447   7.886  1.00  0.00     0.001 A 
HETATM   40  C14 UNL     1     -15.683   1.144   7.995  1.00  0.00     0.000 A 
HETATM   41  C15 UNL     1     -16.564   2.086   8.488  1.00  0.00     0.001 A 
HETATM   42  C16 UNL     1     -16.038   3.299   8.848  1.00  0.00     0.013 A 
ENDBRANCH  36  37
ENDBRANCH   3  36
BRANCH  14  43
HETATM   43  C24 UNL     1     -12.506   8.228  12.684  1.00  0.00     0.196 C 
BRANCH  43  44
HETATM   44  O1  UNL     1     -11.336   8.784  13.307  1.00  0.00    -0.398 OA
ATOM     45  H1  UNL     1     -11.605   9.489  13.884  1.00  0.00     0.209 HD
ENDBRANCH  43  44
ENDBRANCH  14  43
BRANCH  13  46
HETATM   46  N8  UNL     1      -9.250   3.420  11.010  1.00  0.00    -0.385 N 
ATOM     47  H82 UNL     1      -9.394   3.363  10.002  1.00  0.00     0.157 HD
ATOM     48  H81 UNL     1      -8.924   2.563  11.459  1.00  0.00     0.157 HD
ENDBRANCH  13  46
BRANCH  10  49
HETATM   49  N6  UNL     1      -7.748   6.615  13.926  1.00  0.00    -0.234 N 
ATOM     50  H62 UNL     1      -7.819   6.519  14.939  1.00  0.00     0.174 HD
ATOM     51  H61 UNL     1      -6.932   7.058  13.502  1.00  0.00     0.174 HD
ENDBRANCH  10  49
TORSDOF 12
ENDMDL
MODEL 4
REMARK VINA RESULT: -8.478567521      1.263      2.125
REMARK  12 active torsions:
REMARK  status: ('A' for Active; 'I' for Inactive)
REMARK    1  A    between atoms: C2_2  and  C3_3 
REMARK    2  A    between atoms: C3_3  and  C4_4 
REMARK    3  A    between atoms: C4_4  and  N1_5 
REMARK       I    between atoms: N1_5  and  C5_7 
REMARK       I    between atoms: C5_7  and  N3_11 
REMARK    4  A    between atoms: N3_11  and  C6_13 
REMARK    5  A    between atoms: C6_13  and  C7_14 
REMARK    6  A    between atoms: C7_14  and  C8_15 
REMARK    7  A    between atoms: N4_17  and  C10_18 
REMARK    8  A    between atoms: C10_18  and  C11_19 
REMARK    9  A    between atoms: C21_31  and  N6_32 
REMARK   10  A    between atoms: C22_37  and  N8_38 
REMARK   11  A    between atoms: C23_41  and  C24_42 
REMARK   12  A    between atoms: C24_42  and  O1_43 
ROOT
HETATM    1  C8  UNL     1     -15.763   4.688  12.257  1.00  0.00     0.117 C 
HETATM    2  C9  UNL     1     -15.287   5.572  11.087  1.00  0.00     0.090 C 
HETATM    3  N4  UNL     1     -14.121   5.127  10.444  1.00  0.00    -0.345 N 
HETATM    4  C17 UNL     1     -13.056   4.712  11.243  1.00  0.00     0.198 C 
HETATM    5  C18 UNL     1     -11.700   4.639  10.636  1.00  0.00     0.092 C 
HETATM    6  C19 UNL     1     -10.634   5.109  11.548  1.00  0.00     0.015 A 
HETATM    7  C20 UNL     1     -10.797   6.280  12.307  1.00  0.00     0.061 A 
HETATM    8  N5  UNL     1      -9.872   6.762  13.095  1.00  0.00    -0.193 N 
ATOM      9  H5  UNL     1     -10.034   7.617  13.628  1.00  0.00     0.184 HD
HETATM   10  C21 UNL     1      -8.703   6.107  13.186  1.00  0.00     0.677 A 
HETATM   11  N7  UNL     1      -8.493   4.987  12.485  1.00  0.00    -0.177 N 
ATOM     12  H7  UNL     1      -7.590   4.522  12.583  1.00  0.00     0.185 HD
HETATM   13  C22 UNL     1      -9.412   4.430  11.646  1.00  0.00     0.123 A 
HETATM   14  C23 UNL     1     -12.159   6.847  12.128  1.00  0.00     0.164 C 
HETATM   15  N9  UNL     1     -12.958   5.660  12.362  1.00  0.00    -0.316 N 
HETATM   16  C25 UNL     1     -13.395   5.713  13.688  1.00  0.00     0.244 C 
HETATM   17  O2  UNL     1     -12.544   6.231  14.479  1.00  0.00    -0.271 OA
HETATM   18  C26 UNL     1     -14.654   5.275  14.325  1.00  0.00     0.166 C 
HETATM   19  C27 UNL     1     -14.842   5.823  15.712  1.00  0.00     0.042 C 
HETATM   20  N10 UNL     1     -15.776   5.460  13.478  1.00  0.00    -0.401 N 
ATOM     21  H10 UNL     1     -16.540   6.093  13.715  1.00  0.00     0.154 HD
ENDROOT
BRANCH   1  22
HETATM   22  C7  UNL     1     -17.220   4.313  11.970  1.00  0.00     0.050 C 
BRANCH  22  23
HETATM   23  C6  UNL     1     -17.500   2.858  12.052  1.00  0.00     0.140 C 
BRANCH  23  24
HETATM   24  N3  UNL     1     -18.883   2.636  11.600  1.00  0.00    -0.227 N 
HETATM   25  C5  UNL     1     -19.169   2.299  10.245  1.00  0.00     0.667 C 
HETATM   26  N1  UNL     1     -19.496   3.400   9.393  1.00  0.00    -0.227 N 
HETATM   27  N2  UNL     1     -19.145   1.098   9.777  1.00  0.00    -0.235 N 
ATOM     28  H1  UNL     1     -18.940   3.563   8.553  1.00  0.00     0.177 HD
ATOM     29  H22 UNL     1     -19.349   0.857   8.808  1.00  0.00     0.174 HD
ATOM     30  H21 UNL     1     -18.911   0.313  10.385  1.00  0.00     0.174 HD
ATOM     31  H3  UNL     1     -19.649   2.725  12.267  1.00  0.00     0.177 HD
BRANCH  26  32
HETATM   32  C4  UNL     1     -20.587   4.283   9.689  1.00  0.00     0.138 C 
BRANCH  32  33
HETATM   33  C3  UNL     1     -21.917   3.732   9.241  1.00  0.00     0.020 C 
BRANCH  33  34
HETATM   34  C2  UNL     1     -22.707   3.272  10.445  1.00  0.00    -0.003 C 
HETATM   35  C1  UNL     1     -22.812   1.763  10.451  1.00  0.00     0.005 C 
ENDBRANCH  33  34
ENDBRANCH  32  33
ENDBRANCH  26  32
ENDBRANCH  23  24
ENDBRANCH  22  23
ENDBRANCH   1  22
BRANCH   3  36
HETATM   36  C10 UNL     1     -14.113   4.889   9.074  1.00  0.00     0.103 C 
BRANCH  36  37
HETATM   37  C11 UNL     1     -14.507   3.501   8.643  1.00  0.00    -0.021 A 
HETATM   38  C12 UNL     1     -15.811   3.088   8.656  1.00  0.00     0.013 A 
HETATM   39  C13 UNL     1     -16.121   1.817   8.260  1.00  0.00     0.001 A 
HETATM   40  C14 UNL     1     -15.152   0.933   7.845  1.00  0.00     0.000 A 
HETATM   41  C15 UNL     1     -13.828   1.324   7.821  1.00  0.00     0.001 A 
HETATM   42  C16 UNL     1     -13.552   2.604   8.224  1.00  0.00     0.013 A 
ENDBRANCH  36  37
ENDBRANCH   3  36
BRANCH  14  43
HETATM   43  C24 UNL     1     -12.512   8.130  12.652  1.00  0.00     0.196 C 
BRANCH  43  44
HETATM   44  O1  UNL     1     -11.355   8.704  13.281  1.00  0.00    -0.398 OA
ATOM     45  H1  UNL     1     -11.166   9.539  12.867  1.00  0.00     0.209 HD
ENDBRANCH  43  44
ENDBRANCH  14  43
BRANCH  13  46
HETATM   46  N8  UNL     1      -9.165   3.376  11.000  1.00  0.00    -0.385 N 
ATOM     47  H82 UNL     1      -9.911   2.802  10.607  1.00  0.00     0.157 HD
ATOM     48  H81 UNL     1      -8.216   3.037  10.842  1.00  0.00     0.157 HD
ENDBRANCH  13  46
BRANCH  10  49
HETATM   49  N6  UNL     1      -7.757   6.566  13.968  1.00  0.00    -0.234 N 
ATOM     50  H62 UNL     1      -7.489   7.548  13.908  1.00  0.00     0.174 HD
ATOM     51  H61 UNL     1      -7.297   5.940  14.630  1.00  0.00     0.174 HD
ENDBRANCH  10  49
TORSDOF 12
ENDMDL
MODEL 5
REMARK VINA RESULT: -8.405102862      1.322      2.098
REMARK  12 active torsions:
REMARK  status: ('A' for Active; 'I' for Inactive)
REMARK    1  A    between atoms: C2_2  and  C3_3 
REMARK    2  A    between atoms: C3_3  and  C4_4 
REMARK    3  A    between atoms: C4_4  and  N1_5 
REMARK       I    between atoms: N1_5  and  C5_7 
REMARK       I    between atoms: C5_7  and  N3_11 
REMARK    4  A    between atoms: N3_11  and  C6_13 
REMARK    5  A    between atoms: C6_13  and  C7_14 
REMARK    6  A    between atoms: C7_14  and  C8_15 
REMARK    7  A    between atoms: N4_17  and  C10_18 
REMARK    8  A    between atoms: C10_18  and  C11_19 
REMARK    9  A    between atoms: C21_31  and  N6_32 
REMARK   10  A    between atoms: C22_37  and  N8_38 
REMARK   11  A    between atoms: C23_41  and  C24_42 
REMARK   12  A    between atoms: C24_42  and  O1_43 
ROOT
HETATM    1  C8  UNL     1     -15.735   4.816  12.381  1.00  0.00     0.117 C 
HETATM    2  C9  UNL     1     -15.266   5.682  11.195  1.00  0.00     0.090 C 
HETATM    3  N4  UNL     1     -14.120   5.211  10.533  1.00  0.00    -0.345 N 
HETATM    4  C17 UNL     1     -13.048   4.783  11.315  1.00  0.00     0.198 C 
HETATM    5  C18 UNL     1     -11.705   4.682  10.681  1.00  0.00     0.092 C 
HETATM    6  C19 UNL     1     -10.613   5.140  11.568  1.00  0.00     0.015 A 
HETATM    7  C20 UNL     1     -10.741   6.319  12.321  1.00  0.00     0.061 A 
HETATM    8  N5  UNL     1      -9.792   6.792  13.087  1.00  0.00    -0.193 N 
ATOM      9  H5  UNL     1      -9.929   7.653  13.616  1.00  0.00     0.184 HD
HETATM   10  C21 UNL     1      -8.634   6.116  13.161  1.00  0.00     0.677 A 
HETATM   11  N7  UNL     1      -8.457   4.987  12.464  1.00  0.00    -0.177 N 
ATOM     12  H7  UNL     1      -7.561   4.507  12.549  1.00  0.00     0.185 HD
HETATM   13  C22 UNL     1      -9.402   4.440  11.649  1.00  0.00     0.123 A 
HETATM   14  C23 UNL     1     -12.096   6.909  12.164  1.00  0.00     0.164 C 
HETATM   15  N9  UNL     1     -12.911   5.739  12.424  1.00  0.00    -0.316 N 
HETATM   16  C25 UNL     1     -13.321   5.810  13.757  1.00  0.00     0.244 C 
HETATM   17  O2  UNL     1     -12.445   6.318  14.527  1.00  0.00    -0.271 OA
HETATM   18  C26 UNL     1     -14.574   5.399  14.422  1.00  0.00     0.166 C 
HETATM   19  C27 UNL     1     -14.725   5.961  15.808  1.00  0.00     0.042 C 
HETATM   20  N10 UNL     1     -15.710   5.597  13.596  1.00  0.00    -0.401 N 
ATOM     21  H10 UNL     1     -16.457   6.246  13.842  1.00  0.00     0.154 HD
ENDROOT
BRANCH   1  22
HETATM   22  C7  UNL     1     -17.203   4.464  12.126  1.00  0.00     0.050 C 
BRANCH  22  23
HETATM   23  C6  UNL     1     -18.060   4.524  13.335  1.00  0.00     0.140 C 
BRANCH  23  24
HETATM   24  N3  UNL     1     -19.235   3.666  13.101  1.00  0.00    -0.227 N 
HETATM   25  C5  UNL     1     -19.092   2.355  12.561  1.00  0.00     0.667 C 
HETATM   26  N1  UNL     1     -19.243   2.256  11.142  1.00  0.00    -0.227 N 
HETATM   27  N2  UNL     1     -18.845   1.305  13.265  1.00  0.00    -0.235 N 
ATOM     28  H1  UNL     1     -18.482   1.863  10.587  1.00  0.00     0.177 HD
ATOM     29  H22 UNL     1     -18.743   0.367  12.878  1.00  0.00     0.174 HD
ATOM     30  H21 UNL     1     -18.737   1.377  14.277  1.00  0.00     0.174 HD
ATOM     31  H3  UNL     1     -20.165   4.017  13.330  1.00  0.00     0.177 HD
BRANCH  26  32
HETATM   32  C4  UNL     1     -20.436   2.695  10.479  1.00  0.00     0.138 C 
BRANCH  32  33
HETATM   33  C3  UNL     1     -21.682   2.065  11.047  1.00  0.00     0.020 C 
BRANCH  33  34
HETATM   34  C2  UNL     1     -22.710   1.897   9.952  1.00  0.00    -0.003 C 
HETATM   35  C1  UNL     1     -24.055   1.551  10.552  1.00  0.00     0.005 C 
ENDBRANCH  33  34
ENDBRANCH  32  33
ENDBRANCH  26  32
ENDBRANCH  23  24
ENDBRANCH  22  23
ENDBRANCH   1  22
BRANCH   3  36
HETATM   36  C10 UNL     1     -14.143   4.962   9.165  1.00  0.00     0.103 C 
BRANCH  36  37
HETATM   37  C11 UNL     1     -14.673   3.615   8.748  1.00  0.00    -0.021 A 
HETATM   38  C12 UNL     1     -13.844   2.628   8.289  1.00  0.00     0.013 A 
HETATM   39  C13 UNL     1     -14.370   1.423   7.918  1.00  0.00     0.001 A 
HETATM   40  C14 UNL     1     -15.721   1.169   7.993  1.00  0.00     0.000 A 
HETATM   41  C15 UNL     1     -16.580   2.148   8.454  1.00  0.00     0.001 A 
HETATM   42  C16 UNL     1     -16.020   3.344   8.817  1.00  0.00     0.013 A 
ENDBRANCH  36  37
ENDBRANCH   3  36
BRANCH  14  43
HETATM   43  C24 UNL     1     -12.416   8.202  12.683  1.00  0.00     0.196 C 
BRANCH  43  44
HETATM   44  O1  UNL     1     -11.233   8.769  13.269  1.00  0.00    -0.398 OA
ATOM     45  H1  UNL     1     -11.096   9.635  12.903  1.00  0.00     0.209 HD
ENDBRANCH  43  44
ENDBRANCH  14  43
BRANCH  13  46
HETATM   46  N8  UNL     1      -9.187   3.376  11.007  1.00  0.00    -0.385 N 
ATOM     47  H82 UNL     1      -9.941   2.734  10.766  1.00  0.00     0.157 HD
ATOM     48  H81 UNL     1      -8.254   3.098  10.700  1.00  0.00     0.157 HD
ENDBRANCH  13  46
BRANCH  10  49
HETATM   49  N6  UNL     1      -7.664   6.564  13.920  1.00  0.00    -0.234 N 
ATOM     50  H62 UNL     1      -7.879   6.915  14.853  1.00  0.00     0.174 HD
ATOM     51  H61 UNL     1      -6.704   6.559  13.574  1.00  0.00     0.174 HD
ENDBRANCH  10  49
TORSDOF 12
ENDMDL
