MODEL 1
REMARK VINA RESULT: -8.109239152      0.000      0.000
REMARK  10 active torsions:
REMARK  status: ('A' for Active; 'I' for Inactive)
REMARK    1  A    between atoms: C2_2  and  N1_4 
REMARK    2  A    between atoms: C18_22  and  N3_23 
REMARK    3  A    between atoms: N3_23  and  C19_25 
REMARK    4  A    between atoms: C19_25  and  O2_26 
REMARK    5  A    between atoms: C19_25  and  C20_28 
REMARK    6  A    between atoms: C20_28  and  C21_29 
REMARK    7  A    between atoms: C20_28  and  N7_39 
REMARK    8  A    between atoms: C21_29  and  C22_30 
REMARK    9  A    between atoms: C22_30  and  C23_31 
REMARK   10  A    between atoms: C23_31  and  N4_32 
REMARK       I    between atoms: N4_32  and  C24_34 
REMARK       I    between atoms: N7_39  and  C25_41 
ROOT
HETATM    1  N1  UNL     1     -15.693   7.985  15.381  1.00  0.00    -0.346 N 
HETATM    2  C4  UNL     1     -16.625   6.944  15.113  1.00  0.00     0.126 C 
HETATM    3  C5  UNL     1     -16.276   5.581  15.619  1.00  0.00     0.023 C 
HETATM    4  C6  UNL     1     -17.305   4.621  14.998  1.00  0.00     0.028 C 
HETATM    5  C7  UNL     1     -16.632   3.492  14.304  1.00  0.00    -0.030 C 
HETATM    6  C8  UNL     1     -16.914   3.071  13.080  1.00  0.00    -0.022 C 
HETATM    7  C9  UNL     1     -17.953   3.656  12.193  1.00  0.00     0.129 C 
HETATM    8  C10 UNL     1     -18.093   2.804  10.983  1.00  0.00     0.221 C 
HETATM    9  O1  UNL     1     -18.343   1.583  11.170  1.00  0.00    -0.273 OA
HETATM   10  N2  UNL     1     -17.955   3.333   9.675  1.00  0.00    -0.361 N 
ATOM     11  H2  UNL     1     -17.635   2.712   8.932  1.00  0.00     0.162 HD
HETATM   12  C11 UNL     1     -18.245   4.709   9.345  1.00  0.00     0.122 C 
HETATM   13  C12 UNL     1     -17.046   5.581   9.186  1.00  0.00     0.020 C 
HETATM   14  C13 UNL     1     -15.822   4.922   8.652  1.00  0.00     0.002 C 
HETATM   15  C14 UNL     1     -14.641   4.972   9.607  1.00  0.00     0.000 C 
HETATM   16  C15 UNL     1     -14.431   6.359  10.154  1.00  0.00     0.000 C 
HETATM   17  C16 UNL     1     -14.542   6.288  11.651  1.00  0.00     0.002 C 
HETATM   18  C17 UNL     1     -14.743   7.658  12.269  1.00  0.00     0.034 C 
HETATM   19  C18 UNL     1     -13.903   7.683  13.536  1.00  0.00     0.171 C 
HETATM   20  C26 UNL     1     -14.570   8.380  14.653  1.00  0.00     0.242 C 
HETATM   21  O3  UNL     1     -14.028   9.497  14.979  1.00  0.00    -0.271 OA
ENDROOT
BRANCH  19  22
HETATM   22  N3  UNL     1     -12.681   8.338  13.152  1.00  0.00    -0.383 N 
ATOM     23  H3  UNL     1     -12.631   9.353  13.065  1.00  0.00     0.156 HD
BRANCH  22  24
HETATM   24  C19 UNL     1     -11.549   7.526  12.900  1.00  0.00     0.237 C 
BRANCH  24  25
HETATM   25  O2  UNL     1     -10.387   7.834  13.539  1.00  0.00    -0.375 OA
ATOM     26  H2  UNL     1     -10.303   7.589  14.453  1.00  0.00     0.212 HD
ENDBRANCH  24  25
BRANCH  24  27
HETATM   27  C20 UNL     1     -11.338   7.605  11.336  1.00  0.00     0.132 C 
BRANCH  27  28
HETATM   28  C21 UNL     1     -10.243   6.631  11.017  1.00  0.00     0.031 C 
BRANCH  28  29
HETATM   29  C22 UNL     1     -10.579   5.221  11.312  1.00  0.00     0.022 C 
BRANCH  29  30
HETATM   30  C23 UNL     1      -9.424   4.485  11.988  1.00  0.00     0.122 C 
BRANCH  30  31
HETATM   31  N4  UNL     1      -9.027   5.092  13.222  1.00  0.00    -0.365 N 
HETATM   32  C24 UNL     1      -7.692   5.507  13.443  1.00  0.00     0.181 C 
HETATM   33  N5  UNL     1      -7.312   6.736  13.251  1.00  0.00    -0.374 N 
HETATM   34  N6  UNL     1      -6.770   4.523  13.894  1.00  0.00    -0.064 NA
ATOM     35  H52 UNL     1      -7.974   7.442  12.928  1.00  0.00     0.158 HD
ATOM     36  H51 UNL     1      -6.349   7.034  13.410  1.00  0.00     0.158 HD
ATOM     37  H4  UNL     1      -9.721   5.229  13.958  1.00  0.00     0.162 HD
ENDBRANCH  30  31
ENDBRANCH  29  30
ENDBRANCH  28  29
ENDBRANCH  27  28
BRANCH  27  38
HETATM   38  N7  UNL     1     -10.924   8.939  11.043  1.00  0.00    -0.356 N 
HETATM   39  C25 UNL     1     -11.531   9.965  10.324  1.00  0.00     0.182 C 
HETATM   40  N8  UNL     1     -10.852  10.555   9.390  1.00  0.00    -0.374 N 
HETATM   41  N9  UNL     1     -12.851  10.378  10.630  1.00  0.00    -0.064 NA
ATOM     42  H82 UNL     1      -9.901  10.258   9.169  1.00  0.00     0.158 HD
ATOM     43  H81 UNL     1     -11.297  11.307   8.862  1.00  0.00     0.158 HD
ATOM     44  H7  UNL     1     -10.015   9.187  11.434  1.00  0.00     0.162 HD
ENDBRANCH  27  38
ENDBRANCH  24  27
ENDBRANCH  22  24
ENDBRANCH  19  22
BRANCH   1  45
HETATM   45  C2  UNL     1     -15.966   8.763  16.621  1.00  0.00     0.079 C 
HETATM   46  C1  UNL     1     -15.210   8.029  17.736  1.00  0.00     0.032 C 
HETATM   47  C3  UNL     1     -17.444   8.619  16.898  1.00  0.00     0.032 C 
ENDBRANCH   1  45
TORSDOF 10
ENDMDL
MODEL 2
REMARK VINA RESULT: -8.058434782      3.034      6.283
REMARK  10 active torsions:
REMARK  status: ('A' for Active; 'I' for Inactive)
REMARK    1  A    between atoms: C2_2  and  N1_4 
REMARK    2  A    between atoms: C18_22  and  N3_23 
REMARK    3  A    between atoms: N3_23  and  C19_25 
REMARK    4  A    between atoms: C19_25  and  O2_26 
REMARK    5  A    between atoms: C19_25  and  C20_28 
REMARK    6  A    between atoms: C20_28  and  C21_29 
REMARK    7  A    between atoms: C20_28  and  N7_39 
REMARK    8  A    between atoms: C21_29  and  C22_30 
REMARK    9  A    between atoms: C22_30  and  C23_31 
REMARK   10  A    between atoms: C23_31  and  N4_32 
REMARK       I    between atoms: N4_32  and  C24_34 
REMARK       I    between atoms: N7_39  and  C25_41 
ROOT
HETATM    1  N1  UNL     1     -13.817   9.763  10.563  1.00  0.00    -0.346 N 
HETATM    2  C4  UNL     1     -14.455  10.521  11.585  1.00  0.00     0.126 C 
HETATM    3  C5  UNL     1     -13.575  11.380  12.435  1.00  0.00     0.023 C 
HETATM    4  C6  UNL     1     -14.462  11.888  13.585  1.00  0.00     0.028 C 
HETATM    5  C7  UNL     1     -13.840  11.602  14.905  1.00  0.00    -0.030 C 
HETATM    6  C8  UNL     1     -14.460  11.049  15.937  1.00  0.00    -0.022 C 
HETATM    7  C9  UNL     1     -15.883  10.620  15.950  1.00  0.00     0.129 C 
HETATM    8  C10 UNL     1     -16.254  10.217  17.331  1.00  0.00     0.221 C 
HETATM    9  O1  UNL     1     -16.065  11.064  18.245  1.00  0.00    -0.273 OA
HETATM   10  N2  UNL     1     -16.799   8.939  17.617  1.00  0.00    -0.361 N 
ATOM     11  H2  UNL     1     -16.645   8.542  18.543  1.00  0.00     0.162 HD
HETATM   12  C11 UNL     1     -17.561   8.173  16.657  1.00  0.00     0.122 C 
HETATM   13  C12 UNL     1     -16.813   7.056  16.013  1.00  0.00     0.020 C 
HETATM   14  C13 UNL     1     -15.773   6.393  16.849  1.00  0.00     0.002 C 
HETATM   15  C14 UNL     1     -14.373   6.496  16.269  1.00  0.00     0.000 C 
HETATM   16  C15 UNL     1     -14.350   6.123  14.810  1.00  0.00     0.000 C 
HETATM   17  C16 UNL     1     -13.832   7.304  14.038  1.00  0.00     0.002 C 
HETATM   18  C17 UNL     1     -14.136   7.191  12.557  1.00  0.00     0.034 C 
HETATM   19  C18 UNL     1     -12.903   7.698  11.827  1.00  0.00     0.171 C 
HETATM   20  C26 UNL     1     -13.232   8.498  10.632  1.00  0.00     0.242 C 
HETATM   21  O3  UNL     1     -12.933   7.934   9.518  1.00  0.00    -0.271 OA
ENDROOT
BRANCH  19  22
HETATM   22  N3  UNL     1     -12.164   6.510  11.486  1.00  0.00    -0.383 N 
ATOM     23  H3  UNL     1     -12.046   6.222  10.515  1.00  0.00     0.156 HD
BRANCH  22  24
HETATM   24  C19 UNL     1     -11.607   5.754  12.546  1.00  0.00     0.237 C 
BRANCH  24  25
HETATM   25  O2  UNL     1     -10.596   6.314  13.266  1.00  0.00    -0.375 OA
ATOM     26  H2  UNL     1     -10.363   5.910  14.094  1.00  0.00     0.212 HD
ENDBRANCH  24  25
BRANCH  24  27
HETATM   27  C20 UNL     1     -11.106   4.418  11.868  1.00  0.00     0.132 C 
BRANCH  27  28
HETATM   28  C21 UNL     1      -9.618   4.552  11.740  1.00  0.00     0.031 C 
BRANCH  28  29
HETATM   29  C22 UNL     1      -8.865   3.332  12.104  1.00  0.00     0.022 C 
BRANCH  29  30
HETATM   30  C23 UNL     1      -8.060   3.516  13.389  1.00  0.00     0.122 C 
BRANCH  30  31
HETATM   31  N4  UNL     1      -7.015   4.486  13.253  1.00  0.00    -0.365 N 
HETATM   32  C24 UNL     1      -6.969   5.638  14.073  1.00  0.00     0.181 C 
HETATM   33  N5  UNL     1      -6.242   5.688  15.151  1.00  0.00    -0.374 N 
HETATM   34  N6  UNL     1      -7.749   6.757  13.671  1.00  0.00    -0.064 NA
ATOM     35  H52 UNL     1      -5.682   4.885  15.439  1.00  0.00     0.158 HD
ATOM     36  H51 UNL     1      -6.209   6.518  15.742  1.00  0.00     0.158 HD
ATOM     37  H4  UNL     1      -6.290   4.344  12.550  1.00  0.00     0.162 HD
ENDBRANCH  30  31
ENDBRANCH  29  30
ENDBRANCH  28  29
ENDBRANCH  27  28
BRANCH  27  38
HETATM   38  N7  UNL     1     -11.717   4.357  10.579  1.00  0.00    -0.356 N 
HETATM   39  C25 UNL     1     -12.829   3.663  10.108  1.00  0.00     0.182 C 
HETATM   40  N8  UNL     1     -12.702   2.937   9.041  1.00  0.00    -0.374 N 
HETATM   41  N9  UNL     1     -14.080   3.776  10.762  1.00  0.00    -0.064 NA
ATOM     42  H82 UNL     1     -11.800   2.856   8.570  1.00  0.00     0.158 HD
ATOM     43  H81 UNL     1     -13.516   2.429   8.696  1.00  0.00     0.158 HD
ATOM     44  H7  UNL     1     -11.254   4.928   9.872  1.00  0.00     0.162 HD
ENDBRANCH  27  38
ENDBRANCH  24  27
ENDBRANCH  22  24
ENDBRANCH  19  22
BRANCH   1  45
HETATM   45  C2  UNL     1     -13.775  10.424   9.231  1.00  0.00     0.079 C 
HETATM   46  C1  UNL     1     -12.518  11.304   9.252  1.00  0.00     0.032 C 
HETATM   47  C3  UNL     1     -14.974  11.340   9.170  1.00  0.00     0.032 C 
ENDBRANCH   1  45
TORSDOF 10
ENDMDL
MODEL 3
REMARK VINA RESULT: -7.788411121      2.493      3.685
REMARK  10 active torsions:
REMARK  status: ('A' for Active; 'I' for Inactive)
REMARK    1  A    between atoms: C2_2  and  N1_4 
REMARK    2  A    between atoms: C18_22  and  N3_23 
REMARK    3  A    between atoms: N3_23  and  C19_25 
REMARK    4  A    between atoms: C19_25  and  O2_26 
REMARK    5  A    between atoms: C19_25  and  C20_28 
REMARK    6  A    between atoms: C20_28  and  C21_29 
REMARK    7  A    between atoms: C20_28  and  N7_39 
REMARK    8  A    between atoms: C21_29  and  C22_30 
REMARK    9  A    between atoms: C22_30  and  C23_31 
REMARK   10  A    between atoms: C23_31  and  N4_32 
REMARK       I    between atoms: N4_32  and  C24_34 
REMARK       I    between atoms: N7_39  and  C25_41 
ROOT
HETATM    1  N1  UNL     1     -14.920  11.059  14.065  1.00  0.00    -0.346 N 
HETATM    2  C4  UNL     1     -15.952  10.450  14.832  1.00  0.00     0.126 C 
HETATM    3  C5  UNL     1     -15.682  10.250  16.288  1.00  0.00     0.023 C 
HETATM    4  C6  UNL     1     -16.832   9.375  16.817  1.00  0.00     0.028 C 
HETATM    5  C7  UNL     1     -16.309   8.181  17.532  1.00  0.00    -0.030 C 
HETATM    6  C8  UNL     1     -16.716   6.935  17.338  1.00  0.00    -0.022 C 
HETATM    7  C9  UNL     1     -17.765   6.520  16.371  1.00  0.00     0.129 C 
HETATM    8  C10 UNL     1     -18.066   5.078  16.572  1.00  0.00     0.221 C 
HETATM    9  O1  UNL     1     -18.403   4.721  17.733  1.00  0.00    -0.273 OA
HETATM   10  N2  UNL     1     -17.982   4.141  15.512  1.00  0.00    -0.361 N 
ATOM     11  H2  UNL     1     -17.771   3.169  15.738  1.00  0.00     0.162 HD
HETATM   12  C11 UNL     1     -18.179   4.497  14.125  1.00  0.00     0.122 C 
HETATM   13  C12 UNL     1     -16.927   4.623  13.326  1.00  0.00     0.020 C 
HETATM   14  C13 UNL     1     -15.805   3.725  13.719  1.00  0.00     0.002 C 
HETATM   15  C14 UNL     1     -14.557   4.472  14.158  1.00  0.00     0.000 C 
HETATM   16  C15 UNL     1     -14.191   5.558  13.182  1.00  0.00     0.000 C 
HETATM   17  C16 UNL     1     -14.196   6.866  13.922  1.00  0.00     0.002 C 
HETATM   18  C17 UNL     1     -14.235   8.052  12.978  1.00  0.00     0.034 C 
HETATM   19  C18 UNL     1     -13.304   9.099  13.567  1.00  0.00     0.171 C 
HETATM   20  C26 UNL     1     -13.825  10.472  13.429  1.00  0.00     0.242 C 
HETATM   21  O3  UNL     1     -13.168  11.208  12.606  1.00  0.00    -0.271 OA
ENDROOT
BRANCH  19  22
HETATM   22  N3  UNL     1     -12.062   8.926  12.859  1.00  0.00    -0.383 N 
ATOM     23  H3  UNL     1     -11.619   9.704  12.372  1.00  0.00     0.156 HD
BRANCH  22  24
HETATM   24  C19 UNL     1     -11.477   7.636  12.862  1.00  0.00     0.237 C 
BRANCH  24  25
HETATM   25  O2  UNL     1     -10.332   7.458  13.576  1.00  0.00    -0.375 OA
ATOM     26  H2  UNL     1     -10.329   6.794  14.255  1.00  0.00     0.212 HD
ENDBRANCH  24  25
BRANCH  24  27
HETATM   27  C20 UNL     1     -11.216   7.309  11.339  1.00  0.00     0.132 C 
BRANCH  27  28
HETATM   28  C21 UNL     1     -10.046   6.371  11.312  1.00  0.00     0.031 C 
BRANCH  28  29
HETATM   29  C22 UNL     1     -10.416   4.939  11.299  1.00  0.00     0.022 C 
BRANCH  29  30
HETATM   30  C23 UNL     1      -9.667   4.143  12.366  1.00  0.00     0.122 C 
BRANCH  30  31
HETATM   31  N4  UNL     1      -8.251   4.346  12.315  1.00  0.00    -0.365 N 
HETATM   32  C24 UNL     1      -7.523   4.742  13.463  1.00  0.00     0.181 C 
HETATM   33  N5  UNL     1      -6.906   3.881  14.218  1.00  0.00    -0.374 N 
HETATM   34  N6  UNL     1      -7.483   6.132  13.763  1.00  0.00    -0.064 NA
ATOM     35  H52 UNL     1      -6.935   2.884  14.002  1.00  0.00     0.158 HD
ATOM     36  H51 UNL     1      -6.381   4.166  15.045  1.00  0.00     0.158 HD
ATOM     37  H4  UNL     1      -7.757   4.204  11.435  1.00  0.00     0.162 HD
ENDBRANCH  30  31
ENDBRANCH  29  30
ENDBRANCH  28  29
ENDBRANCH  27  28
BRANCH  27  38
HETATM   38  N7  UNL     1     -10.884   8.544  10.704  1.00  0.00    -0.356 N 
HETATM   39  C25 UNL     1     -11.470   9.232   9.645  1.00  0.00     0.182 C 
HETATM   40  N8  UNL     1     -10.719   9.610   8.657  1.00  0.00    -0.374 N 
HETATM   41  N9  UNL     1     -12.852   9.545   9.664  1.00  0.00    -0.064 NA
ATOM     42  H82 UNL     1      -9.723   9.385   8.644  1.00  0.00     0.158 HD
ATOM     43  H81 UNL     1     -11.148  10.114   7.881  1.00  0.00     0.158 HD
ATOM     44  H7  UNL     1     -10.066   9.008  11.099  1.00  0.00     0.162 HD
ENDBRANCH  27  38
ENDBRANCH  24  27
ENDBRANCH  22  24
ENDBRANCH  19  22
BRANCH   1  45
HETATM   45  C2  UNL     1     -15.033  12.536  13.927  1.00  0.00     0.079 C 
HETATM   46  C1  UNL     1     -14.310  13.116  15.151  1.00  0.00     0.032 C 
HETATM   47  C3  UNL     1     -16.501  12.866  14.063  1.00  0.00     0.032 C 
ENDBRANCH   1  45
TORSDOF 10
ENDMDL
MODEL 4
REMARK VINA RESULT: -7.740128676      1.947      4.048
REMARK  10 active torsions:
REMARK  status: ('A' for Active; 'I' for Inactive)
REMARK    1  A    between atoms: C2_2  and  N1_4 
REMARK    2  A    between atoms: C18_22  and  N3_23 
REMARK    3  A    between atoms: N3_23  and  C19_25 
REMARK    4  A    between atoms: C19_25  and  O2_26 
REMARK    5  A    between atoms: C19_25  and  C20_28 
REMARK    6  A    between atoms: C20_28  and  C21_29 
REMARK    7  A    between atoms: C20_28  and  N7_39 
REMARK    8  A    between atoms: C21_29  and  C22_30 
REMARK    9  A    between atoms: C22_30  and  C23_31 
REMARK   10  A    between atoms: C23_31  and  N4_32 
REMARK       I    between atoms: N4_32  and  C24_34 
REMARK       I    between atoms: N7_39  and  C25_41 
ROOT
HETATM    1  N1  UNL     1     -14.841   5.955  14.448  1.00  0.00    -0.346 N 
HETATM    2  C4  UNL     1     -16.141   5.603  13.990  1.00  0.00     0.126 C 
HETATM    3  C5  UNL     1     -16.697   4.303  14.474  1.00  0.00     0.023 C 
HETATM    4  C6  UNL     1     -17.977   4.058  13.656  1.00  0.00     0.028 C 
HETATM    5  C7  UNL     1     -17.954   2.716  13.017  1.00  0.00    -0.030 C 
HETATM    6  C8  UNL     1     -18.231   2.472  11.744  1.00  0.00    -0.022 C 
HETATM    7  C9  UNL     1     -18.613   3.498  10.740  1.00  0.00     0.129 C 
HETATM    8  C10 UNL     1     -19.018   2.818   9.482  1.00  0.00     0.221 C 
HETATM    9  O1  UNL     1     -19.934   1.956   9.567  1.00  0.00    -0.273 OA
HETATM   10  N2  UNL     1     -18.408   3.121   8.238  1.00  0.00    -0.361 N 
ATOM     11  H2  UNL     1     -18.381   2.395   7.522  1.00  0.00     0.162 HD
HETATM   12  C11 UNL     1     -17.824   4.408   7.937  1.00  0.00     0.122 C 
HETATM   13  C12 UNL     1     -16.336   4.450   8.006  1.00  0.00     0.020 C 
HETATM   14  C13 UNL     1     -15.625   3.196   7.632  1.00  0.00     0.002 C 
HETATM   15  C14 UNL     1     -14.782   2.618   8.757  1.00  0.00     0.000 C 
HETATM   16  C15 UNL     1     -13.919   3.673   9.398  1.00  0.00     0.000 C 
HETATM   17  C16 UNL     1     -14.279   3.742  10.855  1.00  0.00     0.002 C 
HETATM   18  C17 UNL     1     -13.772   5.015  11.504  1.00  0.00     0.034 C 
HETATM   19  C18 UNL     1     -13.268   4.621  12.883  1.00  0.00     0.171 C 
HETATM   20  C26 UNL     1     -13.594   5.620  13.919  1.00  0.00     0.242 C 
HETATM   21  O3  UNL     1     -12.577   6.256  14.380  1.00  0.00    -0.271 OA
ENDROOT
BRANCH  19  22
HETATM   22  N3  UNL     1     -11.847   4.462  12.723  1.00  0.00    -0.383 N 
ATOM     23  H3  UNL     1     -11.282   4.009  13.441  1.00  0.00     0.156 HD
BRANCH  22  24
HETATM   24  C19 UNL     1     -11.258   4.956  11.533  1.00  0.00     0.237 C 
BRANCH  24  25
HETATM   25  O2  UNL     1     -10.536   4.089  10.772  1.00  0.00    -0.375 OA
ATOM     26  H2  UNL     1     -10.331   4.344   9.880  1.00  0.00     0.212 HD
ENDBRANCH  24  25
BRANCH  24  27
HETATM   27  C20 UNL     1     -10.339   6.150  12.006  1.00  0.00     0.132 C 
BRANCH  27  28
HETATM   28  C21 UNL     1     -10.557   7.257  11.017  1.00  0.00     0.031 C 
BRANCH  28  29
HETATM   29  C22 UNL     1     -11.801   8.028  11.233  1.00  0.00     0.022 C 
BRANCH  29  30
HETATM   30  C23 UNL     1     -11.656   9.047  12.361  1.00  0.00     0.122 C 
BRANCH  30  31
HETATM   31  N4  UNL     1     -12.655   8.895  13.375  1.00  0.00    -0.365 N 
HETATM   32  C24 UNL     1     -13.551   9.945  13.688  1.00  0.00     0.181 C 
HETATM   33  N5  UNL     1     -14.744  10.008  13.174  1.00  0.00    -0.374 N 
HETATM   34  N6  UNL     1     -13.100  10.938  14.601  1.00  0.00    -0.064 NA
ATOM     35  H52 UNL     1     -15.068   9.296  12.519  1.00  0.00     0.158 HD
ATOM     36  H51 UNL     1     -15.390  10.765  13.400  1.00  0.00     0.158 HD
ATOM     37  H4  UNL     1     -12.722   8.013  13.883  1.00  0.00     0.162 HD
ENDBRANCH  30  31
ENDBRANCH  29  30
ENDBRANCH  28  29
ENDBRANCH  27  28
BRANCH  27  38
HETATM   38  N7  UNL     1      -8.992   5.682  11.944  1.00  0.00    -0.356 N 
HETATM   39  C25 UNL     1      -8.248   4.874  12.801  1.00  0.00     0.182 C 
HETATM   40  N8  UNL     1      -7.087   5.294  13.199  1.00  0.00    -0.374 N 
HETATM   41  N9  UNL     1      -8.735   3.605  13.201  1.00  0.00    -0.064 NA
ATOM     42  H82 UNL     1      -6.737   6.208  12.911  1.00  0.00     0.158 HD
ATOM     43  H81 UNL     1      -6.542   4.703  13.827  1.00  0.00     0.158 HD
ATOM     44  H7  UNL     1      -8.479   5.996  11.121  1.00  0.00     0.162 HD
ENDBRANCH  27  38
ENDBRANCH  24  27
ENDBRANCH  22  24
ENDBRANCH  19  22
BRANCH   1  45
HETATM   45  C2  UNL     1     -14.818   6.805  15.669  1.00  0.00     0.079 C 
HETATM   46  C1  UNL     1     -15.020   5.838  16.843  1.00  0.00     0.032 C 
HETATM   47  C3  UNL     1     -16.038   7.694  15.593  1.00  0.00     0.032 C 
ENDBRANCH   1  45
TORSDOF 10
ENDMDL
MODEL 5
REMARK VINA RESULT: -7.714675939      0.912      1.094
REMARK  10 active torsions:
REMARK  status: ('A' for Active; 'I' for Inactive)
REMARK    1  A    between atoms: C2_2  and  N1_4 
REMARK    2  A    between atoms: C18_22  and  N3_23 
REMARK    3  A    between atoms: N3_23  and  C19_25 
REMARK    4  A    between atoms: C19_25  and  O2_26 
REMARK    5  A    between atoms: C19_25  and  C20_28 
REMARK    6  A    between atoms: C20_28  and  C21_29 
REMARK    7  A    between atoms: C20_28  and  N7_39 
REMARK    8  A    between atoms: C21_29  and  C22_30 
REMARK    9  A    between atoms: C22_30  and  C23_31 
REMARK   10  A    between atoms: C23_31  and  N4_32 
REMARK       I    between atoms: N4_32  and  C24_34 
REMARK       I    between atoms: N7_39  and  C25_41 
ROOT
HETATM    1  N1  UNL     1     -15.488   8.526  15.712  1.00  0.00    -0.346 N 
HETATM    2  C4  UNL     1     -16.512   7.539  15.659  1.00  0.00     0.126 C 
HETATM    3  C5  UNL     1     -16.153   6.168  16.134  1.00  0.00     0.023 C 
HETATM    4  C6  UNL     1     -17.336   5.263  15.751  1.00  0.00     0.028 C 
HETATM    5  C7  UNL     1     -16.874   4.079  14.979  1.00  0.00    -0.030 C 
HETATM    6  C8  UNL     1     -17.409   3.651  13.845  1.00  0.00    -0.022 C 
HETATM    7  C9  UNL     1     -18.563   4.282  13.152  1.00  0.00     0.129 C 
HETATM    8  C10 UNL     1     -18.980   3.414  12.019  1.00  0.00     0.221 C 
HETATM    9  O1  UNL     1     -19.260   2.216  12.289  1.00  0.00    -0.273 OA
HETATM   10  N2  UNL     1     -19.064   3.906  10.692  1.00  0.00    -0.361 N 
ATOM     11  H2  UNL     1     -18.928   3.251   9.922  1.00  0.00     0.162 HD
HETATM   12  C11 UNL     1     -19.331   5.291  10.378  1.00  0.00     0.122 C 
HETATM   13  C12 UNL     1     -18.137   6.081   9.966  1.00  0.00     0.020 C 
HETATM   14  C13 UNL     1     -17.077   5.335   9.232  1.00  0.00     0.002 C 
HETATM   15  C14 UNL     1     -15.735   5.331   9.944  1.00  0.00     0.000 C 
HETATM   16  C15 UNL     1     -15.344   6.713  10.396  1.00  0.00     0.000 C 
HETATM   17  C16 UNL     1     -15.171   6.681  11.888  1.00  0.00     0.002 C 
HETATM   18  C17 UNL     1     -15.171   8.073  12.489  1.00  0.00     0.034 C 
HETATM   19  C18 UNL     1     -14.104   8.072  13.572  1.00  0.00     0.171 C 
HETATM   20  C26 UNL     1     -14.504   8.832  14.771  1.00  0.00     0.242 C 
HETATM   21  O3  UNL     1     -13.846   9.920  14.952  1.00  0.00    -0.271 OA
ENDROOT
BRANCH  19  22
HETATM   22  N3  UNL     1     -12.941   8.641  12.942  1.00  0.00    -0.383 N 
ATOM     23  H3  UNL     1     -12.928   9.614  12.639  1.00  0.00     0.156 HD
BRANCH  22  24
HETATM   24  C19 UNL     1     -11.815   7.802  12.759  1.00  0.00     0.237 C 
BRANCH  24  25
HETATM   25  O2  UNL     1     -10.625   8.210  13.277  1.00  0.00    -0.375 OA
ATOM     26  H2  UNL     1      -9.836   8.023  12.782  1.00  0.00     0.212 HD
ENDBRANCH  24  25
BRANCH  24  27
HETATM   27  C20 UNL     1     -11.689   7.636  11.192  1.00  0.00     0.132 C 
BRANCH  27  28
HETATM   28  C21 UNL     1     -10.952   6.349  10.971  1.00  0.00     0.031 C 
BRANCH  28  29
HETATM   29  C22 UNL     1     -11.473   5.208  11.755  1.00  0.00     0.022 C 
BRANCH  29  30
HETATM   30  C23 UNL     1     -10.358   4.277  12.227  1.00  0.00     0.122 C 
BRANCH  30  31
HETATM   31  N4  UNL     1      -9.052   4.805  11.971  1.00  0.00    -0.365 N 
HETATM   32  C24 UNL     1      -8.150   5.082  13.026  1.00  0.00     0.181 C 
HETATM   33  N5  UNL     1      -7.231   4.235  13.386  1.00  0.00    -0.374 N 
HETATM   34  N6  UNL     1      -8.279   6.337  13.682  1.00  0.00    -0.064 NA
ATOM     35  H52 UNL     1      -7.138   3.335  12.915  1.00  0.00     0.158 HD
ATOM     36  H51 UNL     1      -6.581   4.435  14.147  1.00  0.00     0.158 HD
ATOM     37  H4  UNL     1      -8.766   4.986  11.009  1.00  0.00     0.162 HD
ENDBRANCH  30  31
ENDBRANCH  29  30
ENDBRANCH  28  29
ENDBRANCH  27  28
BRANCH  27  38
HETATM   38  N7  UNL     1     -10.918   8.742  10.722  1.00  0.00    -0.356 N 
HETATM   39  C25 UNL     1     -11.286   9.938  10.112  1.00  0.00     0.182 C 
HETATM   40  N8  UNL     1     -10.702  10.275   9.003  1.00  0.00    -0.374 N 
HETATM   41  N9  UNL     1     -12.251  10.787  10.709  1.00  0.00    -0.064 NA
ATOM     42  H82 UNL     1     -10.007   9.664   8.574  1.00  0.00     0.158 HD
ATOM     43  H81 UNL     1     -10.971  11.151   8.556  1.00  0.00     0.158 HD
ATOM     44  H7  UNL     1      -9.914   8.637  10.859  1.00  0.00     0.162 HD
ENDBRANCH  27  38
ENDBRANCH  24  27
ENDBRANCH  22  24
ENDBRANCH  19  22
BRANCH   1  45
HETATM   45  C2  UNL     1     -15.473   9.344  16.954  1.00  0.00     0.079 C 
HETATM   46  C1  UNL     1     -14.683   8.518  17.978  1.00  0.00     0.032 C 
HETATM   47  C3  UNL     1     -16.905   9.419  17.433  1.00  0.00     0.032 C 
ENDBRANCH   1  45
TORSDOF 10
ENDMDL
