MODEL 1
REMARK VINA RESULT: -6.686460961      0.000      0.000
REMARK  11 active torsions:
REMARK  status: ('A' for Active; 'I' for Inactive)
REMARK    1  A    between atoms: N1_2  and  C2_5 
REMARK    2  A    between atoms: C2_5  and  C3_6 
REMARK    3  A    between atoms: C3_6  and  C4_7 
REMARK    4  A    between atoms: C4_7  and  C5_8 
REMARK    5  A    between atoms: C5_8  and  C6_9 
REMARK    6  A    between atoms: C6_9  and  O1_10 
REMARK    7  A    between atoms: C20_37  and  N7_38 
REMARK    8  A    between atoms: N7_38  and  C21_40 
REMARK    9  A    between atoms: C22_42  and  C23_43 
REMARK   10  A    between atoms: C23_43  and  O4_44 
REMARK   11  A    between atoms: C24_46  and  C25_47 
ROOT
HETATM    1  C3  UNL     1     -17.470   5.685  13.635  1.00  0.00     0.026 C 
HETATM    2  C7  UNL     1     -17.860   4.289  14.033  1.00  0.00    -0.015 C 
HETATM    3  C8  UNL     1     -16.992   3.161  14.019  1.00  0.00    -0.026 C 
HETATM    4  C9  UNL     1     -15.779   3.094  13.150  1.00  0.00     0.054 C 
HETATM    5  C10 UNL     1     -14.642   3.695  13.829  1.00  0.00    -0.018 C 
HETATM    6  C11 UNL     1     -14.223   5.034  14.047  1.00  0.00    -0.054 C 
HETATM    7  C12 UNL     1     -12.976   5.484  13.271  1.00  0.00     0.069 C 
HETATM    8  C13 UNL     1     -12.020   4.539  12.788  1.00  0.00     0.212 C 
HETATM    9  N2  UNL     1     -12.239   3.884  11.511  1.00  0.00    -0.205 N 
ATOM     10  H2  UNL     1     -11.854   2.939  11.487  1.00  0.00     0.179 HD
HETATM   11  C14 UNL     1     -12.875   4.255  10.261  1.00  0.00     0.669 C 
HETATM   12  N3  UNL     1     -12.906   3.281   9.419  1.00  0.00    -0.235 N 
ATOM     13  H31 UNL     1     -13.354   3.542   8.540  1.00  0.00     0.174 HD
ATOM     14  H32 UNL     1     -12.485   2.415   9.754  1.00  0.00     0.174 HD
HETATM   15  N4  UNL     1     -13.473   5.485   9.786  1.00  0.00    -0.226 N 
ATOM     16  H4  UNL     1     -14.258   5.314   9.157  1.00  0.00     0.177 HD
HETATM   17  C15 UNL     1     -13.227   6.911   9.986  1.00  0.00     0.145 C 
HETATM   18  C16 UNL     1     -12.615   7.006  11.400  1.00  0.00     0.032 C 
HETATM   19  C17 UNL     1     -11.763   8.151  11.676  1.00  0.00     0.131 C 
HETATM   20  N5  UNL     1     -10.713   7.724  12.637  1.00  0.00    -0.343 N 
ATOM     21  H5  UNL     1     -10.290   8.497  13.153  1.00  0.00     0.164 HD
HETATM   22  C18 UNL     1     -10.174   6.433  12.984  1.00  0.00     0.317 C 
HETATM   23  O2  UNL     1      -9.004   6.513  13.473  1.00  0.00    -0.247 OA
HETATM   24  N6  UNL     1     -10.631   5.067  12.915  1.00  0.00    -0.321 N 
ATOM     25  H6  UNL     1      -9.898   4.360  12.959  1.00  0.00     0.166 HD
HETATM   26  C19 UNL     1     -13.596   6.466  12.297  1.00  0.00     0.052 C 
HETATM   27  C20 UNL     1     -14.292   7.275  13.330  1.00  0.00     0.014 C 
HETATM   28  C22 UNL     1     -14.985   6.263  14.299  1.00  0.00     0.068 C 
HETATM   29  C24 UNL     1     -16.440   6.385  14.463  1.00  0.00    -0.044 C 
ENDROOT
BRANCH   1  30
HETATM   30  C2  UNL     1     -17.347   5.696  12.162  1.00  0.00     0.249 C 
BRANCH  30  31
HETATM   31  N1  UNL     1     -17.787   6.902  11.480  1.00  0.00    -0.078 N 
HETATM   32  C1  UNL     1     -16.940   7.085  10.254  1.00  0.00     0.267 C 
ATOM     33  H12 UNL     1     -17.782   7.722  12.088  1.00  0.00     0.276 HD
ATOM     34  H11 UNL     1     -18.786   6.893  11.271  1.00  0.00     0.276 HD
ENDBRANCH  30  31
ENDBRANCH   1  30
BRANCH   1  35
HETATM   35  C4  UNL     1     -18.852   6.345  13.748  1.00  0.00     0.022 C 
BRANCH  35  36
HETATM   36  C5  UNL     1     -20.015   5.520  14.028  1.00  0.00     0.027 C 
BRANCH  36  37
HETATM   37  C6  UNL     1     -20.805   6.033  15.257  1.00  0.00     0.164 C 
BRANCH  37  38
HETATM   38  O1  UNL     1     -20.374   5.415  16.402  1.00  0.00    -0.401 OA
ATOM     39  H1  UNL     1     -20.969   5.591  17.121  1.00  0.00     0.209 HD
ENDBRANCH  37  38
ENDBRANCH  36  37
ENDBRANCH  35  36
ENDBRANCH   1  35
BRANCH  29  40
HETATM   40  C25 UNL     1     -16.991   6.659  15.844  1.00  0.00    -0.083 C 
HETATM   41  C26 UNL     1     -16.862   5.809  17.010  1.00  0.00     0.043 C 
HETATM   42  C27 UNL     1     -17.358   8.071  16.246  1.00  0.00     0.043 C 
ENDBRANCH  29  40
BRANCH  28  43
HETATM   43  C23 UNL     1     -14.358   6.833  15.617  1.00  0.00     0.189 C 
BRANCH  43  44
HETATM   44  O4  UNL     1     -13.902   8.114  15.482  1.00  0.00    -0.399 OA
ATOM     45  H4  UNL     1     -12.976   8.159  15.272  1.00  0.00     0.209 HD
ENDBRANCH  43  44
ENDBRANCH  28  43
BRANCH  27  46
HETATM   46  N7  UNL     1     -14.979   8.425  13.031  1.00  0.00    -0.340 N 
ATOM     47  H7  UNL     1     -15.971   8.303  12.833  1.00  0.00     0.167 HD
BRANCH  46  48
HETATM   48  C21 UNL     1     -14.502   9.761  12.959  1.00  0.00     0.353 C 
HETATM   49  O3  UNL     1     -13.620  10.213  13.721  1.00  0.00    -0.283 OA
ENDBRANCH  46  48
ENDBRANCH  27  46
TORSDOF 11
ENDMDL
MODEL 2
REMARK VINA RESULT: -6.395581828      2.674      6.850
REMARK  11 active torsions:
REMARK  status: ('A' for Active; 'I' for Inactive)
REMARK    1  A    between atoms: N1_2  and  C2_5 
REMARK    2  A    between atoms: C2_5  and  C3_6 
REMARK    3  A    between atoms: C3_6  and  C4_7 
REMARK    4  A    between atoms: C4_7  and  C5_8 
REMARK    5  A    between atoms: C5_8  and  C6_9 
REMARK    6  A    between atoms: C6_9  and  O1_10 
REMARK    7  A    between atoms: C20_37  and  N7_38 
REMARK    8  A    between atoms: N7_38  and  C21_40 
REMARK    9  A    between atoms: C22_42  and  C23_43 
REMARK   10  A    between atoms: C23_43  and  O4_44 
REMARK   11  A    between atoms: C24_46  and  C25_47 
ROOT
HETATM    1  C3  UNL     1     -12.718   8.014  11.220  1.00  0.00     0.026 C 
HETATM    2  C7  UNL     1     -12.386   9.077  12.230  1.00  0.00    -0.015 C 
HETATM    3  C8  UNL     1     -13.068   9.277  13.463  1.00  0.00    -0.026 C 
HETATM    4  C9  UNL     1     -14.475   8.823  13.684  1.00  0.00     0.054 C 
HETATM    5  C10 UNL     1     -14.491   7.443  14.141  1.00  0.00    -0.018 C 
HETATM    6  C11 UNL     1     -14.353   6.190  13.487  1.00  0.00    -0.054 C 
HETATM    7  C12 UNL     1     -15.625   5.334  13.397  1.00  0.00     0.069 C 
HETATM    8  C13 UNL     1     -16.706   5.511  14.313  1.00  0.00     0.212 C 
HETATM    9  N2  UNL     1     -17.707   6.531  14.054  1.00  0.00    -0.205 N 
ATOM     10  H2  UNL     1     -18.091   6.926  14.913  1.00  0.00     0.179 HD
HETATM   11  C14 UNL     1     -18.290   7.122  12.864  1.00  0.00     0.669 C 
HETATM   12  N3  UNL     1     -19.097   8.086  13.140  1.00  0.00    -0.235 N 
ATOM     13  H31 UNL     1     -19.507   8.501  12.303  1.00  0.00     0.174 HD
ATOM     14  H32 UNL     1     -19.202   8.282  14.135  1.00  0.00     0.174 HD
HETATM   15  N4  UNL     1     -18.141   6.843  11.451  1.00  0.00    -0.226 N 
ATOM     16  H4  UNL     1     -18.221   7.685  10.882  1.00  0.00     0.177 HD
HETATM   17  C15 UNL     1     -17.904   5.650  10.641  1.00  0.00     0.145 C 
HETATM   18  C16 UNL     1     -17.105   4.706  11.563  1.00  0.00     0.032 C 
HETATM   19  C17 UNL     1     -17.198   3.281  11.291  1.00  0.00     0.131 C 
HETATM   20  N5  UNL     1     -17.094   2.555  12.584  1.00  0.00    -0.343 N 
ATOM     21  H5  UNL     1     -16.805   1.582  12.486  1.00  0.00     0.164 HD
HETATM   22  C18 UNL     1     -17.322   2.958  13.950  1.00  0.00     0.317 C 
HETATM   23  O2  UNL     1     -17.590   1.972  14.706  1.00  0.00    -0.247 OA
HETATM   24  N6  UNL     1     -17.323   4.203  14.676  1.00  0.00    -0.321 N 
ATOM     25  H6  UNL     1     -17.816   4.186  15.568  1.00  0.00     0.166 HD
HETATM   26  C19 UNL     1     -15.902   5.407  11.908  1.00  0.00     0.052 C 
HETATM   27  C20 UNL     1     -14.548   4.965  11.487  1.00  0.00     0.014 C 
HETATM   28  C22 UNL     1     -13.525   5.772  12.349  1.00  0.00     0.068 C 
HETATM   29  C24 UNL     1     -12.538   6.586  11.626  1.00  0.00    -0.044 C 
ENDROOT
BRANCH   1  30
HETATM   30  C2  UNL     1     -13.972   8.427  10.554  1.00  0.00     0.249 C 
BRANCH  30  31
HETATM   31  N1  UNL     1     -14.191   7.922   9.209  1.00  0.00    -0.078 N 
HETATM   32  C1  UNL     1     -15.653   8.054   8.890  1.00  0.00     0.267 C 
ATOM     33  H12 UNL     1     -13.846   6.969   9.085  1.00  0.00     0.276 HD
ATOM     34  H11 UNL     1     -13.595   8.375   8.516  1.00  0.00     0.276 HD
ENDBRANCH  30  31
ENDBRANCH   1  30
BRANCH   1  35
HETATM   35  C4  UNL     1     -11.733   8.434  10.120  1.00  0.00     0.022 C 
BRANCH  35  36
HETATM   36  C5  UNL     1     -11.263   9.808  10.071  1.00  0.00     0.027 C 
BRANCH  36  37
HETATM   37  C6  UNL     1     -11.620  10.493   8.728  1.00  0.00     0.164 C 
BRANCH  37  38
HETATM   38  O1  UNL     1     -10.882   9.960   7.703  1.00  0.00    -0.401 OA
ATOM     39  H1  UNL     1     -10.399  10.641   7.249  1.00  0.00     0.209 HD
ENDBRANCH  37  38
ENDBRANCH  36  37
ENDBRANCH  35  36
ENDBRANCH   1  35
BRANCH  29  40
HETATM   40  C25 UNL     1     -11.069   6.292  11.831  1.00  0.00    -0.083 C 
HETATM   41  C26 UNL     1     -10.252   6.712  12.952  1.00  0.00     0.043 C 
HETATM   42  C27 UNL     1     -10.415   5.147  11.089  1.00  0.00     0.043 C 
ENDBRANCH  29  40
BRANCH  28  43
HETATM   43  C23 UNL     1     -12.739   4.529  12.889  1.00  0.00     0.189 C 
BRANCH  43  44
HETATM   44  O4  UNL     1     -13.323   3.340  12.552  1.00  0.00    -0.399 OA
ATOM     45  H4  UNL     1     -12.728   2.747  12.107  1.00  0.00     0.209 HD
ENDBRANCH  43  44
ENDBRANCH  28  43
BRANCH  27  46
HETATM   46  N7  UNL     1     -14.219   4.738  10.174  1.00  0.00    -0.340 N 
ATOM     47  H7  UNL     1     -14.167   5.570   9.586  1.00  0.00     0.167 HD
BRANCH  46  48
HETATM   48  C21 UNL     1     -13.940   3.509   9.518  1.00  0.00     0.353 C 
HETATM   49  O3  UNL     1     -12.851   2.906   9.634  1.00  0.00    -0.283 OA
ENDBRANCH  46  48
ENDBRANCH  27  46
TORSDOF 11
ENDMDL
MODEL 3
REMARK VINA RESULT: -6.177255956      2.563      6.785
REMARK  11 active torsions:
REMARK  status: ('A' for Active; 'I' for Inactive)
REMARK    1  A    between atoms: N1_2  and  C2_5 
REMARK    2  A    between atoms: C2_5  and  C3_6 
REMARK    3  A    between atoms: C3_6  and  C4_7 
REMARK    4  A    between atoms: C4_7  and  C5_8 
REMARK    5  A    between atoms: C5_8  and  C6_9 
REMARK    6  A    between atoms: C6_9  and  O1_10 
REMARK    7  A    between atoms: C20_37  and  N7_38 
REMARK    8  A    between atoms: N7_38  and  C21_40 
REMARK    9  A    between atoms: C22_42  and  C23_43 
REMARK   10  A    between atoms: C23_43  and  O4_44 
REMARK   11  A    between atoms: C24_46  and  C25_47 
ROOT
HETATM    1  C3  UNL     1     -13.013   4.779  11.682  1.00  0.00     0.026 C 
HETATM    2  C7  UNL     1     -12.318   4.341  10.422  1.00  0.00    -0.015 C 
HETATM    3  C8  UNL     1     -12.971   3.966   9.215  1.00  0.00    -0.026 C 
HETATM    4  C9  UNL     1     -14.381   3.471   9.186  1.00  0.00     0.054 C 
HETATM    5  C10 UNL     1     -15.304   4.590   9.090  1.00  0.00    -0.018 C 
HETATM    6  C11 UNL     1     -15.814   5.526  10.028  1.00  0.00    -0.054 C 
HETATM    7  C12 UNL     1     -17.298   5.371  10.395  1.00  0.00     0.069 C 
HETATM    8  C13 UNL     1     -18.214   4.711   9.520  1.00  0.00     0.212 C 
HETATM    9  N2  UNL     1     -18.337   3.265   9.565  1.00  0.00    -0.205 N 
ATOM     10  H2  UNL     1     -18.570   2.865   8.656  1.00  0.00     0.179 HD
HETATM   11  C14 UNL     1     -18.208   2.254  10.599  1.00  0.00     0.669 C 
HETATM   12  N3  UNL     1     -18.318   1.060  10.131  1.00  0.00    -0.235 N 
ATOM     13  H31 UNL     1     -18.227   0.349  10.857  1.00  0.00     0.174 HD
ATOM     14  H32 UNL     1     -18.477   1.008   9.125  1.00  0.00     0.174 HD
HETATM   15  N4  UNL     1     -17.983   2.328  12.026  1.00  0.00    -0.226 N 
ATOM     16  H4  UNL     1     -17.433   1.541  12.371  1.00  0.00     0.177 HD
HETATM   17  C15 UNL     1     -18.350   3.253  13.096  1.00  0.00     0.145 C 
HETATM   18  C16 UNL     1     -18.469   4.625  12.400  1.00  0.00     0.032 C 
HETATM   19  C17 UNL     1     -19.337   5.610  13.024  1.00  0.00     0.131 C 
HETATM   20  N5  UNL     1     -19.939   6.442  11.950  1.00  0.00    -0.343 N 
ATOM     21  H5  UNL     1     -20.274   7.350  12.273  1.00  0.00     0.164 HD
HETATM   22  C18 UNL     1     -20.144   6.218  10.540  1.00  0.00     0.317 C 
HETATM   23  O2  UNL     1     -21.086   6.928  10.070  1.00  0.00    -0.247 OA
HETATM   24  N6  UNL     1     -19.544   5.386   9.527  1.00  0.00    -0.321 N 
ATOM     25  H6  UNL     1     -20.113   5.237   8.693  1.00  0.00     0.166 HD
HETATM   26  C19 UNL     1     -17.181   4.897  11.830  1.00  0.00     0.052 C 
HETATM   27  C20 UNL     1     -16.306   6.010  12.279  1.00  0.00     0.014 C 
HETATM   28  C22 UNL     1     -15.196   6.174  11.191  1.00  0.00     0.068 C 
HETATM   29  C24 UNL     1     -13.802   6.050  11.637  1.00  0.00    -0.044 C 
ENDROOT
BRANCH   1  30
HETATM   30  C2  UNL     1     -13.615   3.573  12.286  1.00  0.00     0.249 C 
BRANCH  30  31
HETATM   31  N1  UNL     1     -13.684   3.536  13.738  1.00  0.00    -0.078 N 
HETATM   32  C1  UNL     1     -14.815   2.631  14.132  1.00  0.00     0.267 C 
ATOM     33  H12 UNL     1     -13.761   4.466  14.151  1.00  0.00     0.276 HD
ATOM     34  H11 UNL     1     -12.797   3.268  14.167  1.00  0.00     0.276 HD
ENDBRANCH  30  31
ENDBRANCH   1  30
BRANCH   1  35
HETATM   35  C4  UNL     1     -11.780   4.893  12.590  1.00  0.00     0.022 C 
BRANCH  35  36
HETATM   36  C5  UNL     1     -10.465   4.602  12.046  1.00  0.00     0.027 C 
BRANCH  36  37
HETATM   37  C6  UNL     1      -9.457   5.743  12.329  1.00  0.00     0.164 C 
BRANCH  37  38
HETATM   38  O1  UNL     1      -9.863   6.491  13.404  1.00  0.00    -0.401 OA
ATOM     39  H1  UNL     1     -10.760   6.281  13.638  1.00  0.00     0.209 HD
ENDBRANCH  37  38
ENDBRANCH  36  37
ENDBRANCH  35  36
ENDBRANCH   1  35
BRANCH  29  40
HETATM   40  C25 UNL     1     -12.871   7.225  11.438  1.00  0.00    -0.083 C 
HETATM   41  C26 UNL     1     -12.357   7.715  10.174  1.00  0.00     0.043 C 
HETATM   42  C27 UNL     1     -12.738   8.277  12.516  1.00  0.00     0.043 C 
ENDBRANCH  29  40
BRANCH  28  43
HETATM   43  C23 UNL     1     -15.429   7.703  10.940  1.00  0.00     0.189 C 
BRANCH  43  44
HETATM   44  O4  UNL     1     -16.527   8.191  11.591  1.00  0.00    -0.399 OA
ATOM     45  H4  UNL     1     -17.259   7.586  11.589  1.00  0.00     0.209 HD
ENDBRANCH  43  44
ENDBRANCH  28  43
BRANCH  27  46
HETATM   46  N7  UNL     1     -15.929   6.173  13.588  1.00  0.00    -0.340 N 
ATOM     47  H7  UNL     1     -15.221   5.520  13.923  1.00  0.00     0.167 HD
BRANCH  46  48
HETATM   48  C21 UNL     1     -16.384   7.122  14.542  1.00  0.00     0.353 C 
HETATM   49  O3  UNL     1     -16.052   8.326  14.518  1.00  0.00    -0.283 OA
ENDBRANCH  46  48
ENDBRANCH  27  46
TORSDOF 11
ENDMDL
MODEL 4
REMARK VINA RESULT: -6.159426657      1.623      1.784
REMARK  11 active torsions:
REMARK  status: ('A' for Active; 'I' for Inactive)
REMARK    1  A    between atoms: N1_2  and  C2_5 
REMARK    2  A    between atoms: C2_5  and  C3_6 
REMARK    3  A    between atoms: C3_6  and  C4_7 
REMARK    4  A    between atoms: C4_7  and  C5_8 
REMARK    5  A    between atoms: C5_8  and  C6_9 
REMARK    6  A    between atoms: C6_9  and  O1_10 
REMARK    7  A    between atoms: C20_37  and  N7_38 
REMARK    8  A    between atoms: N7_38  and  C21_40 
REMARK    9  A    between atoms: C22_42  and  C23_43 
REMARK   10  A    between atoms: C23_43  and  O4_44 
REMARK   11  A    between atoms: C24_46  and  C25_47 
ROOT
HETATM    1  C3  UNL     1     -17.407   6.563  14.317  1.00  0.00     0.026 C 
HETATM    2  C7  UNL     1     -18.115   5.310  14.750  1.00  0.00    -0.015 C 
HETATM    3  C8  UNL     1     -17.767   3.991  14.344  1.00  0.00    -0.026 C 
HETATM    4  C9  UNL     1     -17.021   3.712  13.080  1.00  0.00     0.054 C 
HETATM    5  C10 UNL     1     -15.588   3.791  13.315  1.00  0.00    -0.018 C 
HETATM    6  C11 UNL     1     -14.671   4.867  13.437  1.00  0.00    -0.054 C 
HETATM    7  C12 UNL     1     -13.679   5.043  12.277  1.00  0.00     0.069 C 
HETATM    8  C13 UNL     1     -13.345   3.954  11.415  1.00  0.00     0.212 C 
HETATM    9  N2  UNL     1     -14.195   3.649  10.278  1.00  0.00    -0.205 N 
ATOM     10  H2  UNL     1     -14.206   2.654  10.055  1.00  0.00     0.179 HD
HETATM   11  C14 UNL     1     -15.033   4.426   9.384  1.00  0.00     0.669 C 
HETATM   12  N3  UNL     1     -15.688   3.685   8.559  1.00  0.00    -0.235 N 
ATOM     13  H31 UNL     1     -16.278   4.231   7.931  1.00  0.00     0.174 HD
ATOM     14  H32 UNL     1     -15.521   2.684   8.659  1.00  0.00     0.174 HD
HETATM   15  N4  UNL     1     -15.271   5.847   9.242  1.00  0.00    -0.226 N 
ATOM     16  H4  UNL     1     -16.226   6.050   8.946  1.00  0.00     0.177 HD
HETATM   17  C15 UNL     1     -14.480   7.062   9.418  1.00  0.00     0.145 C 
HETATM   18  C16 UNL     1     -13.442   6.696  10.500  1.00  0.00     0.032 C 
HETATM   19  C17 UNL     1     -12.196   7.446  10.502  1.00  0.00     0.131 C 
HETATM   20  N5  UNL     1     -11.113   6.542  10.970  1.00  0.00    -0.343 N 
ATOM     21  H5  UNL     1     -10.297   7.034  11.333  1.00  0.00     0.164 HD
HETATM   22  C18 UNL     1     -10.991   5.106  11.012  1.00  0.00     0.317 C 
HETATM   23  O2  UNL     1      -9.778   4.725  11.028  1.00  0.00    -0.247 OA
HETATM   24  N6  UNL     1     -11.902   3.989  11.040  1.00  0.00    -0.321 N 
ATOM     25  H6  UNL     1     -11.501   3.093  10.763  1.00  0.00     0.166 HD
HETATM   26  C19 UNL     1     -14.192   6.332  11.667  1.00  0.00     0.052 C 
HETATM   27  C20 UNL     1     -14.167   7.110  12.932  1.00  0.00     0.014 C 
HETATM   28  C22 UNL     1     -14.811   6.203  14.029  1.00  0.00     0.068 C 
HETATM   29  C24 UNL     1     -15.982   6.740  14.736  1.00  0.00    -0.044 C 
ENDROOT
BRANCH   1  30
HETATM   30  C2  UNL     1     -17.785   6.809  12.909  1.00  0.00     0.249 C 
BRANCH  30  31
HETATM   31  N1  UNL     1     -17.918   8.199  12.504  1.00  0.00    -0.078 N 
HETATM   32  C1  UNL     1     -17.575   8.297  11.045  1.00  0.00     0.267 C 
ATOM     33  H12 UNL     1     -17.364   8.832  13.081  1.00  0.00     0.276 HD
ATOM     34  H11 UNL     1     -18.837   8.585  12.719  1.00  0.00     0.276 HD
ENDBRANCH  30  31
ENDBRANCH   1  30
BRANCH   1  35
HETATM   35  C4  UNL     1     -18.339   7.588  14.980  1.00  0.00     0.022 C 
BRANCH  35  36
HETATM   36  C5  UNL     1     -19.616   7.148  15.516  1.00  0.00     0.027 C 
BRANCH  36  37
HETATM   37  C6  UNL     1     -19.980   7.889  16.826  1.00  0.00     0.164 C 
BRANCH  37  38
HETATM   38  O1  UNL     1     -18.851   8.173  17.550  1.00  0.00    -0.401 OA
ATOM     39  H1  UNL     1     -18.684   9.108  17.557  1.00  0.00     0.209 HD
ENDBRANCH  37  38
ENDBRANCH  36  37
ENDBRANCH  35  36
ENDBRANCH   1  35
BRANCH  29  40
HETATM   40  C25 UNL     1     -15.906   6.910  16.236  1.00  0.00    -0.083 C 
HETATM   41  C26 UNL     1     -15.875   5.852  17.226  1.00  0.00     0.043 C 
HETATM   42  C27 UNL     1     -15.408   8.212  16.826  1.00  0.00     0.043 C 
ENDBRANCH  29  40
BRANCH  28  43
HETATM   43  C23 UNL     1     -13.622   6.294  15.045  1.00  0.00     0.189 C 
BRANCH  43  44
HETATM   44  O4  UNL     1     -12.425   6.570  14.445  1.00  0.00    -0.399 OA
ATOM     45  H4  UNL     1     -12.490   7.248  13.782  1.00  0.00     0.209 HD
ENDBRANCH  43  44
ENDBRANCH  28  43
BRANCH  27  46
HETATM   46  N7  UNL     1     -14.452   8.451  12.982  1.00  0.00    -0.340 N 
ATOM     47  H7  UNL     1     -15.415   8.702  12.758  1.00  0.00     0.167 HD
BRANCH  46  48
HETATM   48  C21 UNL     1     -13.597   9.540  13.301  1.00  0.00     0.353 C 
HETATM   49  O3  UNL     1     -12.352   9.441  13.338  1.00  0.00    -0.283 OA
ENDBRANCH  46  48
ENDBRANCH  27  46
TORSDOF 11
ENDMDL
MODEL 5
REMARK VINA RESULT: -6.100466072      2.420      4.357
REMARK  11 active torsions:
REMARK  status: ('A' for Active; 'I' for Inactive)
REMARK    1  A    between atoms: N1_2  and  C2_5 
REMARK    2  A    between atoms: C2_5  and  C3_6 
REMARK    3  A    between atoms: C3_6  and  C4_7 
REMARK    4  A    between atoms: C4_7  and  C5_8 
REMARK    5  A    between atoms: C5_8  and  C6_9 
REMARK    6  A    between atoms: C6_9  and  O1_10 
REMARK    7  A    between atoms: C20_37  and  N7_38 
REMARK    8  A    between atoms: N7_38  and  C21_40 
REMARK    9  A    between atoms: C22_42  and  C23_43 
REMARK   10  A    between atoms: C23_43  and  O4_44 
REMARK   11  A    between atoms: C24_46  and  C25_47 
ROOT
HETATM    1  C3  UNL     1     -15.560   8.193  14.747  1.00  0.00     0.026 C 
HETATM    2  C7  UNL     1     -17.043   8.435  14.693  1.00  0.00    -0.015 C 
HETATM    3  C8  UNL     1     -17.892   8.073  13.610  1.00  0.00    -0.026 C 
HETATM    4  C9  UNL     1     -17.382   7.887  12.218  1.00  0.00     0.054 C 
HETATM    5  C10 UNL     1     -16.916   6.522  12.032  1.00  0.00    -0.018 C 
HETATM    6  C11 UNL     1     -15.730   5.831  12.394  1.00  0.00    -0.054 C 
HETATM    7  C12 UNL     1     -14.788   5.459  11.239  1.00  0.00     0.069 C 
HETATM    8  C13 UNL     1     -15.268   5.338   9.900  1.00  0.00     0.212 C 
HETATM    9  N2  UNL     1     -15.375   6.520   9.065  1.00  0.00    -0.205 N 
ATOM     10  H2  UNL     1     -16.143   6.456   8.396  1.00  0.00     0.179 HD
HETATM   11  C14 UNL     1     -14.648   7.772   8.956  1.00  0.00     0.669 C 
HETATM   12  N3  UNL     1     -15.184   8.578   8.107  1.00  0.00    -0.235 N 
ATOM     13  H31 UNL     1     -14.674   9.458   8.031  1.00  0.00     0.174 HD
ATOM     14  H32 UNL     1     -16.022   8.219   7.648  1.00  0.00     0.174 HD
HETATM   15  N4  UNL     1     -13.461   8.282   9.607  1.00  0.00    -0.226 N 
ATOM     16  H4  UNL     1     -13.499   9.292   9.742  1.00  0.00     0.177 HD
HETATM   17  C15 UNL     1     -12.220   7.704  10.119  1.00  0.00     0.145 C 
HETATM   18  C16 UNL     1     -12.600   6.264  10.525  1.00  0.00     0.032 C 
HETATM   19  C17 UNL     1     -11.534   5.276  10.532  1.00  0.00     0.131 C 
HETATM   20  N5  UNL     1     -12.118   3.962  10.157  1.00  0.00    -0.343 N 
ATOM     21  H5  UNL     1     -11.560   3.164  10.458  1.00  0.00     0.164 HD
HETATM   22  C18 UNL     1     -13.320   3.595   9.449  1.00  0.00     0.317 C 
HETATM   23  O2  UNL     1     -13.237   2.442   8.922  1.00  0.00    -0.247 OA
HETATM   24  N6  UNL     1     -14.597   4.211   9.189  1.00  0.00    -0.321 N 
ATOM     25  H6  UNL     1     -15.118   3.819   8.405  1.00  0.00     0.166 HD
HETATM   26  C19 UNL     1     -13.623   6.387  11.522  1.00  0.00     0.052 C 
HETATM   27  C20 UNL     1     -13.443   5.967  12.935  1.00  0.00     0.014 C 
HETATM   28  C22 UNL     1     -14.867   5.933  13.578  1.00  0.00     0.068 C 
HETATM   29  C24 UNL     1     -15.085   6.774  14.763  1.00  0.00    -0.044 C 
ENDROOT
BRANCH   1  30
HETATM   30  C2  UNL     1     -14.930   9.158  13.823  1.00  0.00     0.249 C 
BRANCH  30  31
HETATM   31  N1  UNL     1     -13.573   9.573  14.139  1.00  0.00    -0.078 N 
HETATM   32  C1  UNL     1     -12.943  10.112  12.887  1.00  0.00     0.267 C 
ATOM     33  H12 UNL     1     -13.023   8.827  14.566  1.00  0.00     0.276 HD
ATOM     34  H11 UNL     1     -13.534  10.233  14.916  1.00  0.00     0.276 HD
ENDBRANCH  30  31
ENDBRANCH   1  30
BRANCH   1  35
HETATM   35  C4  UNL     1     -15.262   8.919  16.066  1.00  0.00     0.022 C 
BRANCH  35  36
HETATM   36  C5  UNL     1     -16.299   9.729  16.684  1.00  0.00     0.027 C 
BRANCH  36  37
HETATM   37  C6  UNL     1     -16.013   9.989  18.183  1.00  0.00     0.164 C 
BRANCH  37  38
HETATM   38  O1  UNL     1     -16.226  11.307  18.494  1.00  0.00    -0.401 OA
ATOM     39  H1  UNL     1     -17.038  11.615  18.108  1.00  0.00     0.209 HD
ENDBRANCH  37  38
ENDBRANCH  36  37
ENDBRANCH  35  36
ENDBRANCH   1  35
BRANCH  29  40
HETATM   40  C25 UNL     1     -15.499   6.109  16.056  1.00  0.00    -0.083 C 
HETATM   41  C26 UNL     1     -14.794   6.165  17.321  1.00  0.00     0.043 C 
HETATM   42  C27 UNL     1     -16.934   5.677  16.259  1.00  0.00     0.043 C 
ENDBRANCH  29  40
BRANCH  28  43
HETATM   43  C23 UNL     1     -14.779   4.462  14.109  1.00  0.00     0.189 C 
BRANCH  43  44
HETATM   44  O4  UNL     1     -13.626   3.828  13.742  1.00  0.00    -0.399 OA
ATOM     45  H4  UNL     1     -13.514   2.984  14.165  1.00  0.00     0.209 HD
ENDBRANCH  43  44
ENDBRANCH  28  43
BRANCH  27  46
HETATM   46  N7  UNL     1     -12.414   6.425  13.719  1.00  0.00    -0.340 N 
ATOM     47  H7  UNL     1     -12.570   6.367  14.725  1.00  0.00     0.167 HD
BRANCH  46  48
HETATM   48  C21 UNL     1     -11.162   6.970  13.327  1.00  0.00     0.353 C 
HETATM   49  O3  UNL     1     -10.081   6.353  13.447  1.00  0.00    -0.283 OA
ENDBRANCH  46  48
ENDBRANCH  27  46
TORSDOF 11
ENDMDL
