MODEL 1
REMARK VINA RESULT: -9.956539529      0.000      0.000
REMARK  11 active torsions:
REMARK  status: ('A' for Active; 'I' for Inactive)
REMARK    1  A    between atoms: C3_5  and  N2_6 
REMARK    2  A    between atoms: C5_15  and  C6_16 
REMARK    3  A    between atoms: C6_16  and  C7_17 
REMARK    4  A    between atoms: N6_21  and  C9_23 
REMARK    5  A    between atoms: C9_23  and  C10_24 
REMARK    6  A    between atoms: C10_24  and  C11_25 
REMARK    7  A    between atoms: C11_25  and  N7_26 
REMARK    8  A    between atoms: N7_26  and  C12_28 
REMARK    9  A    between atoms: C12_28  and  C13_29 
REMARK   10  A    between atoms: C18_34  and  O1_35 
REMARK   11  A    between atoms: N9_44  and  C24_46 
ROOT
HETATM    1  C7  UNL     1     -10.189   6.812  12.535  1.00  0.00     0.137 A 
HETATM    2  N5  UNL     1     -11.076   6.309  13.522  1.00  0.00    -0.176 N 
ATOM      3  H5  UNL     1     -10.797   5.485  14.054  1.00  0.00     0.186 HD
HETATM    4  C8  UNL     1     -12.355   6.911  13.803  1.00  0.00     0.694 A 
HETATM    5  N6  UNL     1     -13.078   6.371  14.720  1.00  0.00    -0.225 N 
ATOM      6  H6  UNL     1     -12.712   5.548  15.199  1.00  0.00     0.177 HD
HETATM    7  N8  UNL     1     -12.751   8.054  13.070  1.00  0.00    -0.022 N 
ATOM      8  H8  UNL     1     -13.654   8.488  13.261  1.00  0.00     0.203 HD
HETATM    9  C23 UNL     1     -11.884   8.617  12.048  1.00  0.00     0.694 A 
HETATM   10  N9  UNL     1     -12.294   9.658  11.406  1.00  0.00    -0.221 N 
ATOM     11  H9  UNL     1     -13.207  10.053  11.631  1.00  0.00     0.178 HD
HETATM   12  N10 UNL     1     -10.645   7.973  11.827  1.00  0.00    -0.176 N 
ATOM     13  H10 UNL     1     -10.031   8.362  11.111  1.00  0.00     0.186 HD
ENDROOT
BRANCH   5  14
HETATM   14  C9  UNL     1     -14.357   6.855  15.104  1.00  0.00     0.139 C 
BRANCH  14  15
HETATM   15  C10 UNL     1     -14.821   6.129  16.352  1.00  0.00     0.039 C 
BRANCH  15  16
HETATM   16  C11 UNL     1     -16.338   6.106  16.417  1.00  0.00     0.115 C 
BRANCH  16  17
HETATM   17  N7  UNL     1     -16.960   5.777  15.181  1.00  0.00    -0.421 N 
ATOM     18  H7  UNL     1     -17.139   6.485  14.469  1.00  0.00     0.153 HD
BRANCH  17  19
HETATM   19  C12 UNL     1     -17.320   4.416  14.985  1.00  0.00     0.118 C 
BRANCH  19  20
HETATM   20  C13 UNL     1     -16.987   3.969  13.557  1.00  0.00     0.007 C 
HETATM   21  C14 UNL     1     -16.063   2.791  13.663  1.00  0.00     0.011 C 
HETATM   22  C15 UNL     1     -14.631   3.272  13.820  1.00  0.00     0.039 C 
HETATM   23  C16 UNL     1     -14.302   3.957  12.559  1.00  0.00    -0.049 A 
HETATM   24  C17 UNL     1     -13.126   3.683  11.911  1.00  0.00     0.044 A 
HETATM   25  C21 UNL     1     -15.194   4.866  12.052  1.00  0.00    -0.051 A 
HETATM   26  C18 UNL     1     -12.863   4.362  10.710  1.00  0.00     0.066 A 
HETATM   27  C19 UNL     1     -13.742   5.280  10.178  1.00  0.00     0.037 A 
HETATM   28  C20 UNL     1     -14.922   5.541  10.849  1.00  0.00     0.010 A 
HETATM   29  C22 UNL     1     -16.446   5.129  12.801  1.00  0.00     0.045 C 
BRANCH  26  30
HETATM   30  O1  UNL     1     -11.689   4.122  10.013  1.00  0.00    -0.361 OA
ATOM     31  H1  UNL     1     -11.246   4.832   9.562  1.00  0.00     0.217 HD
ENDBRANCH  26  30
ENDBRANCH  19  20
ENDBRANCH  17  19
ENDBRANCH  16  17
ENDBRANCH  15  16
ENDBRANCH  14  15
ENDBRANCH   5  14
BRANCH   1  32
HETATM   32  C6  UNL     1      -9.024   6.263  12.245  1.00  0.00     0.067 C 
BRANCH  32  33
HETATM   33  C5  UNL     1      -8.213   5.448  13.106  1.00  0.00     0.034 A 
HETATM   34  C2  UNL     1      -8.435   4.075  13.058  1.00  0.00     0.036 A 
HETATM   35  C1  UNL     1      -9.444   3.506  12.126  1.00  0.00     0.070 C 
HETATM   36  N1  UNL     1      -7.727   3.272  13.865  1.00  0.00    -0.195 N 
HETATM   37  C3  UNL     1      -6.818   3.790  14.706  1.00  0.00     0.677 A 
ATOM     38  H1  UNL     1      -7.880   2.263  13.839  1.00  0.00     0.184 HD
HETATM   39  N3  UNL     1      -6.587   5.107  14.770  1.00  0.00    -0.176 N 
HETATM   40  C4  UNL     1      -7.282   5.978  13.970  1.00  0.00     0.127 A 
ATOM     41  H3  UNL     1      -5.888   5.467  15.420  1.00  0.00     0.186 HD
HETATM   42  N4  UNL     1      -7.055   7.216  14.099  1.00  0.00    -0.384 N 
ATOM     43  H42 UNL     1      -6.366   7.609  14.740  1.00  0.00     0.157 HD
ATOM     44  H41 UNL     1      -7.573   7.864  13.505  1.00  0.00     0.157 HD
BRANCH  37  45
HETATM   45  N2  UNL     1      -6.126   3.029  15.491  1.00  0.00    -0.234 N 
ATOM     46  H22 UNL     1      -6.120   2.030  15.287  1.00  0.00     0.174 HD
ATOM     47  H21 UNL     1      -5.609   3.418  16.280  1.00  0.00     0.174 HD
ENDBRANCH  37  45
ENDBRANCH  32  33
ENDBRANCH   1  32
BRANCH  10  48
HETATM   48  C24 UNL     1     -11.500  10.273  10.385  1.00  0.00     0.099 C 
HETATM   49  C25 UNL     1     -12.166  11.518   9.830  1.00  0.00     0.026 C 
HETATM   50  C26 UNL     1     -12.348  11.330   8.358  1.00  0.00     0.002 C 
HETATM   51  C27 UNL     1     -12.214   9.856   8.138  1.00  0.00     0.002 C 
HETATM   52  C28 UNL     1     -11.287   9.340   9.199  1.00  0.00     0.026 C 
ENDBRANCH  10  48
TORSDOF 11
ENDMDL
MODEL 2
REMARK VINA RESULT: -9.570733899      1.678      2.309
REMARK  11 active torsions:
REMARK  status: ('A' for Active; 'I' for Inactive)
REMARK    1  A    between atoms: C3_5  and  N2_6 
REMARK    2  A    between atoms: C5_15  and  C6_16 
REMARK    3  A    between atoms: C6_16  and  C7_17 
REMARK    4  A    between atoms: N6_21  and  C9_23 
REMARK    5  A    between atoms: C9_23  and  C10_24 
REMARK    6  A    between atoms: C10_24  and  C11_25 
REMARK    7  A    between atoms: C11_25  and  N7_26 
REMARK    8  A    between atoms: N7_26  and  C12_28 
REMARK    9  A    between atoms: C12_28  and  C13_29 
REMARK   10  A    between atoms: C18_34  and  O1_35 
REMARK   11  A    between atoms: N9_44  and  C24_46 
ROOT
HETATM    1  C7  UNL     1     -10.212   6.902  12.474  1.00  0.00     0.137 A 
HETATM    2  N5  UNL     1     -11.108   6.343  13.422  1.00  0.00    -0.176 N 
ATOM      3  H5  UNL     1     -10.813   5.520  13.947  1.00  0.00     0.186 HD
HETATM    4  C8  UNL     1     -12.418   6.889  13.674  1.00  0.00     0.694 A 
HETATM    5  N6  UNL     1     -13.148   6.302  14.557  1.00  0.00    -0.225 N 
ATOM      6  H6  UNL     1     -12.764   5.484  15.031  1.00  0.00     0.177 HD
HETATM    7  N8  UNL     1     -12.837   8.030  12.952  1.00  0.00    -0.022 N 
ATOM      8  H8  UNL     1     -13.762   8.424  13.122  1.00  0.00     0.203 HD
HETATM    9  C23 UNL     1     -11.962   8.648  11.968  1.00  0.00     0.694 A 
HETATM   10  N9  UNL     1     -12.394   9.685  11.334  1.00  0.00    -0.221 N 
ATOM     11  H9  UNL     1     -13.328  10.039  11.538  1.00  0.00     0.178 HD
HETATM   12  N10 UNL     1     -10.692   8.058  11.774  1.00  0.00    -0.176 N 
ATOM     13  H10 UNL     1     -10.072   8.486  11.086  1.00  0.00     0.186 HD
ENDROOT
BRANCH   5  14
HETATM   14  C9  UNL     1     -14.456   6.727  14.909  1.00  0.00     0.139 C 
BRANCH  14  15
HETATM   15  C10 UNL     1     -15.466   5.690  14.457  1.00  0.00     0.039 C 
BRANCH  15  16
HETATM   16  C11 UNL     1     -16.493   6.319  13.532  1.00  0.00     0.115 C 
BRANCH  16  17
HETATM   17  N7  UNL     1     -16.532   5.734  12.237  1.00  0.00    -0.421 N 
ATOM     18  H7  UNL     1     -17.404   5.397  11.829  1.00  0.00     0.153 HD
BRANCH  17  19
HETATM   19  C12 UNL     1     -15.299   5.641  11.536  1.00  0.00     0.118 C 
BRANCH  19  20
HETATM   20  C13 UNL     1     -14.991   4.183  11.173  1.00  0.00     0.007 C 
HETATM   21  C14 UNL     1     -13.534   3.954  11.449  1.00  0.00     0.011 C 
HETATM   22  C15 UNL     1     -12.707   4.400  10.255  1.00  0.00     0.039 C 
HETATM   23  C16 UNL     1     -13.078   3.495   9.155  1.00  0.00    -0.049 A 
HETATM   24  C17 UNL     1     -12.107   2.903   8.391  1.00  0.00     0.044 A 
HETATM   25  C21 UNL     1     -14.408   3.260   8.916  1.00  0.00    -0.051 A 
HETATM   26  C18 UNL     1     -12.516   2.046   7.356  1.00  0.00     0.066 A 
HETATM   27  C19 UNL     1     -13.844   1.792   7.095  1.00  0.00     0.037 A 
HETATM   28  C20 UNL     1     -14.807   2.400   7.879  1.00  0.00     0.010 A 
HETATM   29  C22 UNL     1     -15.414   3.936   9.770  1.00  0.00     0.045 C 
BRANCH  26  30
HETATM   30  O1  UNL     1     -11.575   1.420   6.553  1.00  0.00    -0.361 OA
ATOM     31  H1  UNL     1     -10.750   1.127   6.921  1.00  0.00     0.217 HD
ENDBRANCH  26  30
ENDBRANCH  19  20
ENDBRANCH  17  19
ENDBRANCH  16  17
ENDBRANCH  15  16
ENDBRANCH  14  15
ENDBRANCH   5  14
BRANCH   1  32
HETATM   32  C6  UNL     1      -9.018   6.405  12.210  1.00  0.00     0.067 C 
BRANCH  32  33
HETATM   33  C5  UNL     1      -8.245   5.521  13.039  1.00  0.00     0.034 A 
HETATM   34  C2  UNL     1      -8.513   4.161  12.919  1.00  0.00     0.036 A 
HETATM   35  C1  UNL     1      -9.528   3.673  11.948  1.00  0.00     0.070 C 
HETATM   36  N1  UNL     1      -7.843   3.294  13.692  1.00  0.00    -0.195 N 
HETATM   37  C3  UNL     1      -6.928   3.739  14.570  1.00  0.00     0.677 A 
ATOM     38  H1  UNL     1      -8.029   2.294  13.614  1.00  0.00     0.184 HD
HETATM   39  N3  UNL     1      -6.655   5.043  14.703  1.00  0.00    -0.176 N 
HETATM   40  C4  UNL     1      -7.310   5.975  13.940  1.00  0.00     0.127 A 
ATOM     41  H3  UNL     1      -5.953   5.345  15.378  1.00  0.00     0.186 HD
HETATM   42  N4  UNL     1      -7.043   7.197  14.134  1.00  0.00    -0.384 N 
ATOM     43  H42 UNL     1      -6.350   7.534  14.802  1.00  0.00     0.157 HD
ATOM     44  H41 UNL     1      -7.531   7.891  13.566  1.00  0.00     0.157 HD
BRANCH  37  45
HETATM   45  N2  UNL     1      -6.273   2.916  15.323  1.00  0.00    -0.234 N 
ATOM     46  H22 UNL     1      -6.715   2.022  15.536  1.00  0.00     0.174 HD
ATOM     47  H21 UNL     1      -5.351   3.157  15.687  1.00  0.00     0.174 HD
ENDBRANCH  37  45
ENDBRANCH  32  33
ENDBRANCH   1  32
BRANCH  10  48
HETATM   48  C24 UNL     1     -11.593  10.352  10.351  1.00  0.00     0.099 C 
HETATM   49  C25 UNL     1     -12.323  11.534   9.742  1.00  0.00     0.026 C 
HETATM   50  C26 UNL     1     -12.404  11.318   8.265  1.00  0.00     0.002 C 
HETATM   51  C27 UNL     1     -12.141   9.858   8.073  1.00  0.00     0.002 C 
HETATM   52  C28 UNL     1     -11.239   9.428   9.193  1.00  0.00     0.026 C 
ENDBRANCH  10  48
TORSDOF 11
ENDMDL
MODEL 3
REMARK VINA RESULT: -9.387838096      3.119      5.053
REMARK  11 active torsions:
REMARK  status: ('A' for Active; 'I' for Inactive)
REMARK    1  A    between atoms: C3_5  and  N2_6 
REMARK    2  A    between atoms: C5_15  and  C6_16 
REMARK    3  A    between atoms: C6_16  and  C7_17 
REMARK    4  A    between atoms: N6_21  and  C9_23 
REMARK    5  A    between atoms: C9_23  and  C10_24 
REMARK    6  A    between atoms: C10_24  and  C11_25 
REMARK    7  A    between atoms: C11_25  and  N7_26 
REMARK    8  A    between atoms: N7_26  and  C12_28 
REMARK    9  A    between atoms: C12_28  and  C13_29 
REMARK   10  A    between atoms: C18_34  and  O1_35 
REMARK   11  A    between atoms: N9_44  and  C24_46 
ROOT
HETATM    1  C7  UNL     1     -12.049   5.112  12.402  1.00  0.00     0.137 A 
HETATM    2  N5  UNL     1     -12.575   3.860  12.812  1.00  0.00    -0.176 N 
ATOM      3  H5  UNL     1     -12.008   3.023  12.676  1.00  0.00     0.186 HD
HETATM    4  C8  UNL     1     -13.879   3.719  13.410  1.00  0.00     0.694 A 
HETATM    5  N6  UNL     1     -14.255   2.535  13.745  1.00  0.00    -0.225 N 
ATOM      6  H6  UNL     1     -13.615   1.759  13.570  1.00  0.00     0.177 HD
HETATM    7  N8  UNL     1     -14.674   4.872  13.603  1.00  0.00    -0.022 N 
ATOM      8  H8  UNL     1     -15.598   4.784  14.026  1.00  0.00     0.203 HD
HETATM    9  C23 UNL     1     -14.188   6.184  13.205  1.00  0.00     0.694 A 
HETATM   10  N9  UNL     1     -14.954   7.203  13.399  1.00  0.00    -0.221 N 
ATOM     11  H9  UNL     1     -15.871   7.062  13.822  1.00  0.00     0.178 HD
HETATM   12  N10 UNL     1     -12.900   6.245  12.624  1.00  0.00    -0.176 N 
ATOM     13  H10 UNL     1     -12.552   7.161  12.342  1.00  0.00     0.186 HD
ENDROOT
BRANCH   5  14
HETATM   14  C9  UNL     1     -15.510   2.245  14.344  1.00  0.00     0.139 C 
BRANCH  14  15
HETATM   15  C10 UNL     1     -16.619   2.469  13.334  1.00  0.00     0.039 C 
BRANCH  15  16
HETATM   16  C11 UNL     1     -17.961   2.574  14.036  1.00  0.00     0.115 C 
BRANCH  16  17
HETATM   17  N7  UNL     1     -17.926   3.356  15.224  1.00  0.00    -0.421 N 
ATOM     18  H7  UNL     1     -17.989   2.927  16.147  1.00  0.00     0.153 HD
BRANCH  17  19
HETATM   19  C12 UNL     1     -17.799   4.763  15.064  1.00  0.00     0.118 C 
BRANCH  19  20
HETATM   20  C13 UNL     1     -17.634   5.450  16.425  1.00  0.00     0.007 C 
HETATM   21  C14 UNL     1     -18.764   6.426  16.571  1.00  0.00     0.011 C 
HETATM   22  C15 UNL     1     -18.404   7.736  15.893  1.00  0.00     0.039 C 
HETATM   23  C16 UNL     1     -17.271   8.281  16.659  1.00  0.00    -0.049 A 
HETATM   24  C17 UNL     1     -17.273   9.593  17.055  1.00  0.00     0.044 A 
HETATM   25  C21 UNL     1     -16.224   7.451  16.966  1.00  0.00    -0.051 A 
HETATM   26  C18 UNL     1     -16.169  10.061  17.786  1.00  0.00     0.066 A 
HETATM   27  C19 UNL     1     -15.105   9.248  18.109  1.00  0.00     0.037 A 
HETATM   28  C20 UNL     1     -15.124   7.929  17.699  1.00  0.00     0.010 A 
HETATM   29  C22 UNL     1     -16.273   6.044  16.504  1.00  0.00     0.045 C 
BRANCH  26  30
HETATM   30  O1  UNL     1     -16.119  11.379  18.213  1.00  0.00    -0.361 OA
ATOM     31  H1  UNL     1     -15.322  11.886  18.112  1.00  0.00     0.217 HD
ENDBRANCH  26  30
ENDBRANCH  19  20
ENDBRANCH  17  19
ENDBRANCH  16  17
ENDBRANCH  15  16
ENDBRANCH  14  15
ENDBRANCH   5  14
BRANCH   1  32
HETATM   32  C6  UNL     1     -10.868   5.261  11.830  1.00  0.00     0.067 C 
BRANCH  32  33
HETATM   33  C5  UNL     1      -9.605   5.451  12.489  1.00  0.00     0.034 A 
HETATM   34  C2  UNL     1      -8.714   4.383  12.449  1.00  0.00     0.036 A 
HETATM   35  C1  UNL     1      -9.065   3.133  11.724  1.00  0.00     0.070 C 
HETATM   36  N1  UNL     1      -7.534   4.495  13.075  1.00  0.00    -0.195 N 
HETATM   37  C3  UNL     1      -7.221   5.625  13.730  1.00  0.00     0.677 A 
ATOM     38  H1  UNL     1      -6.871   3.720  13.053  1.00  0.00     0.184 HD
HETATM   39  N3  UNL     1      -8.063   6.665  13.782  1.00  0.00    -0.176 N 
HETATM   40  C4  UNL     1      -9.285   6.607  13.162  1.00  0.00     0.127 A 
ATOM     41  H3  UNL     1      -7.793   7.508  14.287  1.00  0.00     0.186 HD
HETATM   42  N4  UNL     1     -10.059   7.602  13.276  1.00  0.00    -0.384 N 
ATOM     43  H42 UNL     1      -9.821   8.459  13.776  1.00  0.00     0.157 HD
ATOM     44  H41 UNL     1     -10.968   7.558  12.815  1.00  0.00     0.157 HD
BRANCH  37  45
HETATM   45  N2  UNL     1      -6.086   5.750  14.339  1.00  0.00    -0.234 N 
ATOM     46  H22 UNL     1      -6.105   6.101  15.296  1.00  0.00     0.174 HD
ATOM     47  H21 UNL     1      -5.212   5.507  13.874  1.00  0.00     0.174 HD
ENDBRANCH  37  45
ENDBRANCH  32  33
ENDBRANCH   1  32
BRANCH  10  48
HETATM   48  C24 UNL     1     -14.549   8.528  13.035  1.00  0.00     0.099 C 
HETATM   49  C25 UNL     1     -14.104   9.330  14.243  1.00  0.00     0.026 C 
HETATM   50  C26 UNL     1     -14.958  10.553  14.328  1.00  0.00     0.002 C 
HETATM   51  C27 UNL     1     -16.151  10.250  13.477  1.00  0.00     0.002 C 
HETATM   52  C28 UNL     1     -15.691   9.312  12.401  1.00  0.00     0.026 C 
ENDBRANCH  10  48
TORSDOF 11
ENDMDL
MODEL 4
REMARK VINA RESULT: -9.291785935      2.061      2.858
REMARK  11 active torsions:
REMARK  status: ('A' for Active; 'I' for Inactive)
REMARK    1  A    between atoms: C3_5  and  N2_6 
REMARK    2  A    between atoms: C5_15  and  C6_16 
REMARK    3  A    between atoms: C6_16  and  C7_17 
REMARK    4  A    between atoms: N6_21  and  C9_23 
REMARK    5  A    between atoms: C9_23  and  C10_24 
REMARK    6  A    between atoms: C10_24  and  C11_25 
REMARK    7  A    between atoms: C11_25  and  N7_26 
REMARK    8  A    between atoms: N7_26  and  C12_28 
REMARK    9  A    between atoms: C12_28  and  C13_29 
REMARK   10  A    between atoms: C18_34  and  O1_35 
REMARK   11  A    between atoms: N9_44  and  C24_46 
ROOT
HETATM    1  C7  UNL     1     -10.215   6.941  12.420  1.00  0.00     0.137 A 
HETATM    2  N5  UNL     1     -11.116   6.375  13.359  1.00  0.00    -0.176 N 
ATOM      3  H5  UNL     1     -10.818   5.556  13.888  1.00  0.00     0.186 HD
HETATM    4  C8  UNL     1     -12.434   6.907  13.596  1.00  0.00     0.694 A 
HETATM    5  N6  UNL     1     -13.166   6.314  14.472  1.00  0.00    -0.225 N 
ATOM      6  H6  UNL     1     -12.779   5.501  14.951  1.00  0.00     0.177 HD
HETATM    7  N8  UNL     1     -12.856   8.043  12.868  1.00  0.00    -0.022 N 
ATOM      8  H8  UNL     1     -13.788   8.428  13.028  1.00  0.00     0.203 HD
HETATM    9  C23 UNL     1     -11.978   8.669  11.893  1.00  0.00     0.694 A 
HETATM   10  N9  UNL     1     -12.413   9.700  11.253  1.00  0.00    -0.221 N 
ATOM     11  H9  UNL     1     -13.353  10.045  11.446  1.00  0.00     0.178 HD
HETATM   12  N10 UNL     1     -10.700   8.092  11.713  1.00  0.00    -0.176 N 
ATOM     13  H10 UNL     1     -10.077   8.525  11.031  1.00  0.00     0.186 HD
ENDROOT
BRANCH   5  14
HETATM   14  C9  UNL     1     -14.482   6.726  14.810  1.00  0.00     0.139 C 
BRANCH  14  15
HETATM   15  C10 UNL     1     -15.488   5.773  14.192  1.00  0.00     0.039 C 
BRANCH  15  16
HETATM   16  C11 UNL     1     -16.051   6.358  12.909  1.00  0.00     0.115 C 
BRANCH  16  17
HETATM   17  N7  UNL     1     -15.993   5.469  11.800  1.00  0.00    -0.421 N 
ATOM     18  H7  UNL     1     -16.765   5.389  11.138  1.00  0.00     0.153 HD
BRANCH  17  19
HETATM   19  C12 UNL     1     -14.808   4.697  11.657  1.00  0.00     0.118 C 
BRANCH  19  20
HETATM   20  C13 UNL     1     -14.216   4.870  10.253  1.00  0.00     0.007 C 
HETATM   21  C14 UNL     1     -15.365   4.943   9.291  1.00  0.00     0.011 C 
HETATM   22  C15 UNL     1     -15.806   3.541   8.907  1.00  0.00     0.039 C 
HETATM   23  C16 UNL     1     -14.673   2.957   8.170  1.00  0.00    -0.049 A 
HETATM   24  C17 UNL     1     -14.883   2.315   6.978  1.00  0.00     0.044 A 
HETATM   25  C21 UNL     1     -13.414   3.072   8.701  1.00  0.00    -0.051 A 
HETATM   26  C18 UNL     1     -13.766   1.779   6.315  1.00  0.00     0.066 A 
HETATM   27  C19 UNL     1     -12.491   1.881   6.825  1.00  0.00     0.037 A 
HETATM   28  C20 UNL     1     -12.304   2.532   8.029  1.00  0.00     0.010 A 
HETATM   29  C22 UNL     1     -13.249   3.769   9.998  1.00  0.00     0.045 C 
BRANCH  26  30
HETATM   30  O1  UNL     1     -13.921   1.120   5.105  1.00  0.00    -0.361 OA
ATOM     31  H1  UNL     1     -14.602   1.385   4.498  1.00  0.00     0.217 HD
ENDBRANCH  26  30
ENDBRANCH  19  20
ENDBRANCH  17  19
ENDBRANCH  16  17
ENDBRANCH  15  16
ENDBRANCH  14  15
ENDBRANCH   5  14
BRANCH   1  32
HETATM   32  C6  UNL     1      -9.013   6.457  12.170  1.00  0.00     0.067 C 
BRANCH  32  33
HETATM   33  C5  UNL     1      -8.259   5.547  12.987  1.00  0.00     0.034 A 
HETATM   34  C2  UNL     1      -8.548   4.193  12.843  1.00  0.00     0.036 A 
HETATM   35  C1  UNL     1      -9.566   3.739  11.859  1.00  0.00     0.070 C 
HETATM   36  N1  UNL     1      -7.896   3.303  13.604  1.00  0.00    -0.195 N 
HETATM   37  C3  UNL     1      -6.978   3.718  14.493  1.00  0.00     0.677 A 
ATOM     38  H1  UNL     1      -8.098   2.308  13.509  1.00  0.00     0.184 HD
HETATM   39  N3  UNL     1      -6.685   5.015  14.649  1.00  0.00    -0.176 N 
HETATM   40  C4  UNL     1      -7.321   5.970  13.899  1.00  0.00     0.127 A 
ATOM     41  H3  UNL     1      -5.981   5.294  15.332  1.00  0.00     0.186 HD
HETATM   42  N4  UNL     1      -7.035   7.184  14.115  1.00  0.00    -0.384 N 
ATOM     43  H42 UNL     1      -6.339   7.498  14.791  1.00  0.00     0.157 HD
ATOM     44  H41 UNL     1      -7.508   7.895  13.557  1.00  0.00     0.157 HD
BRANCH  37  45
HETATM   45  N2  UNL     1      -6.340   2.872  15.235  1.00  0.00    -0.234 N 
ATOM     46  H22 UNL     1      -5.772   3.250  15.994  1.00  0.00     0.174 HD
ATOM     47  H21 UNL     1      -6.406   1.868  15.065  1.00  0.00     0.174 HD
ENDBRANCH  37  45
ENDBRANCH  32  33
ENDBRANCH   1  32
BRANCH  10  48
HETATM   48  C24 UNL     1     -11.609  10.374  10.277  1.00  0.00     0.099 C 
HETATM   49  C25 UNL     1     -12.348  11.542   9.652  1.00  0.00     0.026 C 
HETATM   50  C26 UNL     1     -12.406  11.318   8.175  1.00  0.00     0.002 C 
HETATM   51  C27 UNL     1     -12.119   9.861   7.995  1.00  0.00     0.002 C 
HETATM   52  C28 UNL     1     -11.226   9.450   9.128  1.00  0.00     0.026 C 
ENDBRANCH  10  48
TORSDOF 11
ENDMDL
MODEL 5
REMARK VINA RESULT: -9.160564891      2.680      4.562
REMARK  11 active torsions:
REMARK  status: ('A' for Active; 'I' for Inactive)
REMARK    1  A    between atoms: C3_5  and  N2_6 
REMARK    2  A    between atoms: C5_15  and  C6_16 
REMARK    3  A    between atoms: C6_16  and  C7_17 
REMARK    4  A    between atoms: N6_21  and  C9_23 
REMARK    5  A    between atoms: C9_23  and  C10_24 
REMARK    6  A    between atoms: C10_24  and  C11_25 
REMARK    7  A    between atoms: C11_25  and  N7_26 
REMARK    8  A    between atoms: N7_26  and  C12_28 
REMARK    9  A    between atoms: C12_28  and  C13_29 
REMARK   10  A    between atoms: C18_34  and  O1_35 
REMARK   11  A    between atoms: N9_44  and  C24_46 
ROOT
HETATM    1  C7  UNL     1     -12.125   4.911  12.126  1.00  0.00     0.137 A 
HETATM    2  N5  UNL     1     -12.841   3.802  12.647  1.00  0.00    -0.176 N 
ATOM      3  H5  UNL     1     -12.383   2.891  12.668  1.00  0.00     0.186 HD
HETATM    4  C8  UNL     1     -14.188   3.908  13.148  1.00  0.00     0.694 A 
HETATM    5  N6  UNL     1     -14.741   2.837  13.599  1.00  0.00    -0.225 N 
ATOM      6  H6  UNL     1     -14.201   1.972  13.578  1.00  0.00     0.177 HD
HETATM    7  N8  UNL     1     -14.832   5.167  13.125  1.00  0.00    -0.022 N 
ATOM      8  H8  UNL     1     -15.786   5.253  13.477  1.00  0.00     0.203 HD
HETATM    9  C23 UNL     1     -14.149   6.340  12.605  1.00  0.00     0.694 A 
HETATM   10  N9  UNL     1     -14.783   7.464  12.603  1.00  0.00    -0.221 N 
ATOM     11  H9  UNL     1     -15.736   7.498  12.962  1.00  0.00     0.178 HD
HETATM   12  N10 UNL     1     -12.829   6.161  12.130  1.00  0.00    -0.176 N 
ATOM     13  H10 UNL     1     -12.343   6.979  11.764  1.00  0.00     0.186 HD
ENDROOT
BRANCH   5  14
HETATM   14  C9  UNL     1     -16.060   2.791  14.123  1.00  0.00     0.139 C 
BRANCH  14  15
HETATM   15  C10 UNL     1     -17.047   2.549  12.996  1.00  0.00     0.039 C 
BRANCH  15  16
HETATM   16  C11 UNL     1     -18.107   3.635  12.980  1.00  0.00     0.115 C 
BRANCH  16  17
HETATM   17  N7  UNL     1     -18.560   4.014  14.273  1.00  0.00    -0.421 N 
ATOM     18  H7  UNL     1     -18.430   3.407  15.083  1.00  0.00     0.153 HD
BRANCH  17  19
HETATM   19  C12 UNL     1     -19.201   5.278  14.385  1.00  0.00     0.118 C 
BRANCH  19  20
HETATM   20  C13 UNL     1     -18.750   6.002  15.660  1.00  0.00     0.007 C 
HETATM   21  C14 UNL     1     -18.895   7.474  15.410  1.00  0.00     0.011 C 
HETATM   22  C15 UNL     1     -17.658   8.001  14.703  1.00  0.00     0.039 C 
HETATM   23  C16 UNL     1     -16.553   7.841  15.662  1.00  0.00    -0.049 A 
HETATM   24  C17 UNL     1     -15.687   8.877  15.896  1.00  0.00     0.044 A 
HETATM   25  C21 UNL     1     -16.414   6.641  16.310  1.00  0.00    -0.051 A 
HETATM   26  C18 UNL     1     -14.652   8.670  16.823  1.00  0.00     0.066 A 
HETATM   27  C19 UNL     1     -14.490   7.476  17.489  1.00  0.00     0.037 A 
HETATM   28  C20 UNL     1     -15.376   6.445  17.237  1.00  0.00     0.010 A 
HETATM   29  C22 UNL     1     -17.376   5.554  16.009  1.00  0.00     0.045 C 
BRANCH  26  30
HETATM   30  O1  UNL     1     -13.748   9.684  17.100  1.00  0.00    -0.361 OA
ATOM     31  H1  UNL     1     -13.916  10.297  17.806  1.00  0.00     0.217 HD
ENDBRANCH  26  30
ENDBRANCH  19  20
ENDBRANCH  17  19
ENDBRANCH  16  17
ENDBRANCH  15  16
ENDBRANCH  14  15
ENDBRANCH   5  14
BRANCH   1  32
HETATM   32  C6  UNL     1     -10.900   4.832  11.641  1.00  0.00     0.067 C 
BRANCH  32  33
HETATM   33  C5  UNL     1      -9.669   4.989  12.366  1.00  0.00     0.034 A 
HETATM   34  C2  UNL     1      -9.281   6.292  12.661  1.00  0.00     0.036 A 
HETATM   35  C1  UNL     1     -10.136   7.443  12.265  1.00  0.00     0.070 C 
HETATM   36  N1  UNL     1      -8.125   6.497  13.308  1.00  0.00    -0.195 N 
HETATM   37  C3  UNL     1      -7.356   5.455  13.664  1.00  0.00     0.677 A 
ATOM     38  H1  UNL     1      -7.829   7.447  13.532  1.00  0.00     0.184 HD
HETATM   39  N3  UNL     1      -7.709   4.193  13.389  1.00  0.00    -0.176 N 
HETATM   40  C4  UNL     1      -8.879   3.923  12.728  1.00  0.00     0.127 A 
ATOM     41  H3  UNL     1      -7.101   3.426  13.674  1.00  0.00     0.186 HD
HETATM   42  N4  UNL     1      -9.145   2.715  12.457  1.00  0.00    -0.384 N 
ATOM     43  H42 UNL     1      -8.559   1.925  12.726  1.00  0.00     0.157 HD
ATOM     44  H41 UNL     1     -10.016   2.514  11.965  1.00  0.00     0.157 HD
BRANCH  37  45
HETATM   45  N2  UNL     1      -6.237   5.635  14.289  1.00  0.00    -0.234 N 
ATOM     46  H22 UNL     1      -6.266   6.180  15.150  1.00  0.00     0.174 HD
ATOM     47  H21 UNL     1      -5.366   5.245  13.930  1.00  0.00     0.174 HD
ENDBRANCH  37  45
ENDBRANCH  32  33
ENDBRANCH   1  32
BRANCH  10  48
HETATM   48  C24 UNL     1     -14.180   8.666  12.107  1.00  0.00     0.099 C 
HETATM   49  C25 UNL     1     -13.384   9.378  13.184  1.00  0.00     0.026 C 
HETATM   50  C26 UNL     1     -13.942  10.756  13.338  1.00  0.00     0.002 C 
HETATM   51  C27 UNL     1     -15.297  10.697  12.705  1.00  0.00     0.002 C 
HETATM   52  C28 UNL     1     -15.226   9.661  11.621  1.00  0.00     0.026 C 
ENDBRANCH  10  48
TORSDOF 11
ENDMDL
