MODEL 1
REMARK VINA RESULT: -5.347350521      0.000      0.000
REMARK  3 active torsions:
REMARK  status: ('A' for Active; 'I' for Inactive)
REMARK    1  A    between atoms: C1_2  and  N1_3 
REMARK    2  A    between atoms: C1_2  and  C8_11 
REMARK    3  A    between atoms: N1_3  and  C2_5 
ROOT
HETATM    1  N1  UNL     1      20.180  84.812  55.532  1.00  0.00    -0.378 N 
ATOM      2  H1  UNL     1      19.235  85.147  55.718  1.00  0.00     0.160 HD
ENDROOT
BRANCH   1   3
HETATM    3  C1  UNL     1      21.028  85.579  54.694  1.00  0.00     0.107 C 
HETATM    4  S1  UNL     1      21.556  84.959  53.283  1.00  0.00    -0.063 SA
BRANCH   3   5
HETATM    5  C8  UNL     1      21.444  86.942  55.086  1.00  0.00     0.239 C 
HETATM    6 CL1  UNL     1      23.086  86.818  55.805  1.00  0.00    -0.101 Cl
HETATM    7 CL2  UNL     1      21.554  87.992  53.659  1.00  0.00    -0.101 Cl
ENDBRANCH   3   5
ENDBRANCH   1   3
BRANCH   1   8
HETATM    8  C2  UNL     1      20.618  83.554  56.138  1.00  0.00     0.082 C 
HETATM    9  C3  UNL     1      21.647  83.904  57.191  1.00  0.00     0.025 C 
HETATM   10  C4  UNL     1      20.817  84.417  58.378  1.00  0.00     0.002 C 
HETATM   11  C5  UNL     1      20.290  83.184  59.068  1.00  0.00     0.000 C 
HETATM   12  C6  UNL     1      19.631  82.298  58.081  1.00  0.00     0.002 C 
HETATM   13  C7  UNL     1      19.432  82.836  56.710  1.00  0.00     0.025 C 
ENDBRANCH   1   8
TORSDOF 3
ENDMDL
MODEL 2
REMARK VINA RESULT: -5.306301833      2.109      3.118
REMARK  3 active torsions:
REMARK  status: ('A' for Active; 'I' for Inactive)
REMARK    1  A    between atoms: C1_2  and  N1_3 
REMARK    2  A    between atoms: C1_2  and  C8_11 
REMARK    3  A    between atoms: N1_3  and  C2_5 
ROOT
HETATM    1  N1  UNL     1      21.198  84.314  57.124  1.00  0.00    -0.378 N 
ATOM      2  H1  UNL     1      21.321  83.305  57.040  1.00  0.00     0.160 HD
ENDROOT
BRANCH   1   3
HETATM    3  C1  UNL     1      21.291  85.115  55.959  1.00  0.00     0.107 C 
HETATM    4  S1  UNL     1      20.012  86.003  55.477  1.00  0.00    -0.063 SA
BRANCH   3   5
HETATM    5  C8  UNL     1      22.539  85.157  55.169  1.00  0.00     0.239 C 
HETATM    6 CL1  UNL     1      23.544  86.498  55.818  1.00  0.00    -0.101 Cl
HETATM    7 CL2  UNL     1      23.452  83.648  55.369  1.00  0.00    -0.101 Cl
ENDBRANCH   3   5
ENDBRANCH   1   3
BRANCH   1   8
HETATM    8  C2  UNL     1      20.932  84.889  58.442  1.00  0.00     0.082 C 
HETATM    9  C3  UNL     1      20.809  83.735  59.414  1.00  0.00     0.025 C 
HETATM   10  C4  UNL     1      22.259  83.302  59.676  1.00  0.00     0.002 C 
HETATM   11  C5  UNL     1      22.806  84.294  60.671  1.00  0.00     0.000 C 
HETATM   12  C6  UNL     1      22.560  85.674  60.192  1.00  0.00     0.002 C 
HETATM   13  C7  UNL     1      22.040  85.831  58.808  1.00  0.00     0.025 C 
ENDBRANCH   1   8
TORSDOF 3
ENDMDL
MODEL 3
REMARK VINA RESULT: -5.300677774      2.550      3.032
REMARK  3 active torsions:
REMARK  status: ('A' for Active; 'I' for Inactive)
REMARK    1  A    between atoms: C1_2  and  N1_3 
REMARK    2  A    between atoms: C1_2  and  C8_11 
REMARK    3  A    between atoms: N1_3  and  C2_5 
ROOT
HETATM    1  N1  UNL     1      21.721  85.364  57.162  1.00  0.00    -0.378 N 
ATOM      2  H1  UNL     1      21.577  86.371  57.097  1.00  0.00     0.160 HD
ENDROOT
BRANCH   1   3
HETATM    3  C1  UNL     1      21.645  84.582  55.982  1.00  0.00     0.107 C 
HETATM    4  S1  UNL     1      22.939  83.724  55.488  1.00  0.00    -0.063 SA
BRANCH   3   5
HETATM    5  C8  UNL     1      20.399  84.534  55.188  1.00  0.00     0.239 C 
HETATM    6 CL1  UNL     1      19.399  83.189  55.834  1.00  0.00    -0.101 Cl
HETATM    7 CL2  UNL     1      19.479  86.039  55.385  1.00  0.00    -0.101 Cl
ENDBRANCH   3   5
ENDBRANCH   1   3
BRANCH   1   8
HETATM    8  C2  UNL     1      22.001  84.770  58.470  1.00  0.00     0.082 C 
HETATM    9  C3  UNL     1      22.237  85.911  59.435  1.00  0.00     0.025 C 
HETATM   10  C4  UNL     1      20.829  86.438  59.753  1.00  0.00     0.002 C 
HETATM   11  C5  UNL     1      20.258  85.482  60.769  1.00  0.00     0.000 C 
HETATM   12  C6  UNL     1      20.394  84.090  60.282  1.00  0.00     0.002 C 
HETATM   13  C7  UNL     1      20.848  83.902  58.879  1.00  0.00     0.025 C 
ENDBRANCH   1   8
TORSDOF 3
ENDMDL
MODEL 4
REMARK VINA RESULT: -5.285656840      2.201      2.942
REMARK  3 active torsions:
REMARK  status: ('A' for Active; 'I' for Inactive)
REMARK    1  A    between atoms: C1_2  and  N1_3 
REMARK    2  A    between atoms: C1_2  and  C8_11 
REMARK    3  A    between atoms: N1_3  and  C2_5 
ROOT
HETATM    1  N1  UNL     1      21.241  85.711  57.418  1.00  0.00    -0.378 N 
ATOM      2  H1  UNL     1      20.781  86.603  57.595  1.00  0.00     0.160 HD
ENDROOT
BRANCH   1   3
HETATM    3  C1  UNL     1      21.289  85.214  56.091  1.00  0.00     0.107 C 
HETATM    4  S1  UNL     1      19.983  84.482  55.448  1.00  0.00    -0.063 SA
BRANCH   3   5
HETATM    5  C8  UNL     1      22.515  85.351  55.277  1.00  0.00     0.239 C 
HETATM    6 CL1  UNL     1      23.503  86.662  56.007  1.00  0.00    -0.101 Cl
HETATM    7 CL2  UNL     1      23.469  83.855  55.336  1.00  0.00    -0.101 Cl
ENDBRANCH   3   5
ENDBRANCH   1   3
BRANCH   1   8
HETATM    8  C2  UNL     1      21.832  84.982  58.541  1.00  0.00     0.082 C 
HETATM    9  C3  UNL     1      22.458  86.011  59.457  1.00  0.00     0.025 C 
HETATM   10  C4  UNL     1      21.269  86.618  60.218  1.00  0.00     0.002 C 
HETATM   11  C5  UNL     1      20.929  85.623  61.299  1.00  0.00     0.000 C 
HETATM   12  C6  UNL     1      20.771  84.273  60.709  1.00  0.00     0.002 C 
HETATM   13  C7  UNL     1      20.769  84.175  59.226  1.00  0.00     0.025 C 
ENDBRANCH   1   8
TORSDOF 3
ENDMDL
MODEL 5
REMARK VINA RESULT: -5.275775110      2.584      3.376
REMARK  3 active torsions:
REMARK  status: ('A' for Active; 'I' for Inactive)
REMARK    1  A    between atoms: C1_2  and  N1_3 
REMARK    2  A    between atoms: C1_2  and  C8_11 
REMARK    3  A    between atoms: N1_3  and  C2_5 
ROOT
HETATM    1  N1  UNL     1      21.689  83.931  57.410  1.00  0.00    -0.378 N 
ATOM      2  H1  UNL     1      22.135  83.036  57.607  1.00  0.00     0.160 HD
ENDROOT
BRANCH   1   3
HETATM    3  C1  UNL     1      21.654  84.402  56.074  1.00  0.00     0.107 C 
HETATM    4  S1  UNL     1      22.990  85.050  55.403  1.00  0.00    -0.063 SA
BRANCH   3   5
HETATM    5  C8  UNL     1      20.413  84.316  55.275  1.00  0.00     0.239 C 
HETATM    6 CL1  UNL     1      19.385  83.040  56.012  1.00  0.00    -0.101 Cl
HETATM    7 CL2  UNL     1      19.517  85.846  55.351  1.00  0.00    -0.101 Cl
ENDBRANCH   3   5
ENDBRANCH   1   3
BRANCH   1   8
HETATM    8  C2  UNL     1      21.104  84.690  58.516  1.00  0.00     0.082 C 
HETATM    9  C3  UNL     1      20.483  83.686  59.464  1.00  0.00     0.025 C 
HETATM   10  C4  UNL     1      21.675  83.100  60.234  1.00  0.00     0.002 C 
HETATM   11  C5  UNL     1      22.021  84.124  61.286  1.00  0.00     0.000 C 
HETATM   12  C6  UNL     1      22.176  85.457  60.659  1.00  0.00     0.002 C 
HETATM   13  C7  UNL     1      22.170  85.515  59.174  1.00  0.00     0.025 C 
ENDBRANCH   1   8
TORSDOF 3
ENDMDL
