MODEL 1
REMARK VINA RESULT: -6.065847723      0.000      0.000
REMARK  2 active torsions:
REMARK  status: ('A' for Active; 'I' for Inactive)
REMARK    1  A    between atoms: C4_4  and  C5_5 
REMARK    2  A    between atoms: C5_5  and  C7_9 
ROOT
HETATM    1  C7  UNL     1      21.274  85.398  56.815  1.00  0.00     0.221 C 
HETATM    2  C8  UNL     1      22.545  86.162  57.088  1.00  0.00     0.038 C 
HETATM    3  C9  UNL     1      23.143  86.546  55.741  1.00  0.00     0.004 C 
HETATM    4  C10 UNL     1      22.133  87.250  54.874  1.00  0.00     0.027 C 
HETATM    5  C11 UNL     1      20.740  86.750  54.984  1.00  0.00     0.233 C 
HETATM    6  N1  UNL     1      20.312  86.352  56.294  1.00  0.00    -0.067 N 
ATOM      7  H11 UNL     1      20.167  87.145  56.918  1.00  0.00     0.277 HD
ATOM      8  H12 UNL     1      19.357  85.993  56.304  1.00  0.00     0.277 HD
ENDROOT
BRANCH   1   9
HETATM    9  C5  UNL     1      20.809  84.514  57.854  1.00  0.00     0.006 C 
HETATM   10  C6  UNL     1      20.138  83.411  57.408  1.00  0.00     0.111 C 
HETATM   11 CL1  UNL     1      19.815  83.180  55.714  1.00  0.00    -0.070 Cl
HETATM   12 CL2  UNL     1      19.614  82.244  58.584  1.00  0.00    -0.070 Cl
BRANCH   9  13
HETATM   13  C4  UNL     1      21.019  84.605  59.257  1.00  0.00     0.014 C 
HETATM   14  C2  UNL     1      20.789  85.411  60.216  1.00  0.00    -0.087 C 
HETATM   15  C1  UNL     1      21.270  84.970  61.610  1.00  0.00     0.043 C 
HETATM   16  C3  UNL     1      20.092  86.684  60.209  1.00  0.00     0.043 C 
ENDBRANCH   9  13
ENDBRANCH   1   9
TORSDOF 2
ENDMDL
MODEL 2
REMARK VINA RESULT: -6.062701731      2.800      3.750
REMARK  2 active torsions:
REMARK  status: ('A' for Active; 'I' for Inactive)
REMARK    1  A    between atoms: C4_4  and  C5_5 
REMARK    2  A    between atoms: C5_5  and  C7_9 
ROOT
HETATM    1  C7  UNL     1      21.658  84.316  56.812  1.00  0.00     0.221 C 
HETATM    2  C8  UNL     1      20.393  83.544  57.092  1.00  0.00     0.038 C 
HETATM    3  C9  UNL     1      19.788  83.160  55.749  1.00  0.00     0.004 C 
HETATM    4  C10 UNL     1      20.796  82.463  54.873  1.00  0.00     0.027 C 
HETATM    5  C11 UNL     1      22.187  82.971  54.975  1.00  0.00     0.233 C 
HETATM    6  N1  UNL     1      22.622  83.369  56.282  1.00  0.00    -0.067 N 
ATOM      7  H11 UNL     1      22.775  82.575  56.904  1.00  0.00     0.277 HD
ATOM      8  H12 UNL     1      23.575  83.733  56.287  1.00  0.00     0.277 HD
ENDROOT
BRANCH   1   9
HETATM    9  C5  UNL     1      22.125  85.200  57.850  1.00  0.00     0.006 C 
HETATM   10  C6  UNL     1      22.801  86.300  57.402  1.00  0.00     0.111 C 
HETATM   11 CL1  UNL     1      23.126  86.527  55.708  1.00  0.00    -0.070 Cl
HETATM   12 CL2  UNL     1      23.328  87.467  58.576  1.00  0.00    -0.070 Cl
BRANCH   9  13
HETATM   13  C4  UNL     1      21.913  85.112  59.253  1.00  0.00     0.014 C 
HETATM   14  C2  UNL     1      22.143  84.309  60.214  1.00  0.00    -0.087 C 
HETATM   15  C1  UNL     1      21.660  84.753  61.606  1.00  0.00     0.043 C 
HETATM   16  C3  UNL     1      22.841  83.037  60.211  1.00  0.00     0.043 C 
ENDBRANCH   9  13
ENDBRANCH   1   9
TORSDOF 2
ENDMDL
MODEL 3
REMARK VINA RESULT: -6.059839172      2.310      5.012
REMARK  2 active torsions:
REMARK  status: ('A' for Active; 'I' for Inactive)
REMARK    1  A    between atoms: C4_4  and  C5_5 
REMARK    2  A    between atoms: C5_5  and  C7_9 
ROOT
HETATM    1  C7  UNL     1      20.761  83.791  56.178  1.00  0.00     0.221 C 
HETATM    2  C8  UNL     1      19.364  83.229  56.272  1.00  0.00     0.038 C 
HETATM    3  C9  UNL     1      19.357  82.218  57.410  1.00  0.00     0.004 C 
HETATM    4  C10 UNL     1      19.905  82.815  58.679  1.00  0.00     0.027 C 
HETATM    5  C11 UNL     1      21.032  83.766  58.500  1.00  0.00     0.233 C 
HETATM    6  N1  UNL     1      20.962  84.621  57.351  1.00  0.00    -0.067 N 
ATOM      7  H11 UNL     1      20.252  85.348  57.445  1.00  0.00     0.277 HD
ATOM      8  H12 UNL     1      21.773  85.233  57.266  1.00  0.00     0.277 HD
ENDROOT
BRANCH   1   9
HETATM    9  C5  UNL     1      21.151  84.356  54.912  1.00  0.00     0.006 C 
HETATM   10  C6  UNL     1      21.474  83.438  53.952  1.00  0.00     0.111 C 
HETATM   11 CL1  UNL     1      21.485  81.735  54.305  1.00  0.00    -0.070 Cl
HETATM   12 CL2  UNL     1      21.875  84.024  52.365  1.00  0.00    -0.070 Cl
BRANCH   9  13
HETATM   13  C4  UNL     1      21.173  85.722  54.517  1.00  0.00     0.014 C 
HETATM   14  C2  UNL     1      21.807  86.792  54.787  1.00  0.00    -0.087 C 
HETATM   15  C1  UNL     1      21.382  88.053  54.012  1.00  0.00     0.043 C 
HETATM   16  C3  UNL     1      22.919  87.007  55.695  1.00  0.00     0.043 C 
ENDBRANCH   9  13
ENDBRANCH   1   9
TORSDOF 2
ENDMDL
MODEL 4
REMARK VINA RESULT: -6.051762318      2.879      4.771
REMARK  2 active torsions:
REMARK  status: ('A' for Active; 'I' for Inactive)
REMARK    1  A    between atoms: C4_4  and  C5_5 
REMARK    2  A    between atoms: C5_5  and  C7_9 
ROOT
HETATM    1  C7  UNL     1      22.169  85.910  56.191  1.00  0.00     0.221 C 
HETATM    2  C8  UNL     1      23.565  86.474  56.288  1.00  0.00     0.038 C 
HETATM    3  C9  UNL     1      23.570  87.482  57.429  1.00  0.00     0.004 C 
HETATM    4  C10 UNL     1      23.023  86.880  58.695  1.00  0.00     0.027 C 
HETATM    5  C11 UNL     1      21.897  85.928  58.514  1.00  0.00     0.233 C 
HETATM    6  N1  UNL     1      21.969  85.076  57.362  1.00  0.00    -0.067 N 
ATOM      7  H11 UNL     1      22.681  84.350  57.454  1.00  0.00     0.277 HD
ATOM      8  H12 UNL     1      21.159  84.463  57.275  1.00  0.00     0.277 HD
ENDROOT
BRANCH   1   9
HETATM    9  C5  UNL     1      21.780  85.348  54.923  1.00  0.00     0.006 C 
HETATM   10  C6  UNL     1      21.459  86.268  53.965  1.00  0.00     0.111 C 
HETATM   11 CL1  UNL     1      21.449  87.970  54.321  1.00  0.00    -0.070 Cl
HETATM   12 CL2  UNL     1      21.060  85.686  52.377  1.00  0.00    -0.070 Cl
BRANCH   9  13
HETATM   13  C4  UNL     1      21.758  83.983  54.526  1.00  0.00     0.014 C 
HETATM   14  C2  UNL     1      21.126  82.911  54.796  1.00  0.00    -0.087 C 
HETATM   15  C1  UNL     1      21.549  81.653  54.016  1.00  0.00     0.043 C 
HETATM   16  C3  UNL     1      20.019  82.693  55.709  1.00  0.00     0.043 C 
ENDBRANCH   9  13
ENDBRANCH   1   9
TORSDOF 2
ENDMDL
MODEL 5
REMARK VINA RESULT: -5.987236997      1.768      4.840
REMARK  2 active torsions:
REMARK  status: ('A' for Active; 'I' for Inactive)
REMARK    1  A    between atoms: C4_4  and  C5_5 
REMARK    2  A    between atoms: C5_5  and  C7_9 
ROOT
HETATM    1  C7  UNL     1      21.361  84.035  59.224  1.00  0.00     0.221 C 
HETATM    2  C8  UNL     1      21.497  85.243  60.117  1.00  0.00     0.038 C 
HETATM    3  C9  UNL     1      21.199  84.791  61.540  1.00  0.00     0.004 C 
HETATM    4  C10 UNL     1      22.037  83.601  61.924  1.00  0.00     0.027 C 
HETATM    5  C11 UNL     1      22.281  82.617  60.839  1.00  0.00     0.233 C 
HETATM    6  N1  UNL     1      22.479  83.160  59.526  1.00  0.00    -0.067 N 
ATOM      7  H11 UNL     1      23.381  83.624  59.425  1.00  0.00     0.277 HD
ATOM      8  H12 UNL     1      22.615  82.438  58.819  1.00  0.00     0.277 HD
ENDROOT
BRANCH   1   9
HETATM    9  C5  UNL     1      21.094  84.283  57.830  1.00  0.00     0.006 C 
HETATM   10  C6  UNL     1      20.141  83.473  57.279  1.00  0.00     0.111 C 
HETATM   11 CL1  UNL     1      19.402  82.198  58.202  1.00  0.00    -0.070 Cl
HETATM   12 CL2  UNL     1      19.690  83.754  55.624  1.00  0.00    -0.070 Cl
BRANCH   9  13
HETATM   13  C4  UNL     1      21.633  85.293  56.988  1.00  0.00     0.014 C 
HETATM   14  C2  UNL     1      22.478  85.411  56.043  1.00  0.00    -0.087 C 
HETATM   15  C1  UNL     1      22.676  86.827  55.474  1.00  0.00     0.043 C 
HETATM   16  C3  UNL     1      23.269  84.393  55.376  1.00  0.00     0.043 C 
ENDBRANCH   9  13
ENDBRANCH   1   9
TORSDOF 2
ENDMDL
