MODEL 1
REMARK VINA RESULT: -6.799317765      0.000      0.000
REMARK  3 active torsions:
REMARK  status: ('A' for Active; 'I' for Inactive)
REMARK    1  A    between atoms: C2_2  and  N1_3 
REMARK    2  A    between atoms: C2_2  and  C3_8 
REMARK    3  A    between atoms: C4_9  and  C5_10 
ROOT
HETATM    1  C3  UNL     1      21.452  85.682  58.404  1.00  0.00     0.024 C 
HETATM    2  C4  UNL     1      21.939  84.717  57.643  1.00  0.00    -0.018 C 
ENDROOT
BRANCH   2   3
HETATM    3  C5  UNL     1      21.990  84.812  56.161  1.00  0.00    -0.021 C 
HETATM    4  C6  UNL     1      22.893  85.951  55.782  1.00  0.00     0.020 C 
HETATM    5  C7  UNL     1      22.563  83.505  55.574  1.00  0.00     0.039 C 
HETATM    6  C8  UNL     1      21.370  83.086  54.752  1.00  0.00     0.039 C 
HETATM    7 CL2  UNL     1      21.397  81.669  53.834  1.00  0.00    -0.119 Cl
HETATM    8  C9  UNL     1      21.001  84.413  54.072  1.00  0.00     0.031 C 
HETATM    9  C11 UNL     1      20.193  83.384  55.667  1.00  0.00     0.031 C 
HETATM   10  C10 UNL     1      20.663  84.835  55.507  1.00  0.00     0.001 C 
ENDBRANCH   2   3
BRANCH   1  11
HETATM   11  C2  UNL     1      21.409  85.568  59.880  1.00  0.00     0.212 C 
HETATM   12  C1  UNL     1      22.715  85.044  60.453  1.00  0.00     0.068 C 
HETATM   13 CL1  UNL     1      20.045  84.555  60.390  1.00  0.00    -0.084 Cl
BRANCH  11  14
HETATM   14  N1  UNL     1      21.223  86.924  60.413  1.00  0.00    -0.054 N 
ATOM     15  H13 UNL     1      20.840  87.576  59.728  1.00  0.00     0.277 HD
ATOM     16  H12 UNL     1      20.464  86.989  61.091  1.00  0.00     0.277 HD
ATOM     17  H11 UNL     1      22.123  87.221  60.790  1.00  0.00     0.277 HD
ENDBRANCH  11  14
ENDBRANCH   1  11
TORSDOF 3
ENDMDL
MODEL 2
REMARK VINA RESULT: -6.784388641      2.413      3.124
REMARK  3 active torsions:
REMARK  status: ('A' for Active; 'I' for Inactive)
REMARK    1  A    between atoms: C2_2  and  N1_3 
REMARK    2  A    between atoms: C2_2  and  C3_8 
REMARK    3  A    between atoms: C4_9  and  C5_10 
ROOT
HETATM    1  C3  UNL     1      21.426  84.026  58.390  1.00  0.00     0.024 C 
HETATM    2  C4  UNL     1      21.008  85.017  57.623  1.00  0.00    -0.018 C 
ENDROOT
BRANCH   2   3
HETATM    3  C5  UNL     1      20.942  84.914  56.142  1.00  0.00    -0.021 C 
HETATM    4  C6  UNL     1      20.035  83.775  55.778  1.00  0.00     0.020 C 
HETATM    5  C7  UNL     1      20.366  86.219  55.554  1.00  0.00     0.039 C 
HETATM    6  C8  UNL     1      21.551  86.632  54.719  1.00  0.00     0.039 C 
HETATM    7 CL2  UNL     1      21.518  88.044  53.794  1.00  0.00    -0.119 Cl
HETATM    8  C9  UNL     1      21.913  85.302  54.042  1.00  0.00     0.031 C 
HETATM    9  C11 UNL     1      22.736  86.337  55.624  1.00  0.00     0.031 C 
HETATM   10  C10 UNL     1      22.263  84.886  55.476  1.00  0.00     0.001 C 
ENDBRANCH   2   3
BRANCH   1  11
HETATM   11  C2  UNL     1      21.485  84.147  59.865  1.00  0.00     0.212 C 
HETATM   12  C1  UNL     1      20.188  84.685  60.448  1.00  0.00     0.068 C 
HETATM   13 CL1  UNL     1      22.861  85.153  60.356  1.00  0.00    -0.084 Cl
BRANCH  11  14
HETATM   14  N1  UNL     1      21.665  82.793  60.404  1.00  0.00    -0.054 N 
ATOM     15  H13 UNL     1      21.114  82.619  61.245  1.00  0.00     0.277 HD
ATOM     16  H12 UNL     1      21.245  82.069  59.822  1.00  0.00     0.277 HD
ATOM     17  H11 UNL     1      22.667  82.661  60.546  1.00  0.00     0.277 HD
ENDBRANCH  11  14
ENDBRANCH   1  11
TORSDOF 3
ENDMDL
MODEL 3
REMARK VINA RESULT: -6.735579932      2.123      2.857
REMARK  3 active torsions:
REMARK  status: ('A' for Active; 'I' for Inactive)
REMARK    1  A    between atoms: C2_2  and  N1_3 
REMARK    2  A    between atoms: C2_2  and  C3_8 
REMARK    3  A    between atoms: C4_9  and  C5_10 
ROOT
HETATM    1  C3  UNL     1      21.615  84.054  58.381  1.00  0.00     0.024 C 
HETATM    2  C4  UNL     1      21.027  84.973  57.635  1.00  0.00    -0.018 C 
ENDROOT
BRANCH   2   3
HETATM    3  C5  UNL     1      20.959  84.883  56.153  1.00  0.00    -0.021 C 
HETATM    4  C6  UNL     1      20.056  83.743  55.780  1.00  0.00     0.020 C 
HETATM    5  C7  UNL     1      20.376  86.190  55.577  1.00  0.00     0.039 C 
HETATM    6  C8  UNL     1      21.559  86.616  54.744  1.00  0.00     0.039 C 
HETATM    7 CL2  UNL     1      21.517  88.036  53.832  1.00  0.00    -0.119 Cl
HETATM    8  C9  UNL     1      21.925  85.293  54.055  1.00  0.00     0.031 C 
HETATM    9  C11 UNL     1      22.746  86.319  55.645  1.00  0.00     0.031 C 
HETATM   10  C10 UNL     1      22.279  84.867  55.485  1.00  0.00     0.001 C 
ENDBRANCH   2   3
BRANCH   1  11
HETATM   11  C2  UNL     1      21.673  84.162  59.856  1.00  0.00     0.212 C 
HETATM   12  C1  UNL     1      22.139  82.870  60.507  1.00  0.00     0.068 C 
HETATM   13 CL1  UNL     1      20.102  84.664  60.509  1.00  0.00    -0.084 Cl
BRANCH  11  14
HETATM   14  N1  UNL     1      22.675  85.187  60.177  1.00  0.00    -0.054 N 
ATOM     15  H13 UNL     1      23.620  84.812  60.260  1.00  0.00     0.277 HD
ATOM     16  H12 UNL     1      22.857  85.827  59.404  1.00  0.00     0.277 HD
ATOM     17  H11 UNL     1      22.355  85.660  61.022  1.00  0.00     0.277 HD
ENDBRANCH  11  14
ENDBRANCH   1  11
TORSDOF 3
ENDMDL
MODEL 4
REMARK VINA RESULT: -6.709853205      1.109      1.233
REMARK  3 active torsions:
REMARK  status: ('A' for Active; 'I' for Inactive)
REMARK    1  A    between atoms: C2_2  and  N1_3 
REMARK    2  A    between atoms: C2_2  and  C3_8 
REMARK    3  A    between atoms: C4_9  and  C5_10 
ROOT
HETATM    1  C3  UNL     1      21.337  85.666  58.396  1.00  0.00     0.024 C 
HETATM    2  C4  UNL     1      21.931  84.753  57.649  1.00  0.00    -0.018 C 
ENDROOT
BRANCH   2   3
HETATM    3  C5  UNL     1      21.980  84.835  56.166  1.00  0.00    -0.021 C 
HETATM    4  C6  UNL     1      22.868  85.982  55.776  1.00  0.00     0.020 C 
HETATM    5  C7  UNL     1      22.569  83.531  55.590  1.00  0.00     0.039 C 
HETATM    6  C8  UNL     1      21.382  83.090  54.772  1.00  0.00     0.039 C 
HETATM    7 CL2  UNL     1      21.426  81.666  53.866  1.00  0.00    -0.119 Cl
HETATM    8  C9  UNL     1      20.994  84.406  54.081  1.00  0.00     0.031 C 
HETATM    9  C11 UNL     1      20.202  83.380  55.685  1.00  0.00     0.031 C 
HETATM   10  C10 UNL     1      20.652  84.836  55.513  1.00  0.00     0.001 C 
ENDBRANCH   2   3
BRANCH   1  11
HETATM   11  C2  UNL     1      21.298  85.565  59.873  1.00  0.00     0.212 C 
HETATM   12  C1  UNL     1      20.893  86.877  60.526  1.00  0.00     0.068 C 
HETATM   13 CL1  UNL     1      22.857  85.003  60.504  1.00  0.00    -0.084 Cl
BRANCH  11  14
HETATM   14  N1  UNL     1      20.261  84.582  60.213  1.00  0.00    -0.054 N 
ATOM     15  H13 UNL     1      20.195  84.398  61.214  1.00  0.00     0.277 HD
ATOM     16  H12 UNL     1      19.313  84.936  60.084  1.00  0.00     0.277 HD
ATOM     17  H11 UNL     1      20.454  83.745  59.662  1.00  0.00     0.277 HD
ENDBRANCH  11  14
ENDBRANCH   1  11
TORSDOF 3
ENDMDL
MODEL 5
REMARK VINA RESULT: -6.647750776      2.143      2.855
REMARK  3 active torsions:
REMARK  status: ('A' for Active; 'I' for Inactive)
REMARK    1  A    between atoms: C2_2  and  N1_3 
REMARK    2  A    between atoms: C2_2  and  C3_8 
REMARK    3  A    between atoms: C4_9  and  C5_10 
ROOT
HETATM    1  C3  UNL     1      20.975  85.750  58.492  1.00  0.00     0.024 C 
HETATM    2  C4  UNL     1      21.411  84.792  57.694  1.00  0.00    -0.018 C 
ENDROOT
BRANCH   2   3
HETATM    3  C5  UNL     1      21.140  84.777  56.233  1.00  0.00    -0.021 C 
HETATM    4  C6  UNL     1      20.124  83.710  55.943  1.00  0.00     0.020 C 
HETATM    5  C7  UNL     1      20.569  86.141  55.794  1.00  0.00     0.039 C 
HETATM    6  C8  UNL     1      21.653  86.537  54.824  1.00  0.00     0.039 C 
HETATM    7 CL2  UNL     1      21.580  87.999  53.983  1.00  0.00    -0.119 Cl
HETATM    8  C9  UNL     1      21.839  85.230  54.041  1.00  0.00     0.031 C 
HETATM    9  C11 UNL     1      22.930  86.130  55.542  1.00  0.00     0.031 C 
HETATM   10  C10 UNL     1      22.354  84.716  55.390  1.00  0.00     0.001 C 
ENDBRANCH   2   3
BRANCH   1  11
HETATM   11  C2  UNL     1      21.255  85.747  59.946  1.00  0.00     0.212 C 
HETATM   12  C1  UNL     1      20.524  84.627  60.668  1.00  0.00     0.068 C 
HETATM   13 CL1  UNL     1      20.860  87.321  60.663  1.00  0.00    -0.084 Cl
BRANCH  11  14
HETATM   14  N1  UNL     1      22.692  85.493  60.110  1.00  0.00    -0.054 N 
ATOM     15  H13 UNL     1      23.240  86.347  60.222  1.00  0.00     0.277 HD
ATOM     16  H12 UNL     1      22.926  85.071  61.008  1.00  0.00     0.277 HD
ATOM     17  H11 UNL     1      22.986  84.929  59.313  1.00  0.00     0.277 HD
ENDBRANCH  11  14
ENDBRANCH   1  11
TORSDOF 3
ENDMDL
