MODEL 1
REMARK VINA RESULT: -6.894218259      0.000      0.000
REMARK  3 active torsions:
REMARK  status: ('A' for Active; 'I' for Inactive)
REMARK    1  A    between atoms: C9_9  and  C10_10 
REMARK    2  A    between atoms: C10_10  and  N1_11 
REMARK    3  A    between atoms: N1_11  and  C11_14 
ROOT
HETATM    1  C1  UNL     1      20.852  87.180  54.996  1.00  0.00     0.015 C 
HETATM    2  C2  UNL     1      21.046  85.727  55.400  1.00  0.00    -0.043 C 
HETATM    3  C3  UNL     1      22.108  85.135  54.506  1.00  0.00     0.014 C 
HETATM    4  C4  UNL     1      22.223  83.670  54.823  1.00  0.00    -0.013 C 
HETATM    5  C5  UNL     1      20.934  82.928  54.674  1.00  0.00     0.009 C 
HETATM    6  C6  UNL     1      19.914  83.572  55.583  1.00  0.00    -0.013 C 
HETATM    7  C7  UNL     1      19.759  85.008  55.132  1.00  0.00     0.014 C 
HETATM    8  C8  UNL     1      20.307  83.519  57.033  1.00  0.00     0.015 C 
HETATM    9  C9  UNL     1      21.658  84.166  57.183  1.00  0.00    -0.015 C 
HETATM   10  C12 UNL     1      22.675  83.534  56.261  1.00  0.00     0.015 C 
HETATM   11  C13 UNL     1      21.506  85.628  56.828  1.00  0.00     0.020 C 
ENDROOT
BRANCH   9  12
HETATM   12  C10 UNL     1      22.137  83.972  58.597  1.00  0.00     0.248 C 
BRANCH  12  13
HETATM   13  N1  UNL     1      21.602  84.958  59.511  1.00  0.00    -0.016 N 
ATOM     14  H12 UNL     1      22.310  85.587  59.889  1.00  0.00     0.283 HD
ATOM     15  H11 UNL     1      21.035  85.671  59.052  1.00  0.00     0.283 HD
BRANCH  13  16
HETATM   16  C11 UNL     1      20.877  84.208  60.542  1.00  0.00     0.548 C 
HETATM   17  F1  UNL     1      21.239  82.872  60.537  1.00  0.00    -0.183 F 
HETATM   18  F2  UNL     1      19.521  84.288  60.382  1.00  0.00    -0.183 F 
ENDBRANCH  13  16
ENDBRANCH  12  13
ENDBRANCH   9  12
TORSDOF 3
ENDMDL
MODEL 2
REMARK VINA RESULT: -6.864397385      1.643      3.075
REMARK  3 active torsions:
REMARK  status: ('A' for Active; 'I' for Inactive)
REMARK    1  A    between atoms: C9_9  and  C10_10 
REMARK    2  A    between atoms: C10_10  and  N1_11 
REMARK    3  A    between atoms: N1_11  and  C11_14 
ROOT
HETATM    1  C1  UNL     1      22.058  82.568  55.032  1.00  0.00     0.015 C 
HETATM    2  C2  UNL     1      21.869  84.025  55.428  1.00  0.00    -0.043 C 
HETATM    3  C3  UNL     1      20.815  84.617  54.524  1.00  0.00     0.014 C 
HETATM    4  C4  UNL     1      20.705  86.084  54.834  1.00  0.00    -0.013 C 
HETATM    5  C5  UNL     1      21.998  86.819  54.688  1.00  0.00     0.009 C 
HETATM    6  C6  UNL     1      23.010  86.175  55.606  1.00  0.00    -0.013 C 
HETATM    7  C7  UNL     1      23.160  84.736  55.164  1.00  0.00     0.014 C 
HETATM    8  C8  UNL     1      22.608  86.238  57.053  1.00  0.00     0.015 C 
HETATM    9  C9  UNL     1      21.254  85.598  57.199  1.00  0.00    -0.015 C 
HETATM   10  C12 UNL     1      20.245  86.229  56.268  1.00  0.00     0.015 C 
HETATM   11  C13 UNL     1      21.401  84.133  56.853  1.00  0.00     0.020 C 
ENDROOT
BRANCH   9  12
HETATM   12  C10 UNL     1      20.768  85.802  58.609  1.00  0.00     0.248 C 
BRANCH  12  13
HETATM   13  N1  UNL     1      21.249  84.787  59.521  1.00  0.00    -0.016 N 
ATOM     14  H12 UNL     1      20.508  84.204  59.907  1.00  0.00     0.283 HD
ATOM     15  H11 UNL     1      21.768  84.039  59.059  1.00  0.00     0.283 HD
BRANCH  13  16
HETATM   16  C11 UNL     1      22.029  85.494  60.544  1.00  0.00     0.548 C 
HETATM   17  F1  UNL     1      21.705  86.839  60.579  1.00  0.00    -0.183 F 
HETATM   18  F2  UNL     1      23.376  85.380  60.337  1.00  0.00    -0.183 F 
ENDBRANCH  13  16
ENDBRANCH  12  13
ENDBRANCH   9  12
TORSDOF 3
ENDMDL
MODEL 3
REMARK VINA RESULT: -6.800380711      1.425      1.618
REMARK  3 active torsions:
REMARK  status: ('A' for Active; 'I' for Inactive)
REMARK    1  A    between atoms: C9_9  and  C10_10 
REMARK    2  A    between atoms: C10_10  and  N1_11 
REMARK    3  A    between atoms: N1_11  and  C11_14 
ROOT
HETATM    1  C1  UNL     1      21.985  87.271  54.834  1.00  0.00     0.015 C 
HETATM    2  C2  UNL     1      21.842  85.829  55.298  1.00  0.00    -0.043 C 
HETATM    3  C3  UNL     1      23.190  85.164  55.165  1.00  0.00     0.014 C 
HETATM    4  C4  UNL     1      23.030  83.711  55.513  1.00  0.00    -0.013 C 
HETATM    5  C5  UNL     1      22.011  83.009  54.674  1.00  0.00     0.009 C 
HETATM    6  C6  UNL     1      20.692  83.725  54.842  1.00  0.00    -0.013 C 
HETATM    7  C7  UNL     1      20.892  85.146  54.362  1.00  0.00     0.014 C 
HETATM    8  C8  UNL     1      20.199  83.717  56.262  1.00  0.00     0.015 C 
HETATM    9  C9  UNL     1      21.264  84.322  57.137  1.00  0.00    -0.015 C 
HETATM   10  C12 UNL     1      22.589  83.618  56.958  1.00  0.00     0.015 C 
HETATM   11  C13 UNL     1      21.414  85.773  56.738  1.00  0.00     0.020 C 
ENDROOT
BRANCH   9  12
HETATM   12  C10 UNL     1      20.855  84.170  58.578  1.00  0.00     0.248 C 
BRANCH  12  13
HETATM   13  N1  UNL     1      21.981  83.981  59.466  1.00  0.00    -0.016 N 
ATOM     14  H12 UNL     1      21.904  83.148  60.048  1.00  0.00     0.283 HD
ATOM     15  H11 UNL     1      22.840  83.716  58.982  1.00  0.00     0.283 HD
BRANCH  13  16
HETATM   16  C11 UNL     1      22.105  85.223  60.238  1.00  0.00     0.548 C 
HETATM   17  F1  UNL     1      20.939  85.966  60.181  1.00  0.00    -0.183 F 
HETATM   18  F2  UNL     1      23.136  86.006  59.797  1.00  0.00    -0.183 F 
ENDBRANCH  13  16
ENDBRANCH  12  13
ENDBRANCH   9  12
TORSDOF 3
ENDMDL
MODEL 4
REMARK VINA RESULT: -6.795098357      0.956      2.633
REMARK  3 active torsions:
REMARK  status: ('A' for Active; 'I' for Inactive)
REMARK    1  A    between atoms: C9_9  and  C10_10 
REMARK    2  A    between atoms: C10_10  and  N1_11 
REMARK    3  A    between atoms: N1_11  and  C11_14 
ROOT
HETATM    1  C1  UNL     1      20.938  82.421  54.862  1.00  0.00     0.015 C 
HETATM    2  C2  UNL     1      21.087  83.866  55.313  1.00  0.00    -0.043 C 
HETATM    3  C3  UNL     1      19.743  84.537  55.166  1.00  0.00     0.014 C 
HETATM    4  C4  UNL     1      19.909  85.993  55.500  1.00  0.00    -0.013 C 
HETATM    5  C5  UNL     1      20.936  86.681  54.660  1.00  0.00     0.009 C 
HETATM    6  C6  UNL     1      22.251  85.959  54.842  1.00  0.00    -0.013 C 
HETATM    7  C7  UNL     1      22.045  84.535  54.375  1.00  0.00     0.014 C 
HETATM    8  C8  UNL     1      22.736  85.978  56.264  1.00  0.00     0.015 C 
HETATM    9  C9  UNL     1      21.663  85.388  57.140  1.00  0.00    -0.015 C 
HETATM   10  C12 UNL     1      20.344  86.098  56.946  1.00  0.00     0.015 C 
HETATM   11  C13 UNL     1      21.507  83.934  56.754  1.00  0.00     0.020 C 
ENDROOT
BRANCH   9  12
HETATM   12  C10 UNL     1      22.066  85.552  58.582  1.00  0.00     0.248 C 
BRANCH  12  13
HETATM   13  N1  UNL     1      20.936  85.765  59.460  1.00  0.00    -0.016 N 
ATOM     14  H12 UNL     1      21.011  86.616  60.017  1.00  0.00     0.283 HD
ATOM     15  H11 UNL     1      20.079  86.015  58.965  1.00  0.00     0.283 HD
BRANCH  13  16
HETATM   16  C11 UNL     1      20.812  84.547  60.268  1.00  0.00     0.548 C 
HETATM   17  F1  UNL     1      21.983  83.809  60.245  1.00  0.00    -0.183 F 
HETATM   18  F2  UNL     1      19.789  83.746  59.842  1.00  0.00    -0.183 F 
ENDBRANCH  13  16
ENDBRANCH  12  13
ENDBRANCH   9  12
TORSDOF 3
ENDMDL
MODEL 5
REMARK VINA RESULT: -6.684328451      2.563      3.561
REMARK  3 active torsions:
REMARK  status: ('A' for Active; 'I' for Inactive)
REMARK    1  A    between atoms: C9_9  and  C10_10 
REMARK    2  A    between atoms: C10_10  and  N1_11 
REMARK    3  A    between atoms: N1_11  and  C11_14 
ROOT
HETATM    1  C1  UNL     1      19.544  82.788  56.785  1.00  0.00     0.015 C 
HETATM    2  C2  UNL     1      20.488  83.597  55.909  1.00  0.00    -0.043 C 
HETATM    3  C3  UNL     1      19.676  84.665  55.217  1.00  0.00     0.014 C 
HETATM    4  C4  UNL     1      20.580  85.394  54.263  1.00  0.00    -0.013 C 
HETATM    5  C5  UNL     1      21.234  84.497  53.263  1.00  0.00     0.009 C 
HETATM    6  C6  UNL     1      22.020  83.450  54.015  1.00  0.00    -0.013 C 
HETATM    7  C7  UNL     1      21.033  82.676  54.862  1.00  0.00     0.014 C 
HETATM    8  C8  UNL     1      23.101  84.037  54.878  1.00  0.00     0.015 C 
HETATM    9  C9  UNL     1      22.471  85.028  55.820  1.00  0.00    -0.015 C 
HETATM   10  C12 UNL     1      21.670  86.067  55.070  1.00  0.00     0.015 C 
HETATM   11  C13 UNL     1      21.550  84.260  56.741  1.00  0.00     0.020 C 
ENDROOT
BRANCH   9  12
HETATM   12  C10 UNL     1      23.560  85.744  56.574  1.00  0.00     0.248 C 
BRANCH  12  13
HETATM   13  N1  UNL     1      23.410  87.182  56.548  1.00  0.00    -0.016 N 
ATOM     14  H12 UNL     1      24.079  87.649  55.937  1.00  0.00     0.283 HD
ATOM     15  H11 UNL     1      22.564  87.494  56.068  1.00  0.00     0.283 HD
BRANCH  13  16
HETATM   16  C11 UNL     1      23.485  87.626  57.945  1.00  0.00     0.548 C 
HETATM   17  F1  UNL     1      24.780  87.972  58.290  1.00  0.00    -0.183 F 
HETATM   18  F2  UNL     1      23.048  86.667  58.816  1.00  0.00    -0.183 F 
ENDBRANCH  13  16
ENDBRANCH  12  13
ENDBRANCH   9  12
TORSDOF 3
ENDMDL
