MODEL 1
REMARK VINA RESULT: -7.269067818      0.000      0.000
REMARK  2 active torsions:
REMARK  status: ('A' for Active; 'I' for Inactive)
REMARK    1  A    between atoms: N1_2  and  C2_5 
REMARK    2  A    between atoms: C2_5  and  C3_6 
ROOT
HETATM    1  C3  UNL     1      21.411  84.705  54.138  1.00  0.00    -0.013 C 
HETATM    2  C4  UNL     1      20.205  84.550  54.986  1.00  0.00     0.017 C 
HETATM    3  C5  UNL     1      20.296  85.549  56.125  1.00  0.00     0.008 C 
HETATM    4  C6  UNL     1      20.307  86.973  55.615  1.00  0.00     0.049 C 
HETATM    5  C7  UNL     1      21.506  87.141  54.713  1.00  0.00     0.105 C 
HETATM    6  F1  UNL     1      21.542  88.390  54.143  1.00  0.00    -0.243 F 
HETATM    7  C8  UNL     1      22.739  86.922  55.564  1.00  0.00     0.049 C 
HETATM    8  C9  UNL     1      22.746  85.524  56.091  1.00  0.00     0.008 C 
HETATM    9  C10 UNL     1      22.707  84.569  54.914  1.00  0.00     0.017 C 
HETATM   10  C11 UNL     1      21.525  85.252  56.929  1.00  0.00     0.090 C 
HETATM   11 CL1  UNL     1      21.572  86.152  58.445  1.00  0.00    -0.124 Cl
HETATM   12  C12 UNL     1      21.392  86.134  53.595  1.00  0.00     0.054 C 
ENDROOT
BRANCH   1  13
HETATM   13  C2  UNL     1      21.478  83.790  52.954  1.00  0.00     0.241 C 
BRANCH  13  14
HETATM   14  N1  UNL     1      22.186  82.564  53.188  1.00  0.00    -0.078 N 
HETATM   15  C1  UNL     1      21.330  81.579  53.786  1.00  0.00     0.267 C 
ATOM     16  H12 UNL     1      23.028  82.717  53.743  1.00  0.00     0.276 HD
ATOM     17  H11 UNL     1      22.624  82.214  52.335  1.00  0.00     0.276 HD
ENDBRANCH  13  14
ENDBRANCH   1  13
TORSDOF 2
ENDMDL
MODEL 2
REMARK VINA RESULT: -7.258836056      2.534      3.929
REMARK  2 active torsions:
REMARK  status: ('A' for Active; 'I' for Inactive)
REMARK    1  A    between atoms: N1_2  and  C2_5 
REMARK    2  A    between atoms: C2_5  and  C3_6 
ROOT
HETATM    1  C3  UNL     1      21.526  84.998  54.132  1.00  0.00    -0.013 C 
HETATM    2  C4  UNL     1      22.732  85.151  54.980  1.00  0.00     0.017 C 
HETATM    3  C5  UNL     1      22.639  84.152  56.119  1.00  0.00     0.008 C 
HETATM    4  C6  UNL     1      22.625  82.729  55.610  1.00  0.00     0.049 C 
HETATM    5  C7  UNL     1      21.426  82.563  54.708  1.00  0.00     0.105 C 
HETATM    6  F1  UNL     1      21.387  81.314  54.138  1.00  0.00    -0.243 F 
HETATM    7  C8  UNL     1      20.193  82.785  55.558  1.00  0.00     0.049 C 
HETATM    8  C9  UNL     1      20.189  84.182  56.085  1.00  0.00     0.008 C 
HETATM    9  C10 UNL     1      20.230  85.137  54.908  1.00  0.00     0.017 C 
HETATM   10  C11 UNL     1      21.411  84.453  56.923  1.00  0.00     0.090 C 
HETATM   11 CL1  UNL     1      21.361  83.553  58.440  1.00  0.00    -0.124 Cl
HETATM   12  C12 UNL     1      21.542  83.570  53.589  1.00  0.00     0.054 C 
ENDROOT
BRANCH   1  13
HETATM   13  C2  UNL     1      21.461  85.913  52.948  1.00  0.00     0.241 C 
BRANCH  13  14
HETATM   14  N1  UNL     1      20.744  87.135  53.178  1.00  0.00    -0.078 N 
HETATM   15  C1  UNL     1      21.592  88.125  53.780  1.00  0.00     0.267 C 
ATOM     16  H12 UNL     1      19.900  86.977  53.729  1.00  0.00     0.276 HD
ATOM     17  H11 UNL     1      20.309  87.482  52.323  1.00  0.00     0.276 HD
ENDBRANCH  13  14
ENDBRANCH   1  13
TORSDOF 2
ENDMDL
MODEL 3
REMARK VINA RESULT: -7.158798461      2.872      3.895
REMARK  2 active torsions:
REMARK  status: ('A' for Active; 'I' for Inactive)
REMARK    1  A    between atoms: N1_2  and  C2_5 
REMARK    2  A    between atoms: C2_5  and  C3_6 
ROOT
HETATM    1  C3  UNL     1      20.891  84.316  56.846  1.00  0.00    -0.013 C 
HETATM    2  C4  UNL     1      20.019  84.313  55.647  1.00  0.00     0.017 C 
HETATM    3  C5  UNL     1      20.700  85.133  54.566  1.00  0.00     0.008 C 
HETATM    4  C6  UNL     1      22.025  84.527  54.161  1.00  0.00     0.049 C 
HETATM    5  C7  UNL     1      22.914  84.480  55.380  1.00  0.00     0.105 C 
HETATM    6  F1  UNL     1      24.113  83.865  55.112  1.00  0.00    -0.243 F 
HETATM    7  C8  UNL     1      23.150  85.911  55.816  1.00  0.00     0.049 C 
HETATM    8  C9  UNL     1      21.853  86.538  56.210  1.00  0.00     0.008 C 
HETATM    9  C10 UNL     1      21.242  85.711  57.325  1.00  0.00     0.017 C 
HETATM   10  C11 UNL     1      20.875  86.535  55.064  1.00  0.00     0.090 C 
HETATM   11 CL1  UNL     1      21.378  87.646  53.789  1.00  0.00    -0.124 Cl
HETATM   12  C12 UNL     1      22.211  83.664  56.438  1.00  0.00     0.054 C 
ENDROOT
BRANCH   1  13
HETATM   13  C2  UNL     1      20.366  83.540  58.015  1.00  0.00     0.241 C 
BRANCH  13  14
HETATM   14  N1  UNL     1      20.715  84.083  59.296  1.00  0.00    -0.078 N 
HETATM   15  C1  UNL     1      21.316  83.083  60.134  1.00  0.00     0.267 C 
ATOM     16  H12 UNL     1      19.914  84.522  59.749  1.00  0.00     0.276 HD
ATOM     17  H11 UNL     1      21.313  84.905  59.205  1.00  0.00     0.276 HD
ENDBRANCH  13  14
ENDBRANCH   1  13
TORSDOF 2
ENDMDL
MODEL 4
REMARK VINA RESULT: -7.152259711      2.910      4.351
REMARK  2 active torsions:
REMARK  status: ('A' for Active; 'I' for Inactive)
REMARK    1  A    between atoms: N1_2  and  C2_5 
REMARK    2  A    between atoms: C2_5  and  C3_6 
ROOT
HETATM    1  C3  UNL     1      22.039  85.381  56.828  1.00  0.00    -0.013 C 
HETATM    2  C4  UNL     1      22.919  85.370  55.635  1.00  0.00     0.017 C 
HETATM    3  C5  UNL     1      22.245  84.543  54.556  1.00  0.00     0.008 C 
HETATM    4  C6  UNL     1      20.924  85.147  54.136  1.00  0.00     0.049 C 
HETATM    5  C7  UNL     1      20.026  85.208  55.349  1.00  0.00     0.105 C 
HETATM    6  F1  UNL     1      18.831  85.823  55.066  1.00  0.00    -0.243 F 
HETATM    7  C8  UNL     1      19.784  83.782  55.796  1.00  0.00     0.049 C 
HETATM    8  C9  UNL     1      21.077  83.155  56.205  1.00  0.00     0.008 C 
HETATM    9  C10 UNL     1      21.682  83.990  57.317  1.00  0.00     0.017 C 
HETATM   10  C11 UNL     1      22.063  83.145  55.066  1.00  0.00     0.090 C 
HETATM   11 CL1  UNL     1      21.567  82.024  53.798  1.00  0.00    -0.124 Cl
HETATM   12  C12 UNL     1      20.723  86.031  56.404  1.00  0.00     0.054 C 
ENDROOT
BRANCH   1  13
HETATM   13  C2  UNL     1      22.558  86.166  57.993  1.00  0.00     0.241 C 
BRANCH  13  14
HETATM   14  N1  UNL     1      22.251  85.601  59.276  1.00  0.00    -0.078 N 
HETATM   15  C1  UNL     1      21.618  86.567  60.128  1.00  0.00     0.267 C 
ATOM     16  H12 UNL     1      23.078  85.197  59.716  1.00  0.00     0.276 HD
ATOM     17  H11 UNL     1      21.691  84.752  59.189  1.00  0.00     0.276 HD
ENDBRANCH  13  14
ENDBRANCH   1  13
TORSDOF 2
ENDMDL
MODEL 5
REMARK VINA RESULT: -6.903446895      3.049      4.327
REMARK  2 active torsions:
REMARK  status: ('A' for Active; 'I' for Inactive)
REMARK    1  A    between atoms: N1_2  and  C2_5 
REMARK    2  A    between atoms: C2_5  and  C3_6 
ROOT
HETATM    1  C3  UNL     1      22.094  85.801  55.591  1.00  0.00    -0.013 C 
HETATM    2  C4  UNL     1      21.109  85.716  54.488  1.00  0.00     0.017 C 
HETATM    3  C5  UNL     1      20.666  84.270  54.359  1.00  0.00     0.008 C 
HETATM    4  C6  UNL     1      19.978  83.785  55.615  1.00  0.00     0.049 C 
HETATM    5  C7  UNL     1      20.952  83.905  56.762  1.00  0.00     0.105 C 
HETATM    6  F1  UNL     1      20.373  83.559  57.958  1.00  0.00    -0.243 F 
HETATM    7  C8  UNL     1      22.113  82.981  56.459  1.00  0.00     0.049 C 
HETATM    8  C9  UNL     1      22.804  83.430  55.214  1.00  0.00     0.008 C 
HETATM    9  C10 UNL     1      23.270  84.859  55.415  1.00  0.00     0.017 C 
HETATM   10  C11 UNL     1      21.863  83.428  54.038  1.00  0.00     0.090 C 
HETATM   11 CL1  UNL     1      21.425  81.785  53.569  1.00  0.00    -0.124 Cl
HETATM   12  C12 UNL     1      21.377  85.349  56.863  1.00  0.00     0.054 C 
ENDROOT
BRANCH   1  13
HETATM   13  C2  UNL     1      22.632  87.173  55.859  1.00  0.00     0.241 C 
BRANCH  13  14
HETATM   14  N1  UNL     1      23.884  87.196  56.559  1.00  0.00    -0.078 N 
HETATM   15  C1  UNL     1      23.717  87.679  57.901  1.00  0.00     0.267 C 
ATOM     16  H12 UNL     1      24.589  87.732  56.052  1.00  0.00     0.276 HD
ATOM     17  H11 UNL     1      24.341  86.284  56.542  1.00  0.00     0.276 HD
ENDBRANCH  13  14
ENDBRANCH   1  13
TORSDOF 2
ENDMDL
