MODEL 1
REMARK VINA RESULT: -10.299575791      0.000      0.000
REMARK  4 active torsions:
REMARK  status: ('A' for Active; 'I' for Inactive)
REMARK    1  A    between atoms: C2_2  and  C15_18 
REMARK    2  A    between atoms: C3_3  and  C4_4 
REMARK    3  A    between atoms: C4_4  and  C5_5 
REMARK    4  A    between atoms: C10_10  and  O1_11 
ROOT
HETATM    1  C1  UNL     1      14.159  -0.888  28.792  1.00  0.00     0.048 C 
HETATM    2  C2  UNL     1      13.125  -1.758  29.369  1.00  0.00    -0.064 C 
HETATM    3  C3  UNL     1      12.016  -1.252  29.918  1.00  0.00    -0.019 C 
ENDROOT
BRANCH   3   4
HETATM    4  C4  UNL     1      11.665   0.174  30.026  1.00  0.00     0.040 C 
BRANCH   4   5
HETATM    5  C5  UNL     1      10.178   0.299  29.765  1.00  0.00     0.059 C 
HETATM    6  C6  UNL     1       9.342  -0.517  30.685  1.00  0.00     0.013 C 
HETATM    7  C7  UNL     1       8.985   0.131  31.974  1.00  0.00     0.013 C 
HETATM    8  C8  UNL     1       8.752   1.590  31.923  1.00  0.00    -0.008 C 
HETATM    9  C9  UNL     1       9.879   2.418  32.506  1.00  0.00     0.018 C 
HETATM   10  C10 UNL     1       7.474   2.064  32.543  1.00  0.00     0.127 C 
HETATM   11  C13 UNL     1       8.495   2.016  30.468  1.00  0.00     0.066 C 
HETATM   12  C11 UNL     1       7.300   3.433  31.915  1.00  0.00     0.033 C 
HETATM   13  C12 UNL     1       8.169   3.451  30.669  1.00  0.00     0.015 C 
HETATM   14  C14 UNL     1       9.752   1.749  29.748  1.00  0.00     0.136 C 
HETATM   15  O2  UNL     1      10.426   2.560  29.178  1.00  0.00    -0.297 OA
BRANCH  10  16
HETATM   16  O1  UNL     1       7.513   2.116  33.928  1.00  0.00    -0.395 OA
ATOM     17  H1  UNL     1       7.336   2.980  34.283  1.00  0.00     0.210 HD
ENDBRANCH  10  16
ENDBRANCH   4   5
ENDBRANCH   3   4
BRANCH   2  18
HETATM   18  C15 UNL     1      13.264  -3.205  29.385  1.00  0.00     0.031 C 
HETATM   19  C16 UNL     1      14.209  -3.967  28.967  1.00  0.00     0.009 C 
HETATM   20  C17 UNL     1      14.055  -5.463  29.136  1.00  0.00     0.057 C 
HETATM   21  N1  UNL     1      15.409  -3.529  28.309  1.00  0.00    -0.361 N 
HETATM   22  C18 UNL     1      15.370  -6.166  29.165  1.00  0.00     0.012 C 
HETATM   23  C19 UNL     1      16.538  -5.309  29.581  1.00  0.00     0.060 C 
HETATM   24  C20 UNL     1      16.644  -4.090  28.729  1.00  0.00     0.043 C 
HETATM   25  C21 UNL     1      17.782  -3.535  28.362  1.00  0.00     0.125 C 
HETATM   26 CL1  UNL     1      19.309  -4.227  28.877  1.00  0.00    -0.069 Cl
HETATM   27 CL2  UNL     1      17.777  -2.103  27.358  1.00  0.00    -0.069 Cl
ATOM     28  H1  UNL     1      15.374  -2.835  27.563  1.00  0.00     0.165 HD
ENDBRANCH   2  18
TORSDOF 4
ENDMDL
MODEL 2
REMARK VINA RESULT: -10.056127560      4.857      9.644
REMARK  4 active torsions:
REMARK  status: ('A' for Active; 'I' for Inactive)
REMARK    1  A    between atoms: C2_2  and  C15_18 
REMARK    2  A    between atoms: C3_3  and  C4_4 
REMARK    3  A    between atoms: C4_4  and  C5_5 
REMARK    4  A    between atoms: C10_10  and  O1_11 
ROOT
HETATM    1  C1  UNL     1      11.174  -0.152  31.668  1.00  0.00     0.048 C 
HETATM    2  C2  UNL     1      11.392   0.083  30.235  1.00  0.00    -0.064 C 
HETATM    3  C3  UNL     1      12.288  -0.625  29.541  1.00  0.00    -0.019 C 
ENDROOT
BRANCH   3   4
HETATM    4  C4  UNL     1      13.153  -1.696  30.066  1.00  0.00     0.040 C 
BRANCH   4   5
HETATM    5  C5  UNL     1      13.751  -2.422  28.878  1.00  0.00     0.059 C 
HETATM    6  C6  UNL     1      14.881  -1.693  28.243  1.00  0.00     0.013 C 
HETATM    7  C7  UNL     1      16.221  -1.943  28.838  1.00  0.00     0.013 C 
HETATM    8  C8  UNL     1      16.462  -3.311  29.340  1.00  0.00    -0.008 C 
HETATM    9  C9  UNL     1      16.431  -3.431  30.850  1.00  0.00     0.018 C 
HETATM   10  C10 UNL     1      17.721  -3.965  28.860  1.00  0.00     0.127 C 
HETATM   11  C13 UNL     1      15.432  -4.272  28.722  1.00  0.00     0.066 C 
HETATM   12  C11 UNL     1      17.440  -5.433  29.115  1.00  0.00     0.033 C 
HETATM   13  C12 UNL     1      15.933  -5.567  29.251  1.00  0.00     0.015 C 
HETATM   14  C14 UNL     1      14.124  -3.841  29.243  1.00  0.00     0.136 C 
HETATM   15  O2  UNL     1      13.373  -4.501  29.903  1.00  0.00    -0.297 OA
BRANCH  10  16
HETATM   16  O1  UNL     1      18.862  -3.521  29.511  1.00  0.00    -0.395 OA
ATOM     17  H1  UNL     1      19.465  -3.051  28.948  1.00  0.00     0.210 HD
ENDBRANCH  10  16
ENDBRANCH   4   5
ENDBRANCH   3   4
BRANCH   2  18
HETATM   18  C15 UNL     1      10.657   1.104  29.506  1.00  0.00     0.031 C 
HETATM   19  C16 UNL     1       9.514   1.645  29.731  1.00  0.00     0.009 C 
HETATM   20  C17 UNL     1       9.017   2.703  28.771  1.00  0.00     0.057 C 
HETATM   21  N1  UNL     1       8.628   1.310  30.811  1.00  0.00    -0.361 N 
HETATM   22  C18 UNL     1       8.033   3.626  29.408  1.00  0.00     0.012 C 
HETATM   23  C19 UNL     1       8.131   3.719  30.909  1.00  0.00     0.060 C 
HETATM   24  C20 UNL     1       8.032   2.372  31.541  1.00  0.00     0.043 C 
HETATM   25  C21 UNL     1       7.442   2.134  32.695  1.00  0.00     0.125 C 
HETATM   26 CL1  UNL     1       6.704   3.444  33.598  1.00  0.00    -0.069 Cl
HETATM   27 CL2  UNL     1       7.391   0.507  33.335  1.00  0.00    -0.069 Cl
ATOM     28  H1  UNL     1       8.433   0.337  31.046  1.00  0.00     0.165 HD
ENDBRANCH   2  18
TORSDOF 4
ENDMDL
MODEL 3
REMARK VINA RESULT: -9.404103026      6.381      8.122
REMARK  4 active torsions:
REMARK  status: ('A' for Active; 'I' for Inactive)
REMARK    1  A    between atoms: C2_2  and  C15_18 
REMARK    2  A    between atoms: C3_3  and  C4_4 
REMARK    3  A    between atoms: C4_4  and  C5_5 
REMARK    4  A    between atoms: C10_10  and  O1_11 
ROOT
HETATM    1  C1  UNL     1       8.894  -0.127  34.754  1.00  0.00     0.048 C 
HETATM    2  C2  UNL     1       9.822   0.330  33.711  1.00  0.00    -0.064 C 
HETATM    3  C3  UNL     1      10.864   1.115  34.001  1.00  0.00    -0.019 C 
ENDROOT
BRANCH   3   4
HETATM    4  C4  UNL     1      11.235   1.619  35.334  1.00  0.00     0.040 C 
BRANCH   4   5
HETATM    5  C5  UNL     1      10.916   3.099  35.367  1.00  0.00     0.059 C 
HETATM    6  C6  UNL     1       9.663   3.454  34.648  1.00  0.00     0.013 C 
HETATM    7  C7  UNL     1       8.414   3.353  35.447  1.00  0.00     0.013 C 
HETATM    8  C8  UNL     1       8.528   3.712  36.876  1.00  0.00    -0.008 C 
HETATM    9  C9  UNL     1       8.516   2.524  37.816  1.00  0.00     0.018 C 
HETATM   10  C10 UNL     1       7.519   4.697  37.379  1.00  0.00     0.127 C 
HETATM   11  C13 UNL     1       9.809   4.534  37.096  1.00  0.00     0.066 C 
HETATM   12  C11 UNL     1       8.174   5.213  38.645  1.00  0.00     0.033 C 
HETATM   13  C12 UNL     1       9.653   4.882  38.532  1.00  0.00     0.015 C 
HETATM   14  C14 UNL     1      10.923   3.624  36.785  1.00  0.00     0.136 C 
HETATM   15  O2  UNL     1      11.792   3.286  37.538  1.00  0.00    -0.297 OA
BRANCH  10  16
HETATM   16  O1  UNL     1       6.269   4.143  37.615  1.00  0.00    -0.395 OA
ATOM     17  H1  UNL     1       5.938   4.307  38.490  1.00  0.00     0.210 HD
ENDBRANCH  10  16
ENDBRANCH   4   5
ENDBRANCH   3   4
BRANCH   2  18
HETATM   18  C15 UNL     1       9.644  -0.034  32.315  1.00  0.00     0.031 C 
HETATM   19  C16 UNL     1       9.090   0.595  31.342  1.00  0.00     0.009 C 
HETATM   20  C17 UNL     1       9.070  -0.062  29.979  1.00  0.00     0.057 C 
HETATM   21  N1  UNL     1       8.443   1.874  31.433  1.00  0.00    -0.361 N 
HETATM   22  C18 UNL     1       8.950   0.934  28.875  1.00  0.00     0.012 C 
HETATM   23  C19 UNL     1       9.422   2.323  29.220  1.00  0.00     0.060 C 
HETATM   24  C20 UNL     1       8.732   2.842  30.435  1.00  0.00     0.043 C 
HETATM   25  C21 UNL     1       8.391   4.103  30.616  1.00  0.00     0.125 C 
HETATM   26 CL1  UNL     1       8.745   5.299  29.383  1.00  0.00    -0.069 Cl
HETATM   27 CL2  UNL     1       7.583   4.590  32.088  1.00  0.00    -0.069 Cl
ATOM     28  H1  UNL     1       7.795   2.081  32.193  1.00  0.00     0.165 HD
ENDBRANCH   2  18
TORSDOF 4
ENDMDL
MODEL 4
REMARK VINA RESULT: -9.350380350      7.014      9.832
REMARK  4 active torsions:
REMARK  status: ('A' for Active; 'I' for Inactive)
REMARK    1  A    between atoms: C2_2  and  C15_18 
REMARK    2  A    between atoms: C3_3  and  C4_4 
REMARK    3  A    between atoms: C4_4  and  C5_5 
REMARK    4  A    between atoms: C10_10  and  O1_11 
ROOT
HETATM    1  C1  UNL     1       9.035   0.309  35.062  1.00  0.00     0.048 C 
HETATM    2  C2  UNL     1       9.485   1.676  34.767  1.00  0.00    -0.064 C 
HETATM    3  C3  UNL     1      10.017   1.993  33.582  1.00  0.00    -0.019 C 
ENDROOT
BRANCH   3   4
HETATM    4  C4  UNL     1      10.225   1.082  32.445  1.00  0.00     0.040 C 
BRANCH   4   5
HETATM    5  C5  UNL     1       8.971   1.118  31.595  1.00  0.00     0.059 C 
HETATM    6  C6  UNL     1       8.195   2.380  31.734  1.00  0.00     0.013 C 
HETATM    7  C7  UNL     1       8.612   3.492  30.840  1.00  0.00     0.013 C 
HETATM    8  C8  UNL     1       9.080   3.100  29.494  1.00  0.00    -0.008 C 
HETATM    9  C9  UNL     1      10.582   3.186  29.310  1.00  0.00     0.018 C 
HETATM   10  C10 UNL     1       8.442   3.825  28.350  1.00  0.00     0.127 C 
HETATM   11  C13 UNL     1       8.601   1.672  29.181  1.00  0.00     0.066 C 
HETATM   12  C11 UNL     1       8.732   2.903  27.181  1.00  0.00     0.033 C 
HETATM   13  C12 UNL     1       9.061   1.544  27.774  1.00  0.00     0.015 C 
HETATM   14  C14 UNL     1       9.285   0.802  30.151  1.00  0.00     0.136 C 
HETATM   15  O2  UNL     1      10.036  -0.095  29.890  1.00  0.00    -0.297 OA
BRANCH  10  16
HETATM   16  O1  UNL     1       8.941   5.105  28.153  1.00  0.00    -0.395 OA
ATOM     17  H1  UNL     1       9.880   5.131  28.011  1.00  0.00     0.210 HD
ENDBRANCH  10  16
ENDBRANCH   4   5
ENDBRANCH   3   4
BRANCH   2  18
HETATM   18  C15 UNL     1       9.388   2.743  35.750  1.00  0.00     0.031 C 
HETATM   19  C16 UNL     1       8.555   3.714  35.863  1.00  0.00     0.009 C 
HETATM   20  C17 UNL     1       8.722   4.673  37.021  1.00  0.00     0.057 C 
HETATM   21  N1  UNL     1       7.478   4.002  34.957  1.00  0.00    -0.361 N 
HETATM   22  C18 UNL     1       7.444   5.355  37.377  1.00  0.00     0.012 C 
HETATM   23  C19 UNL     1       6.196   4.616  36.966  1.00  0.00     0.060 C 
HETATM   24  C20 UNL     1       6.205   4.308  35.507  1.00  0.00     0.043 C 
HETATM   25  C21 UNL     1       5.134   4.308  34.740  1.00  0.00     0.125 C 
HETATM   26 CL1  UNL     1       3.561   4.688  35.418  1.00  0.00    -0.069 Cl
HETATM   27 CL2  UNL     1       5.274   3.930  33.038  1.00  0.00    -0.069 Cl
ATOM     28  H1  UNL     1       7.624   3.988  33.948  1.00  0.00     0.165 HD
ENDBRANCH   2  18
TORSDOF 4
ENDMDL
MODEL 5
REMARK VINA RESULT: -9.186891092      4.756      9.460
REMARK  4 active torsions:
REMARK  status: ('A' for Active; 'I' for Inactive)
REMARK    1  A    between atoms: C2_2  and  C15_18 
REMARK    2  A    between atoms: C3_3  and  C4_4 
REMARK    3  A    between atoms: C4_4  and  C5_5 
REMARK    4  A    between atoms: C10_10  and  O1_11 
ROOT
HETATM    1  C1  UNL     1      10.820  -0.781  30.732  1.00  0.00     0.048 C 
HETATM    2  C2  UNL     1      11.522  -0.043  29.674  1.00  0.00    -0.064 C 
HETATM    3  C3  UNL     1      12.530  -0.596  28.990  1.00  0.00    -0.019 C 
ENDROOT
BRANCH   3   4
HETATM    4  C4  UNL     1      13.069  -1.954  29.172  1.00  0.00     0.040 C 
BRANCH   4   5
HETATM    5  C5  UNL     1      14.350  -1.833  29.971  1.00  0.00     0.059 C 
HETATM    6  C6  UNL     1      14.510  -2.894  31.002  1.00  0.00     0.013 C 
HETATM    7  C7  UNL     1      15.138  -4.156  30.531  1.00  0.00     0.013 C 
HETATM    8  C8  UNL     1      16.189  -4.014  29.503  1.00  0.00    -0.008 C 
HETATM    9  C9  UNL     1      15.751  -4.414  28.109  1.00  0.00     0.018 C 
HETATM   10  C10 UNL     1      17.478  -4.718  29.791  1.00  0.00     0.127 C 
HETATM   11  C13 UNL     1      16.697  -2.562  29.489  1.00  0.00     0.066 C 
HETATM   12  C11 UNL     1      18.449  -4.004  28.872  1.00  0.00     0.033 C 
HETATM   13  C12 UNL     1      17.802  -2.681  28.502  1.00  0.00     0.015 C 
HETATM   14  C14 UNL     1      15.552  -1.744  29.058  1.00  0.00     0.136 C 
HETATM   15  O2  UNL     1      15.506  -1.048  28.083  1.00  0.00    -0.297 OA
BRANCH  10  16
HETATM   16  O1  UNL     1      17.431  -6.085  29.557  1.00  0.00    -0.395 OA
ATOM     17  H1  UNL     1      17.978  -6.367  28.834  1.00  0.00     0.210 HD
ENDBRANCH  10  16
ENDBRANCH   4   5
ENDBRANCH   3   4
BRANCH   2  18
HETATM   18  C15 UNL     1      11.169   1.324  29.329  1.00  0.00     0.031 C 
HETATM   19  C16 UNL     1      10.207   2.075  29.731  1.00  0.00     0.009 C 
HETATM   20  C17 UNL     1      10.111   3.479  29.178  1.00  0.00     0.057 C 
HETATM   21  N1  UNL     1       9.172   1.689  30.650  1.00  0.00    -0.361 N 
HETATM   22  C18 UNL     1       9.372   4.397  30.092  1.00  0.00     0.012 C 
HETATM   23  C19 UNL     1       9.362   3.976  31.540  1.00  0.00     0.060 C 
HETATM   24  C20 UNL     1       8.836   2.589  31.695  1.00  0.00     0.043 C 
HETATM   25  C21 UNL     1       8.105   2.181  32.713  1.00  0.00     0.125 C 
HETATM   26 CL1  UNL     1       7.687   3.292  34.003  1.00  0.00    -0.069 Cl
HETATM   27 CL2  UNL     1       7.546   0.525  32.782  1.00  0.00    -0.069 Cl
ATOM     28  H1  UNL     1       8.693   0.794  30.554  1.00  0.00     0.165 HD
ENDBRANCH   2  18
TORSDOF 4
ENDMDL
