MODEL 1
REMARK VINA RESULT: -8.034144020      0.000      0.000
REMARK  4 active torsions:
REMARK  status: ('A' for Active; 'I' for Inactive)
REMARK    1  A    between atoms: O1_1  and  C1_3 
REMARK    2  A    between atoms: C1_3  and  C2_4 
REMARK    3  A    between atoms: C5_8  and  C6_9 
REMARK    4  A    between atoms: C6_9  and  C7_10 
ROOT
HETATM    1  C6  UNL     1       8.311   3.228  33.479  1.00  0.00     0.072 C 
HETATM    2  C13 UNL     1       8.616   4.344  32.460  1.00  0.00     0.078 C 
HETATM    3  C14 UNL     1       9.228   3.692  31.308  1.00  0.00    -0.025 A 
HETATM    4  C15 UNL     1       9.900   4.173  30.215  1.00  0.00     0.051 A 
HETATM    5  C16 UNL     1      10.387   3.311  29.246  1.00  0.00     0.118 A 
HETATM    6  F1  UNL     1      11.057   3.746  28.147  1.00  0.00    -0.206 F 
HETATM    7  C17 UNL     1      10.207   1.947  29.359  1.00  0.00     0.063 A 
HETATM    8  C18 UNL     1       9.537   1.451  30.446  1.00  0.00     0.040 A 
HETATM    9 BR1  UNL     1       9.278  -0.431  30.620  1.00  0.00    -0.049 Br
HETATM   10  C19 UNL     1       9.057   2.343  31.408  1.00  0.00     0.053 A 
HETATM   11  N1  UNL     1       8.359   2.059  32.582  1.00  0.00    -0.374 N 
ATOM     12  H1  UNL     1       7.934   1.155  32.793  1.00  0.00     0.161 HD
ENDROOT
BRANCH   1  13
HETATM   13  C5  UNL     1       9.437   3.128  34.385  1.00  0.00     0.019 A 
HETATM   14  C2  UNL     1      10.154   3.884  35.236  1.00  0.00    -0.019 A 
HETATM   15  C3  UNL     1      11.185   3.322  35.915  1.00  0.00     0.017 A 
HETATM   16  C4  UNL     1      11.453   2.001  35.704  1.00  0.00     0.051 A 
HETATM   17  S1  UNL     1      10.255   1.596  34.567  1.00  0.00    -0.103 SA
BRANCH  14  18
HETATM   18  C1  UNL     1       9.826   5.328  35.434  1.00  0.00     0.204 C 
BRANCH  18  19
HETATM   19  O1  UNL     1      10.851   6.163  34.950  1.00  0.00    -0.396 OA
ATOM     20  H1  UNL     1      10.513   6.823  34.357  1.00  0.00     0.209 HD
ENDBRANCH  18  19
ENDBRANCH  14  18
ENDBRANCH   1  13
BRANCH   1  21
HETATM   21  C7  UNL     1       6.912   3.339  33.847  1.00  0.00     0.019 C 
HETATM   22  C8  UNL     1       6.324   4.560  33.076  1.00  0.00     0.007 C 
HETATM   23  C9  UNL     1       4.788   4.393  33.043  1.00  0.00     0.000 C 
HETATM   24  C10 UNL     1       4.319   4.019  34.434  1.00  0.00     0.000 C 
HETATM   25  C11 UNL     1       5.331   4.574  35.386  1.00  0.00     0.000 C 
HETATM   26  C12 UNL     1       6.583   3.732  35.282  1.00  0.00     0.007 C 
ENDBRANCH   1  21
TORSDOF 4
ENDMDL
MODEL 2
REMARK VINA RESULT: -7.890202551      2.965      4.598
REMARK  4 active torsions:
REMARK  status: ('A' for Active; 'I' for Inactive)
REMARK    1  A    between atoms: O1_1  and  C1_3 
REMARK    2  A    between atoms: C1_3  and  C2_4 
REMARK    3  A    between atoms: C5_8  and  C6_9 
REMARK    4  A    between atoms: C6_9  and  C7_10 
ROOT
HETATM    1  C6  UNL     1       7.552   2.804  32.424  1.00  0.00     0.072 C 
HETATM    2  C13 UNL     1       7.469   1.313  32.805  1.00  0.00     0.078 C 
HETATM    3  C14 UNL     1       8.448   1.104  33.865  1.00  0.00    -0.025 A 
HETATM    4  C15 UNL     1       8.978  -0.025  34.433  1.00  0.00     0.051 A 
HETATM    5  C16 UNL     1       9.914   0.066  35.450  1.00  0.00     0.118 A 
HETATM    6  F1  UNL     1      10.464  -1.028  36.040  1.00  0.00    -0.206 F 
HETATM    7  C17 UNL     1      10.335   1.296  35.915  1.00  0.00     0.063 A 
HETATM    8  C18 UNL     1       9.814   2.433  35.357  1.00  0.00     0.040 A 
HETATM    9 BR1  UNL     1      10.383   4.141  35.987  1.00  0.00    -0.049 Br
HETATM   10  C19 UNL     1       8.873   2.313  34.333  1.00  0.00     0.053 A 
HETATM   11  N1  UNL     1       8.222   3.327  33.629  1.00  0.00    -0.374 N 
ATOM     12  H1  UNL     1       8.211   4.306  33.913  1.00  0.00     0.161 HD
ENDROOT
BRANCH   1  13
HETATM   13  C5  UNL     1       8.480   2.934  31.320  1.00  0.00     0.019 A 
HETATM   14  C2  UNL     1       9.262   3.853  30.725  1.00  0.00    -0.019 A 
HETATM   15  C3  UNL     1      10.010   3.493  29.651  1.00  0.00     0.017 A 
HETATM   16  C4  UNL     1       9.936   2.203  29.217  1.00  0.00     0.051 A 
HETATM   17  S1  UNL     1       8.827   1.542  30.324  1.00  0.00    -0.103 SA
BRANCH  14  18
HETATM   18  C1  UNL     1       9.311   5.257  31.234  1.00  0.00     0.204 C 
BRANCH  18  19
HETATM   19  O1  UNL     1      10.164   5.374  32.348  1.00  0.00    -0.396 OA
ATOM     20  H1  UNL     1      11.078   5.316  32.095  1.00  0.00     0.209 HD
ENDBRANCH  18  19
ENDBRANCH  14  18
ENDBRANCH   1  13
BRANCH   1  21
HETATM   21  C7  UNL     1       6.210   3.352  32.496  1.00  0.00     0.019 C 
HETATM   22  C8  UNL     1       6.312   4.738  33.205  1.00  0.00     0.007 C 
HETATM   23  C9  UNL     1       5.041   5.539  32.843  1.00  0.00     0.000 C 
HETATM   24  C10 UNL     1       3.840   4.632  33.019  1.00  0.00     0.000 C 
HETATM   25  C11 UNL     1       4.226   3.610  34.042  1.00  0.00     0.000 C 
HETATM   26  C12 UNL     1       5.204   2.651  33.400  1.00  0.00     0.007 C 
ENDBRANCH   1  21
TORSDOF 4
ENDMDL
MODEL 3
REMARK VINA RESULT: -7.827776903      1.625      1.855
REMARK  4 active torsions:
REMARK  status: ('A' for Active; 'I' for Inactive)
REMARK    1  A    between atoms: O1_1  and  C1_3 
REMARK    2  A    between atoms: C1_3  and  C2_4 
REMARK    3  A    between atoms: C5_8  and  C6_9 
REMARK    4  A    between atoms: C6_9  and  C7_10 
ROOT
HETATM    1  C6  UNL     1       7.627   3.427  33.560  1.00  0.00     0.072 C 
HETATM    2  C13 UNL     1       7.929   4.523  32.519  1.00  0.00     0.078 C 
HETATM    3  C14 UNL     1       8.651   3.871  31.433  1.00  0.00    -0.025 A 
HETATM    4  C15 UNL     1       9.362   4.355  30.366  1.00  0.00     0.051 A 
HETATM    5  C16 UNL     1       9.961   3.491  29.463  1.00  0.00     0.118 A 
HETATM    6  F1  UNL     1      10.673   3.929  28.392  1.00  0.00    -0.206 F 
HETATM    7  C17 UNL     1       9.856   2.123  29.618  1.00  0.00     0.063 A 
HETATM    8  C18 UNL     1       9.149   1.624  30.680  1.00  0.00     0.040 A 
HETATM    9 BR1  UNL     1       8.993  -0.263  30.909  1.00  0.00    -0.049 Br
HETATM   10  C19 UNL     1       8.556   2.518  31.575  1.00  0.00     0.053 A 
HETATM   11  N1  UNL     1       7.802   2.232  32.713  1.00  0.00    -0.374 N 
ATOM     12  H1  UNL     1       7.420   1.312  32.932  1.00  0.00     0.161 HD
ENDROOT
BRANCH   1  13
HETATM   13  C5  UNL     1       8.696   3.428  34.536  1.00  0.00     0.019 A 
HETATM   14  C2  UNL     1       9.333   2.594  35.378  1.00  0.00    -0.019 A 
HETATM   15  C3  UNL     1      10.345   3.071  36.146  1.00  0.00     0.017 A 
HETATM   16  C4  UNL     1      10.675   4.390  36.031  1.00  0.00     0.051 A 
HETATM   17  S1  UNL     1       9.563   4.911  34.855  1.00  0.00    -0.103 SA
BRANCH  14  18
HETATM   18  C1  UNL     1       8.936   1.157  35.473  1.00  0.00     0.204 C 
BRANCH  18  19
HETATM   19  O1  UNL     1       9.508   0.393  34.436  1.00  0.00    -0.396 OA
ATOM     20  H1  UNL     1      10.457   0.405  34.476  1.00  0.00     0.209 HD
ENDBRANCH  18  19
ENDBRANCH  14  18
ENDBRANCH   1  13
BRANCH   1  21
HETATM   21  C7  UNL     1       6.203   3.462  33.836  1.00  0.00     0.019 C 
HETATM   22  C8  UNL     1       5.599   4.642  33.013  1.00  0.00     0.007 C 
HETATM   23  C9  UNL     1       4.081   4.389  32.883  1.00  0.00     0.000 C 
HETATM   24  C10 UNL     1       3.543   4.002  34.246  1.00  0.00     0.000 C 
HETATM   25  C11 UNL     1       4.460   4.622  35.254  1.00  0.00     0.000 C 
HETATM   26  C12 UNL     1       5.761   3.850  35.241  1.00  0.00     0.007 C 
ENDBRANCH   1  21
TORSDOF 4
ENDMDL
MODEL 4
REMARK VINA RESULT: -7.789738284      2.312      4.614
REMARK  4 active torsions:
REMARK  status: ('A' for Active; 'I' for Inactive)
REMARK    1  A    between atoms: O1_1  and  C1_3 
REMARK    2  A    between atoms: C1_3  and  C2_4 
REMARK    3  A    between atoms: C5_8  and  C6_9 
REMARK    4  A    between atoms: C6_9  and  C7_10 
ROOT
HETATM    1  C6  UNL     1       9.418   2.053  32.332  1.00  0.00     0.072 C 
HETATM    2  C13 UNL     1       8.940   0.678  31.826  1.00  0.00     0.078 C 
HETATM    3  C14 UNL     1       8.973   0.741  30.370  1.00  0.00    -0.025 A 
HETATM    4  C15 UNL     1       8.461  -0.072  29.392  1.00  0.00     0.051 A 
HETATM    5  C16 UNL     1       8.645   0.230  28.052  1.00  0.00     0.118 A 
HETATM    6  F1  UNL     1       8.156  -0.547  27.051  1.00  0.00    -0.206 F 
HETATM    7  C17 UNL     1       9.348   1.356  27.672  1.00  0.00     0.063 A 
HETATM    8  C18 UNL     1       9.866   2.178  28.638  1.00  0.00     0.040 A 
HETATM    9 BR1  UNL     1      10.840   3.737  28.131  1.00  0.00    -0.049 Br
HETATM   10  C19 UNL     1       9.664   1.850  29.981  1.00  0.00     0.053 A 
HETATM   11  N1  UNL     1      10.096   2.538  31.115  1.00  0.00    -0.374 N 
ATOM     12  H1  UNL     1      10.793   3.283  31.104  1.00  0.00     0.161 HD
ENDROOT
BRANCH   1  13
HETATM   13  C5  UNL     1       8.251   2.885  32.540  1.00  0.00     0.019 A 
HETATM   14  C2  UNL     1       7.825   4.145  32.334  1.00  0.00    -0.019 A 
HETATM   15  C3  UNL     1       6.569   4.490  32.714  1.00  0.00     0.017 A 
HETATM   16  C4  UNL     1       5.785   3.537  33.294  1.00  0.00     0.051 A 
HETATM   17  S1  UNL     1       6.830   2.195  33.285  1.00  0.00    -0.103 SA
BRANCH  14  18
HETATM   18  C1  UNL     1       8.720   5.157  31.698  1.00  0.00     0.204 C 
BRANCH  18  19
HETATM   19  O1  UNL     1       9.898   5.350  32.446  1.00  0.00    -0.396 OA
ATOM     20  H1  UNL     1      10.427   4.562  32.471  1.00  0.00     0.209 HD
ENDBRANCH  18  19
ENDBRANCH  14  18
ENDBRANCH   1  13
BRANCH   1  21
HETATM   21  C7  UNL     1      10.498   1.825  33.274  1.00  0.00     0.019 C 
HETATM   22  C8  UNL     1      10.388   0.346  33.757  1.00  0.00     0.007 C 
HETATM   23  C9  UNL     1      11.765  -0.059  34.330  1.00  0.00     0.000 C 
HETATM   24  C10 UNL     1      12.247   1.051  35.242  1.00  0.00     0.000 C 
HETATM   25  C11 UNL     1      11.022   1.747  35.747  1.00  0.00     0.000 C 
HETATM   26  C12 UNL     1      10.442   2.557  34.610  1.00  0.00     0.007 C 
ENDBRANCH   1  21
TORSDOF 4
ENDMDL
MODEL 5
REMARK VINA RESULT: -7.594780673      3.521      5.638
REMARK  4 active torsions:
REMARK  status: ('A' for Active; 'I' for Inactive)
REMARK    1  A    between atoms: O1_1  and  C1_3 
REMARK    2  A    between atoms: C1_3  and  C2_4 
REMARK    3  A    between atoms: C5_8  and  C6_9 
REMARK    4  A    between atoms: C6_9  and  C7_10 
ROOT
HETATM    1  C6  UNL     1       9.262   1.904  33.416  1.00  0.00     0.072 C 
HETATM    2  C13 UNL     1       7.766   2.153  33.690  1.00  0.00     0.078 C 
HETATM    3  C14 UNL     1       7.702   3.218  34.683  1.00  0.00    -0.025 A 
HETATM    4  C15 UNL     1       6.685   3.702  35.465  1.00  0.00     0.051 A 
HETATM    5  C16 UNL     1       6.904   4.749  36.345  1.00  0.00     0.118 A 
HETATM    6  F1  UNL     1       5.925   5.259  37.137  1.00  0.00    -0.206 F 
HETATM    7  C17 UNL     1       8.152   5.330  36.455  1.00  0.00     0.063 A 
HETATM    8  C18 UNL     1       9.178   4.857  35.681  1.00  0.00     0.040 A 
HETATM    9 BR1  UNL     1      10.909   5.647  35.819  1.00  0.00    -0.049 Br
HETATM   10  C19 UNL     1       8.929   3.800  34.802  1.00  0.00     0.053 A 
HETATM   11  N1  UNL     1       9.818   3.168  33.933  1.00  0.00    -0.374 N 
ATOM     12  H1  UNL     1      10.738   3.535  33.685  1.00  0.00     0.161 HD
ENDROOT
BRANCH   1  13
HETATM   13  C5  UNL     1       9.708   0.841  34.293  1.00  0.00     0.019 A 
HETATM   14  C2  UNL     1      10.834   0.199  34.655  1.00  0.00    -0.019 A 
HETATM   15  C3  UNL     1      10.764  -0.793  35.578  1.00  0.00     0.017 A 
HETATM   16  C4  UNL     1       9.543  -1.100  36.104  1.00  0.00     0.051 A 
HETATM   17  S1  UNL     1       8.542   0.009  35.292  1.00  0.00    -0.103 SA
BRANCH  14  18
HETATM   18  C1  UNL     1      12.149   0.567  34.051  1.00  0.00     0.204 C 
BRANCH  18  19
HETATM   19  O1  UNL     1      12.928  -0.573  33.771  1.00  0.00    -0.396 OA
ATOM     20  H1  UNL     1      12.642  -1.004  32.975  1.00  0.00     0.209 HD
ENDBRANCH  18  19
ENDBRANCH  14  18
ENDBRANCH   1  13
BRANCH   1  21
HETATM   21  C7  UNL     1       9.466   1.985  31.981  1.00  0.00     0.019 C 
HETATM   22  C8  UNL     1       8.123   2.460  31.347  1.00  0.00     0.007 C 
HETATM   23  C9  UNL     1       8.446   3.032  29.949  1.00  0.00     0.000 C 
HETATM   24  C10 UNL     1       9.372   2.064  29.240  1.00  0.00     0.000 C 
HETATM   25  C11 UNL     1       9.102   0.714  29.826  1.00  0.00     0.000 C 
HETATM   26  C12 UNL     1       9.686   0.683  31.220  1.00  0.00     0.007 C 
ENDBRANCH   1  21
TORSDOF 4
ENDMDL
