MODEL 1
REMARK VINA RESULT: -10.143289967      0.000      0.000
REMARK  4 active torsions:
REMARK  status: ('A' for Active; 'I' for Inactive)
REMARK    1  A    between atoms: C5_6  and  C6_7 
REMARK    2  A    between atoms: C8_9  and  C9_10 
REMARK    3  A    between atoms: N1_13  and  C12_14 
REMARK    4  A    between atoms: C21_23  and  O1_24 
ROOT
HETATM    1  C6  UNL     1      13.470  -1.976  29.426  1.00  0.00     0.050 A 
HETATM    2  C7  UNL     1      12.668  -1.823  30.538  1.00  0.00     0.046 A 
HETATM    3  C8  UNL     1      11.887  -0.657  30.415  1.00  0.00     0.023 A 
HETATM    4  C21 UNL     1      12.233  -0.125  29.226  1.00  0.00     0.151 A 
HETATM    5  N2  UNL     1      13.169  -0.920  28.658  1.00  0.00    -0.336 N 
ATOM      6  H2  UNL     1      13.597  -0.736  27.751  1.00  0.00     0.168 HD
ENDROOT
BRANCH   3   7
HETATM    7  C9  UNL     1      10.931  -0.203  31.417  1.00  0.00    -0.044 C 
HETATM    8  C10 UNL     1       9.676   0.048  31.093  1.00  0.00     0.011 C 
HETATM    9  C11 UNL     1       8.644   0.511  32.048  1.00  0.00     0.301 C 
HETATM   10  N1  UNL     1       9.152   1.006  33.297  1.00  0.00     0.096 N 
HETATM   11  C19 UNL     1      10.545   1.276  33.298  1.00  0.00     0.278 C 
HETATM   12  C20 UNL     1      11.308   0.019  32.821  1.00  0.00     0.069 C 
BRANCH  10  13
HETATM   13  C12 UNL     1       8.384   2.166  33.672  1.00  0.00     0.223 C 
HETATM   14  C13 UNL     1       7.195   2.281  32.749  1.00  0.00     0.036 C 
HETATM   15  C14 UNL     1       6.372   3.522  33.052  1.00  0.00     0.002 C 
HETATM   16  C15 UNL     1       7.066   4.777  32.613  1.00  0.00     0.000 C 
HETATM   17  C16 UNL     1       8.138   4.527  31.602  1.00  0.00     0.000 C 
HETATM   18  C17 UNL     1       9.315   3.759  32.069  1.00  0.00     0.002 C 
HETATM   19  C18 UNL     1       9.303   3.365  33.523  1.00  0.00     0.036 C 
ENDBRANCH  10  13
ENDBRANCH   3   7
BRANCH   4  20
HETATM   20  O1  UNL     1      11.718   1.065  28.654  1.00  0.00    -0.345 OA
ATOM     21  H1  UNL     1      12.197   1.869  28.496  1.00  0.00     0.219 HD
ENDBRANCH   4  20
BRANCH   1  22
HETATM   22  C5  UNL     1      14.458  -3.044  29.228  1.00  0.00     0.051 A 
HETATM   23  C4  UNL     1      14.064  -4.365  29.084  1.00  0.00     0.131 A 
HETATM   24  C3  UNL     1      14.983  -5.410  28.946  1.00  0.00     0.050 A 
HETATM   25  F1  UNL     1      12.748  -4.684  29.039  1.00  0.00    -0.205 F 
HETATM   26  C2  UNL     1      16.332  -5.185  28.944  1.00  0.00    -0.057 A 
HETATM   27  C1  UNL     1      17.289  -6.315  28.799  1.00  0.00     0.048 C 
HETATM   28  C23 UNL     1      16.739  -3.887  29.085  1.00  0.00     0.031 A 
HETATM   29  C22 UNL     1      15.819  -2.827  29.226  1.00  0.00     0.050 A 
HETATM   30 CL1  UNL     1      16.456  -1.214  29.447  1.00  0.00    -0.083 Cl
ENDBRANCH   1  22
TORSDOF 4
ENDMDL
MODEL 2
REMARK VINA RESULT: -9.613377737      1.363      1.591
REMARK  4 active torsions:
REMARK  status: ('A' for Active; 'I' for Inactive)
REMARK    1  A    between atoms: C5_6  and  C6_7 
REMARK    2  A    between atoms: C8_9  and  C9_10 
REMARK    3  A    between atoms: N1_13  and  C12_14 
REMARK    4  A    between atoms: C21_23  and  O1_24 
ROOT
HETATM    1  C6  UNL     1      13.543  -2.049  29.568  1.00  0.00     0.050 A 
HETATM    2  C7  UNL     1      12.693  -1.846  30.636  1.00  0.00     0.046 A 
HETATM    3  C8  UNL     1      11.920  -0.687  30.426  1.00  0.00     0.023 A 
HETATM    4  C21 UNL     1      12.320  -0.208  29.231  1.00  0.00     0.151 A 
HETATM    5  N2  UNL     1      13.279  -1.028  28.742  1.00  0.00    -0.336 N 
ATOM      6  H2  UNL     1      13.747  -0.885  27.847  1.00  0.00     0.168 HD
ENDROOT
BRANCH   3   7
HETATM    7  C9  UNL     1      10.922  -0.188  31.363  1.00  0.00    -0.044 C 
HETATM    8  C10 UNL     1       9.711   0.142  30.953  1.00  0.00     0.011 C 
HETATM    9  C11 UNL     1       8.640   0.654  31.837  1.00  0.00     0.301 C 
HETATM   10  N1  UNL     1       9.084   1.103  33.128  1.00  0.00     0.096 N 
HETATM   11  C19 UNL     1      10.486   1.288  33.235  1.00  0.00     0.278 C 
HETATM   12  C20 UNL     1      11.207  -0.007  32.794  1.00  0.00     0.069 C 
BRANCH  10  13
HETATM   13  C12 UNL     1       8.360   2.303  33.465  1.00  0.00     0.223 C 
HETATM   14  C13 UNL     1       7.263   2.511  32.449  1.00  0.00     0.036 C 
HETATM   15  C14 UNL     1       6.496   3.795  32.712  1.00  0.00     0.002 C 
HETATM   16  C15 UNL     1       7.302   5.012  32.364  1.00  0.00     0.000 C 
HETATM   17  C16 UNL     1       8.438   4.713  31.440  1.00  0.00     0.000 C 
HETATM   18  C17 UNL     1       9.521   3.862  31.985  1.00  0.00     0.002 C 
HETATM   19  C18 UNL     1       9.361   3.443  33.423  1.00  0.00     0.036 C 
ENDBRANCH  10  13
ENDBRANCH   3   7
BRANCH   4  20
HETATM   20  O1  UNL     1      11.834   0.955  28.584  1.00  0.00    -0.345 OA
ATOM     21  H1  UNL     1      11.377   0.988  27.752  1.00  0.00     0.219 HD
ENDBRANCH   4  20
BRANCH   1  22
HETATM   22  C5  UNL     1      14.537  -3.125  29.463  1.00  0.00     0.051 A 
HETATM   23  C4  UNL     1      15.789  -3.001  30.042  1.00  0.00     0.131 A 
HETATM   24  C3  UNL     1      16.774  -3.985  29.915  1.00  0.00     0.050 A 
HETATM   25  F1  UNL     1      16.090  -1.913  30.792  1.00  0.00    -0.205 F 
HETATM   26  C2  UNL     1      16.554  -5.135  29.208  1.00  0.00    -0.057 A 
HETATM   27  C1  UNL     1      17.621  -6.165  29.085  1.00  0.00     0.048 C 
HETATM   28  C23 UNL     1      15.324  -5.274  28.629  1.00  0.00     0.031 A 
HETATM   29  C22 UNL     1      14.325  -4.286  28.751  1.00  0.00     0.050 A 
HETATM   30 CL1  UNL     1      12.805  -4.552  27.927  1.00  0.00    -0.083 Cl
ENDBRANCH   1  22
TORSDOF 4
ENDMDL
MODEL 3
REMARK VINA RESULT: -9.562116864      1.550      1.934
REMARK  4 active torsions:
REMARK  status: ('A' for Active; 'I' for Inactive)
REMARK    1  A    between atoms: C5_6  and  C6_7 
REMARK    2  A    between atoms: C8_9  and  C9_10 
REMARK    3  A    between atoms: N1_13  and  C12_14 
REMARK    4  A    between atoms: C21_23  and  O1_24 
ROOT
HETATM    1  C6  UNL     1      13.719  -2.125  29.462  1.00  0.00     0.050 A 
HETATM    2  C7  UNL     1      12.744  -1.999  30.429  1.00  0.00     0.046 A 
HETATM    3  C8  UNL     1      11.977  -0.840  30.195  1.00  0.00     0.023 A 
HETATM    4  C21 UNL     1      12.506  -0.286  29.087  1.00  0.00     0.151 A 
HETATM    5  N2  UNL     1      13.534  -1.061  28.670  1.00  0.00    -0.336 N 
ATOM      6  H2  UNL     1      14.102  -0.858  27.848  1.00  0.00     0.168 HD
ENDROOT
BRANCH   3   7
HETATM    7  C9  UNL     1      10.864  -0.414  31.033  1.00  0.00    -0.044 C 
HETATM    8  C10 UNL     1       9.615  -0.590  30.643  1.00  0.00     0.011 C 
HETATM    9  C11 UNL     1       8.429  -0.187  31.431  1.00  0.00     0.301 C 
HETATM   10  N1  UNL     1       8.699   0.723  32.509  1.00  0.00     0.096 N 
HETATM   11  C19 UNL     1       9.975   1.340  32.451  1.00  0.00     0.278 C 
HETATM   12  C20 UNL     1      11.063   0.247  32.331  1.00  0.00     0.069 C 
BRANCH  10  13
HETATM   13  C12 UNL     1       7.638   1.698  32.556  1.00  0.00     0.223 C 
HETATM   14  C13 UNL     1       8.123   2.977  31.917  1.00  0.00     0.036 C 
HETATM   15  C14 UNL     1       7.070   4.070  31.987  1.00  0.00     0.002 C 
HETATM   16  C15 UNL     1       6.913   4.609  33.378  1.00  0.00     0.000 C 
HETATM   17  C16 UNL     1       8.087   4.312  34.254  1.00  0.00     0.000 C 
HETATM   18  C17 UNL     1       8.319   2.887  34.580  1.00  0.00     0.002 C 
HETATM   19  C18 UNL     1       7.311   1.916  34.023  1.00  0.00     0.036 C 
ENDBRANCH  10  13
ENDBRANCH   3   7
BRANCH   4  20
HETATM   20  O1  UNL     1      12.075   0.906  28.454  1.00  0.00    -0.345 OA
ATOM     21  H1  UNL     1      12.247   1.162  27.556  1.00  0.00     0.219 HD
ENDBRANCH   4  20
BRANCH   1  22
HETATM   22  C5  UNL     1      14.742  -3.178  29.415  1.00  0.00     0.051 A 
HETATM   23  C4  UNL     1      15.997  -2.981  29.967  1.00  0.00     0.131 A 
HETATM   24  C3  UNL     1      17.008  -3.944  29.893  1.00  0.00     0.050 A 
HETATM   25  F1  UNL     1      16.276  -1.837  30.638  1.00  0.00    -0.205 F 
HETATM   26  C2  UNL     1      16.813  -5.145  29.268  1.00  0.00    -0.057 A 
HETATM   27  C1  UNL     1      17.907  -6.152  29.200  1.00  0.00     0.048 C 
HETATM   28  C23 UNL     1      15.580  -5.356  28.716  1.00  0.00     0.031 A 
HETATM   29  C22 UNL     1      14.555  -4.390  28.785  1.00  0.00     0.050 A 
HETATM   30 CL1  UNL     1      13.033  -4.752  28.003  1.00  0.00    -0.083 Cl
ENDBRANCH   1  22
TORSDOF 4
ENDMDL
MODEL 4
REMARK VINA RESULT: -9.370345657      0.947      1.641
REMARK  4 active torsions:
REMARK  status: ('A' for Active; 'I' for Inactive)
REMARK    1  A    between atoms: C5_6  and  C6_7 
REMARK    2  A    between atoms: C8_9  and  C9_10 
REMARK    3  A    between atoms: N1_13  and  C12_14 
REMARK    4  A    between atoms: C21_23  and  O1_24 
ROOT
HETATM    1  C6  UNL     1      13.518  -1.968  29.390  1.00  0.00     0.050 A 
HETATM    2  C7  UNL     1      12.704  -1.789  30.490  1.00  0.00     0.046 A 
HETATM    3  C8  UNL     1      11.937  -0.617  30.339  1.00  0.00     0.023 A 
HETATM    4  C21 UNL     1      12.304  -0.107  29.147  1.00  0.00     0.151 A 
HETATM    5  N2  UNL     1      13.239  -0.921  28.603  1.00  0.00    -0.336 N 
ATOM      6  H2  UNL     1      13.680  -0.756  27.699  1.00  0.00     0.168 HD
ENDROOT
BRANCH   3   7
HETATM    7  C9  UNL     1      10.974  -0.137  31.322  1.00  0.00    -0.044 C 
HETATM    8  C10 UNL     1       9.751   0.206  30.961  1.00  0.00     0.011 C 
HETATM    9  C11 UNL     1       8.713   0.701  31.894  1.00  0.00     0.301 C 
HETATM   10  N1  UNL     1       9.203   1.118  33.179  1.00  0.00     0.096 N 
HETATM   11  C19 UNL     1      10.609   1.297  33.241  1.00  0.00     0.278 C 
HETATM   12  C20 UNL     1      11.309   0.010  32.745  1.00  0.00     0.069 C 
BRANCH  10  13
HETATM   13  C12 UNL     1       8.496   2.312  33.569  1.00  0.00     0.223 C 
HETATM   14  C13 UNL     1       9.484   3.448  33.682  1.00  0.00     0.036 C 
HETATM   15  C14 UNL     1       8.812   4.727  34.150  1.00  0.00     0.002 C 
HETATM   16  C15 UNL     1       8.436   4.666  35.601  1.00  0.00     0.000 C 
HETATM   17  C16 UNL     1       9.184   3.613  36.352  1.00  0.00     0.000 C 
HETATM   18  C17 UNL     1       8.899   2.209  35.977  1.00  0.00     0.002 C 
HETATM   19  C18 UNL     1       7.851   2.018  34.911  1.00  0.00     0.036 C 
ENDBRANCH  10  13
ENDBRANCH   3   7
BRANCH   4  20
HETATM   20  O1  UNL     1      11.809   1.079  28.550  1.00  0.00    -0.345 OA
ATOM     21  H1  UNL     1      11.945   1.358  27.652  1.00  0.00     0.219 HD
ENDBRANCH   4  20
BRANCH   1  22
HETATM   22  C5  UNL     1      14.497  -3.050  29.222  1.00  0.00     0.051 A 
HETATM   23  C4  UNL     1      14.089  -4.366  29.075  1.00  0.00     0.131 A 
HETATM   24  C3  UNL     1      14.998  -5.423  28.964  1.00  0.00     0.050 A 
HETATM   25  F1  UNL     1      12.771  -4.669  29.000  1.00  0.00    -0.205 F 
HETATM   26  C2  UNL     1      16.349  -5.216  28.994  1.00  0.00    -0.057 A 
HETATM   27  C1  UNL     1      17.295  -6.359  28.877  1.00  0.00     0.048 C 
HETATM   28  C23 UNL     1      16.769  -3.923  29.138  1.00  0.00     0.031 A 
HETATM   29  C22 UNL     1      15.860  -2.850  29.252  1.00  0.00     0.050 A 
HETATM   30 CL1  UNL     1      16.512  -1.244  29.481  1.00  0.00    -0.083 Cl
ENDBRANCH   1  22
TORSDOF 4
ENDMDL
MODEL 5
REMARK VINA RESULT: -9.318353989      2.694      9.351
REMARK  4 active torsions:
REMARK  status: ('A' for Active; 'I' for Inactive)
REMARK    1  A    between atoms: C5_6  and  C6_7 
REMARK    2  A    between atoms: C8_9  and  C9_10 
REMARK    3  A    between atoms: N1_13  and  C12_14 
REMARK    4  A    between atoms: C21_23  and  O1_24 
ROOT
HETATM    1  C6  UNL     1       9.724   2.081  30.792  1.00  0.00     0.050 A 
HETATM    2  C7  UNL     1      10.481   0.934  30.913  1.00  0.00     0.046 A 
HETATM    3  C8  UNL     1      11.196   0.698  29.722  1.00  0.00     0.023 A 
HETATM    4  C21 UNL     1      10.855   1.710  28.900  1.00  0.00     0.151 A 
HETATM    5  N2  UNL     1       9.985   2.516  29.552  1.00  0.00    -0.336 N 
ATOM      6  H2  UNL     1       9.576   3.357  29.146  1.00  0.00     0.168 HD
ENDROOT
BRANCH   3   7
HETATM    7  C9  UNL     1      12.092  -0.433  29.516  1.00  0.00    -0.044 C 
HETATM    8  C10 UNL     1      12.061  -1.478  30.322  1.00  0.00     0.011 C 
HETATM    9  C11 UNL     1      12.935  -2.665  30.184  1.00  0.00     0.301 C 
HETATM   10  N1  UNL     1      14.068  -2.486  29.320  1.00  0.00     0.096 N 
HETATM   11  C19 UNL     1      14.354  -1.134  28.999  1.00  0.00     0.278 C 
HETATM   12  C20 UNL     1      13.081  -0.466  28.429  1.00  0.00     0.069 C 
BRANCH  10  13
HETATM   13  C12 UNL     1      15.203  -3.143  29.919  1.00  0.00     0.223 C 
HETATM   14  C13 UNL     1      16.314  -3.221  28.899  1.00  0.00     0.036 C 
HETATM   15  C14 UNL     1      17.523  -3.958  29.447  1.00  0.00     0.002 C 
HETATM   16  C15 UNL     1      17.277  -5.433  29.562  1.00  0.00     0.000 C 
HETATM   17  C16 UNL     1      16.136  -5.901  28.718  1.00  0.00     0.000 C 
HETATM   18  C17 UNL     1      14.792  -5.408  29.099  1.00  0.00     0.002 C 
HETATM   19  C18 UNL     1      14.740  -4.531  30.323  1.00  0.00     0.036 C 
ENDBRANCH  10  13
ENDBRANCH   3   7
BRANCH   4  20
HETATM   20  O1  UNL     1      11.317   1.911  27.576  1.00  0.00    -0.345 OA
ATOM     21  H1  UNL     1      10.786   1.928  26.789  1.00  0.00     0.219 HD
ENDBRANCH   4  20
BRANCH   1  22
HETATM   22  C5  UNL     1       8.807   2.608  31.810  1.00  0.00     0.051 A 
HETATM   23  C4  UNL     1       7.855   1.796  32.404  1.00  0.00     0.131 A 
HETATM   24  C3  UNL     1       6.934   2.280  33.338  1.00  0.00     0.050 A 
HETATM   25  F1  UNL     1       7.809   0.473  32.114  1.00  0.00    -0.205 F 
HETATM   26  C2  UNL     1       6.923   3.592  33.722  1.00  0.00    -0.057 A 
HETATM   27  C1  UNL     1       5.929   4.084  34.716  1.00  0.00     0.048 C 
HETATM   28  C23 UNL     1       7.856   4.409  33.146  1.00  0.00     0.031 A 
HETATM   29  C22 UNL     1       8.787   3.930  32.202  1.00  0.00     0.050 A 
HETATM   30 CL1  UNL     1       9.903   5.077  31.497  1.00  0.00    -0.083 Cl
ENDBRANCH   1  22
TORSDOF 4
ENDMDL
