MODEL 1
REMARK VINA RESULT: -8.412299177      0.000      0.000
REMARK  4 active torsions:
REMARK  status: ('A' for Active; 'I' for Inactive)
REMARK    1  A    between atoms: C2_2  and  C3_3 
REMARK    2  A    between atoms: C10_11  and  C11_12 
REMARK    3  A    between atoms: C14_15  and  O1_16 
REMARK    4  A    between atoms: C16_18  and  O2_19 
ROOT
HETATM    1  C3  UNL     1       9.942   1.021  30.470  1.00  0.00     0.009 C 
HETATM    2  C4  UNL     1       9.682   1.504  29.057  1.00  0.00     0.087 C 
HETATM    3 CL1  UNL     1       8.498   0.589  28.150  1.00  0.00    -0.125 Cl
HETATM    4  C5  UNL     1       9.154   2.927  29.350  1.00  0.00     0.027 C 
HETATM    5  C6  UNL     1       8.232   2.692  30.547  1.00  0.00     0.012 A 
HETATM    6  C7  UNL     1       8.748   1.481  31.234  1.00  0.00     0.007 A 
HETATM    7  C8  UNL     1       8.997   2.334  32.492  1.00  0.00    -0.014 A 
HETATM    8  C9  UNL     1      10.417   2.207  32.879  1.00  0.00     0.018 C 
HETATM    9  C10 UNL     1       7.938   2.020  33.517  1.00  0.00     0.030 C 
HETATM   10  C18 UNL     1       6.657   2.655  32.881  1.00  0.00     0.012 C 
HETATM   11  C19 UNL     1       7.203   3.981  32.375  1.00  0.00     0.023 C 
HETATM   12  C20 UNL     1       8.520   3.524  31.754  1.00  0.00     0.031 A 
HETATM   13  S1  UNL     1       9.676   4.879  31.480  1.00  0.00    -0.085 SA
ENDROOT
BRANCH   9  14
HETATM   14  C11 UNL     1       8.093   2.565  34.863  1.00  0.00    -0.029 A 
HETATM   15  C12 UNL     1       7.926   3.862  35.238  1.00  0.00     0.012 A 
HETATM   16  C13 UNL     1       8.055   4.288  36.573  1.00  0.00     0.040 A 
HETATM   17  C14 UNL     1       8.358   3.403  37.573  1.00  0.00     0.103 A 
HETATM   18  C16 UNL     1       8.529   2.077  37.201  1.00  0.00     0.121 A 
HETATM   19  C17 UNL     1       8.403   1.674  35.907  1.00  0.00     0.076 A 
HETATM   20 CL2  UNL     1       8.630  -0.010  35.456  1.00  0.00    -0.081 Cl
BRANCH  17  21
HETATM   21  O1  UNL     1       8.498   3.783  38.912  1.00  0.00    -0.353 OA
HETATM   22  C15 UNL     1       9.262   4.914  39.278  1.00  0.00     0.210 C 
ENDBRANCH  17  21
BRANCH  18  23
HETATM   23  O2  UNL     1       8.836   1.165  38.208  1.00  0.00    -0.356 OA
ATOM     24  H2  UNL     1       8.197   0.486  38.391  1.00  0.00     0.218 HD
ENDBRANCH  18  23
ENDBRANCH   9  14
BRANCH   1  25
HETATM   25  C2  UNL     1      10.198  -0.435  30.521  1.00  0.00     0.002 C 
HETATM   26  C1  UNL     1      11.584  -0.929  30.359  1.00  0.00     0.005 C 
ENDBRANCH   1  25
TORSDOF 4
ENDMDL
MODEL 2
REMARK VINA RESULT: -7.507127871      2.943      3.814
REMARK  4 active torsions:
REMARK  status: ('A' for Active; 'I' for Inactive)
REMARK    1  A    between atoms: C2_2  and  C3_3 
REMARK    2  A    between atoms: C10_11  and  C11_12 
REMARK    3  A    between atoms: C14_15  and  O1_16 
REMARK    4  A    between atoms: C16_18  and  O2_19 
ROOT
HETATM    1  C3  UNL     1       9.127   0.548  31.061  1.00  0.00     0.009 C 
HETATM    2  C4  UNL     1      10.458  -0.172  30.976  1.00  0.00     0.087 C 
HETATM    3 CL1  UNL     1      11.652   0.562  29.929  1.00  0.00    -0.125 Cl
HETATM    4  C5  UNL     1      10.909  -0.083  32.452  1.00  0.00     0.027 C 
HETATM    5  C6  UNL     1      10.534   1.353  32.821  1.00  0.00     0.012 A 
HETATM    6  C7  UNL     1       9.410   1.728  31.926  1.00  0.00     0.007 A 
HETATM    7  C8  UNL     1       8.522   1.927  33.168  1.00  0.00    -0.014 A 
HETATM    8  C9  UNL     1       7.320   1.078  33.032  1.00  0.00     0.018 C 
HETATM    9  C10 UNL     1       8.341   3.402  33.414  1.00  0.00     0.030 C 
HETATM   10  C18 UNL     1       9.764   3.838  33.897  1.00  0.00     0.012 C 
HETATM   11  C19 UNL     1      10.119   2.700  34.840  1.00  0.00     0.023 C 
HETATM   12  C20 UNL     1       9.654   1.500  34.020  1.00  0.00     0.031 A 
HETATM   13  S1  UNL     1       9.463   0.004  35.006  1.00  0.00    -0.085 SA
ENDROOT
BRANCH   9  14
HETATM   14  C11 UNL     1       7.371   3.824  34.421  1.00  0.00    -0.029 A 
HETATM   15  C12 UNL     1       7.581   3.911  35.762  1.00  0.00     0.012 A 
HETATM   16  C13 UNL     1       6.595   4.371  36.655  1.00  0.00     0.040 A 
HETATM   17  C14 UNL     1       5.360   4.759  36.208  1.00  0.00     0.103 A 
HETATM   18  C16 UNL     1       5.138   4.675  34.842  1.00  0.00     0.121 A 
HETATM   19  C17 UNL     1       6.097   4.228  33.986  1.00  0.00     0.076 A 
HETATM   20 CL2  UNL     1       5.791   4.123  32.257  1.00  0.00    -0.081 Cl
BRANCH  17  21
HETATM   21  O1  UNL     1       4.351   5.221  37.061  1.00  0.00    -0.353 OA
HETATM   22  C15 UNL     1       4.483   5.142  38.465  1.00  0.00     0.210 C 
ENDBRANCH  17  21
BRANCH  18  23
HETATM   23  O2  UNL     1       3.886   5.068  34.372  1.00  0.00    -0.356 OA
ATOM     24  H2  UNL     1       3.616   4.738  33.523  1.00  0.00     0.218 HD
ENDBRANCH  18  23
ENDBRANCH   9  14
BRANCH   1  25
HETATM   25  C2  UNL     1       8.581   0.865  29.724  1.00  0.00     0.002 C 
HETATM   26  C1  UNL     1       8.585   2.272  29.259  1.00  0.00     0.005 C 
ENDBRANCH   1  25
TORSDOF 4
ENDMDL
MODEL 3
REMARK VINA RESULT: -7.461251826      1.655      1.736
REMARK  4 active torsions:
REMARK  status: ('A' for Active; 'I' for Inactive)
REMARK    1  A    between atoms: C2_2  and  C3_3 
REMARK    2  A    between atoms: C10_11  and  C11_12 
REMARK    3  A    between atoms: C14_15  and  O1_16 
REMARK    4  A    between atoms: C16_18  and  O2_19 
ROOT
HETATM    1  C3  UNL     1      10.175   1.734  29.241  1.00  0.00     0.009 C 
HETATM    2  C4  UNL     1       9.286   1.815  28.015  1.00  0.00     0.087 C 
HETATM    3 CL1  UNL     1       8.444   0.342  27.592  1.00  0.00    -0.125 Cl
HETATM    4  C5  UNL     1       8.282   2.895  28.480  1.00  0.00     0.027 C 
HETATM    5  C6  UNL     1       8.009   2.485  29.928  1.00  0.00     0.012 A 
HETATM    6  C7  UNL     1       9.217   1.750  30.383  1.00  0.00     0.007 A 
HETATM    7  C8  UNL     1       9.426   2.821  31.470  1.00  0.00    -0.014 A 
HETATM    8  C9  UNL     1      10.782   3.389  31.321  1.00  0.00     0.018 C 
HETATM    9  C10 UNL     1       9.022   2.253  32.805  1.00  0.00     0.030 C 
HETATM   10  C18 UNL     1       7.467   2.154  32.671  1.00  0.00     0.012 C 
HETATM   11  C19 UNL     1       7.141   3.482  32.005  1.00  0.00     0.023 C 
HETATM   12  C20 UNL     1       8.245   3.547  30.953  1.00  0.00     0.031 A 
HETATM   13  S1  UNL     1       8.484   5.203  30.285  1.00  0.00    -0.085 SA
ENDROOT
BRANCH   9  14
HETATM   14  C11 UNL     1       9.326   3.026  34.007  1.00  0.00    -0.029 A 
HETATM   15  C12 UNL     1       8.685   4.147  34.434  1.00  0.00     0.012 A 
HETATM   16  C13 UNL     1       9.020   4.802  35.634  1.00  0.00     0.040 A 
HETATM   17  C14 UNL     1      10.023   4.333  36.440  1.00  0.00     0.103 A 
HETATM   18  C16 UNL     1      10.681   3.188  36.014  1.00  0.00     0.121 A 
HETATM   19  C17 UNL     1      10.350   2.562  34.852  1.00  0.00     0.076 A 
HETATM   20 CL2  UNL     1      11.203   1.117  34.326  1.00  0.00    -0.081 Cl
BRANCH  17  21
HETATM   21  O1  UNL     1      10.391   4.953  37.640  1.00  0.00    -0.353 OA
HETATM   22  C15 UNL     1       9.554   4.904  38.778  1.00  0.00     0.210 C 
ENDBRANCH  17  21
BRANCH  18  23
HETATM   23  O2  UNL     1      11.703   2.698  36.825  1.00  0.00    -0.356 OA
ATOM     24  H2  UNL     1      12.597   2.863  36.548  1.00  0.00     0.218 HD
ENDBRANCH  18  23
ENDBRANCH   9  14
BRANCH   1  25
HETATM   25  C2  UNL     1      11.079   0.565  29.195  1.00  0.00     0.002 C 
HETATM   26  C1  UNL     1      11.119  -0.360  30.351  1.00  0.00     0.005 C 
ENDBRANCH   1  25
TORSDOF 4
ENDMDL
MODEL 4
REMARK VINA RESULT: -7.459010093      2.214      3.421
REMARK  4 active torsions:
REMARK  status: ('A' for Active; 'I' for Inactive)
REMARK    1  A    between atoms: C2_2  and  C3_3 
REMARK    2  A    between atoms: C10_11  and  C11_12 
REMARK    3  A    between atoms: C14_15  and  O1_16 
REMARK    4  A    between atoms: C16_18  and  O2_19 
ROOT
HETATM    1  C3  UNL     1       8.999   3.234  30.826  1.00  0.00     0.009 C 
HETATM    2  C4  UNL     1       9.116   2.170  29.752  1.00  0.00     0.087 C 
HETATM    3 CL1  UNL     1      10.647   2.112  28.908  1.00  0.00    -0.125 Cl
HETATM    4  C5  UNL     1       8.924   0.898  30.609  1.00  0.00     0.027 C 
HETATM    5  C6  UNL     1       9.764   1.210  31.848  1.00  0.00     0.012 A 
HETATM    6  C7  UNL     1       9.799   2.691  31.961  1.00  0.00     0.007 A 
HETATM    7  C8  UNL     1       9.103   2.577  33.329  1.00  0.00    -0.014 A 
HETATM    8  C9  UNL     1       7.868   3.388  33.302  1.00  0.00     0.018 C 
HETATM    9  C10 UNL     1      10.113   2.834  34.418  1.00  0.00     0.030 C 
HETATM   10  C18 UNL     1      11.013   1.556  34.348  1.00  0.00     0.012 C 
HETATM   11  C19 UNL     1       9.967   0.464  34.186  1.00  0.00     0.023 C 
HETATM   12  C20 UNL     1       9.045   1.109  33.155  1.00  0.00     0.031 A 
HETATM   13  S1  UNL     1       7.427   0.322  33.068  1.00  0.00    -0.085 SA
ENDROOT
BRANCH   9  14
HETATM   14  C11 UNL     1       9.632   2.975  35.790  1.00  0.00    -0.029 A 
HETATM   15  C12 UNL     1       8.999   2.025  36.530  1.00  0.00     0.012 A 
HETATM   16  C13 UNL     1       8.609   2.239  37.865  1.00  0.00     0.040 A 
HETATM   17  C14 UNL     1       8.853   3.432  38.492  1.00  0.00     0.103 A 
HETATM   18  C16 UNL     1       9.501   4.406  37.746  1.00  0.00     0.121 A 
HETATM   19  C17 UNL     1       9.873   4.191  36.455  1.00  0.00     0.076 A 
HETATM   20 CL2  UNL     1      10.686   5.442  35.525  1.00  0.00    -0.081 Cl
BRANCH  17  21
HETATM   21  O1  UNL     1       8.482   3.688  39.817  1.00  0.00    -0.353 OA
HETATM   22  C15 UNL     1       7.174   4.111  40.143  1.00  0.00     0.210 C 
ENDBRANCH  17  21
BRANCH  18  23
HETATM   23  O2  UNL     1       9.758   5.624  38.371  1.00  0.00    -0.356 OA
ATOM     24  H2  UNL     1      10.025   6.350  37.819  1.00  0.00     0.218 HD
ENDBRANCH  18  23
ENDBRANCH   9  14
BRANCH   1  25
HETATM   25  C2  UNL     1       9.422   4.564  30.339  1.00  0.00     0.002 C 
HETATM   26  C1  UNL     1       8.742   5.151  29.162  1.00  0.00     0.005 C 
ENDBRANCH   1  25
TORSDOF 4
ENDMDL
MODEL 5
REMARK VINA RESULT: -7.300673186      3.796      7.215
REMARK  4 active torsions:
REMARK  status: ('A' for Active; 'I' for Inactive)
REMARK    1  A    between atoms: C2_2  and  C3_3 
REMARK    2  A    between atoms: C10_11  and  C11_12 
REMARK    3  A    between atoms: C14_15  and  O1_16 
REMARK    4  A    between atoms: C16_18  and  O2_19 
ROOT
HETATM    1  C3  UNL     1       9.924   3.300  36.668  1.00  0.00     0.009 C 
HETATM    2  C4  UNL     1       8.964   3.006  37.804  1.00  0.00     0.087 C 
HETATM    3 CL1  UNL     1       7.600   4.092  37.943  1.00  0.00    -0.125 Cl
HETATM    4  C5  UNL     1       8.488   1.593  37.396  1.00  0.00     0.027 C 
HETATM    5  C6  UNL     1       8.287   1.739  35.887  1.00  0.00     0.012 A 
HETATM    6  C7  UNL     1       9.202   2.826  35.453  1.00  0.00     0.007 A 
HETATM    7  C8  UNL     1       9.928   1.816  34.546  1.00  0.00    -0.014 A 
HETATM    8  C9  UNL     1      11.364   1.809  34.896  1.00  0.00     0.018 C 
HETATM    9  C10 UNL     1       9.535   2.069  33.113  1.00  0.00     0.030 C 
HETATM   10  C18 UNL     1       8.045   1.594  33.086  1.00  0.00     0.012 C 
HETATM   11  C19 UNL     1       8.129   0.306  33.891  1.00  0.00     0.023 C 
HETATM   12  C20 UNL     1       9.027   0.753  35.042  1.00  0.00     0.031 A 
HETATM   13  S1  UNL     1       9.749  -0.627  35.946  1.00  0.00    -0.085 SA
ENDROOT
BRANCH   9  14
HETATM   14  C11 UNL     1      10.257   1.359  32.060  1.00  0.00    -0.029 A 
HETATM   15  C12 UNL     1      10.755   0.095  32.128  1.00  0.00     0.012 A 
HETATM   16  C13 UNL     1      11.402  -0.524  31.042  1.00  0.00     0.040 A 
HETATM   17  C14 UNL     1      11.561   0.127  29.848  1.00  0.00     0.103 A 
HETATM   18  C16 UNL     1      11.055   1.416  29.769  1.00  0.00     0.121 A 
HETATM   19  C17 UNL     1      10.432   2.008  30.824  1.00  0.00     0.076 A 
HETATM   20 CL2  UNL     1       9.805   3.646  30.705  1.00  0.00    -0.081 Cl
BRANCH  17  21
HETATM   21  O1  UNL     1      12.199  -0.450  28.744  1.00  0.00    -0.353 OA
HETATM   22  C15 UNL     1      13.312  -1.306  28.904  1.00  0.00     0.210 C 
ENDBRANCH  17  21
BRANCH  18  23
HETATM   23  O2  UNL     1      11.209   2.090  28.559  1.00  0.00    -0.356 OA
ATOM     24  H2  UNL     1      12.063   2.050  28.143  1.00  0.00     0.218 HD
ENDBRANCH  18  23
ENDBRANCH   9  14
BRANCH   1  25
HETATM   25  C2  UNL     1      10.333   4.721  36.641  1.00  0.00     0.002 C 
HETATM   26  C1  UNL     1      10.116   5.510  35.406  1.00  0.00     0.005 C 
ENDBRANCH   1  25
TORSDOF 4
ENDMDL
