MODEL 1
REMARK VINA RESULT: -8.401464904      0.000      0.000
REMARK  5 active torsions:
REMARK  status: ('A' for Active; 'I' for Inactive)
REMARK    1  A    between atoms: C2_2  and  C3_3 
REMARK    2  A    between atoms: C2_2  and  C8_13 
REMARK    3  A    between atoms: C3_3  and  C4_4 
REMARK    4  A    between atoms: C5_5  and  O1_6 
REMARK    5  A    between atoms: C7_10  and  O3_11 
ROOT
HETATM    1  C8  UNL     1       8.060   2.383  33.918  1.00  0.00    -0.065 C 
HETATM    2  C9  UNL     1       7.712   0.951  34.009  1.00  0.00     0.036 C 
HETATM    3  C10 UNL     1       9.017   0.267  33.609  1.00  0.00     0.015 C 
HETATM    4  C11 UNL     1       9.841   1.315  32.903  1.00  0.00     0.035 C 
HETATM    5  C12 UNL     1      10.232   0.910  31.550  1.00  0.00    -0.042 A 
HETATM    6  C13 UNL     1      11.301   0.131  31.131  1.00  0.00     0.027 A 
HETATM    7  C14 UNL     1      11.504  -0.139  29.783  1.00  0.00     0.011 A 
HETATM    8 BR1  UNL     1      12.985  -1.216  29.212  1.00  0.00    -0.051 Br
HETATM    9  C15 UNL     1      10.606   0.396  28.891  1.00  0.00     0.020 A 
HETATM   10  C16 UNL     1       9.542   1.173  29.311  1.00  0.00     0.012 A 
HETATM   11  C17 UNL     1       9.339   1.442  30.654  1.00  0.00    -0.017 A 
HETATM   12  C18 UNL     1       8.299   2.234  31.384  1.00  0.00     0.216 C 
HETATM   13  F1  UNL     1       8.128   3.375  30.604  1.00  0.00    -0.243 F 
HETATM   14  C19 UNL     1       8.896   2.500  32.695  1.00  0.00     0.022 C 
HETATM   15  C20 UNL     1       9.683   3.797  32.639  1.00  0.00     0.024 C 
ENDROOT
BRANCH   1  16
HETATM   16  C2  UNL     1       7.062   3.403  34.206  1.00  0.00    -0.076 C 
HETATM   17  C1  UNL     1       5.674   3.211  33.650  1.00  0.00     0.044 C 
BRANCH  16  18
HETATM   18  C3  UNL     1       7.064   4.080  35.523  1.00  0.00     0.080 C 
BRANCH  18  19
HETATM   19  C4  UNL     1       8.305   4.229  36.260  1.00  0.00     0.039 A 
HETATM   20  C5  UNL     1       9.349   5.100  36.119  1.00  0.00     0.099 A 
HETATM   21  C6  UNL     1      10.327   4.787  37.072  1.00  0.00     0.182 A 
HETATM   22  O2  UNL     1       9.890   3.780  37.749  1.00  0.00    -0.297 OA
HETATM   23  C7  UNL     1       8.696   3.406  37.314  1.00  0.00     0.192 A 
BRANCH  20  24
HETATM   24  O1  UNL     1       9.471   6.137  35.212  1.00  0.00    -0.358 OA
ATOM     25  H1  UNL     1       9.147   7.025  35.298  1.00  0.00     0.217 HD
ENDBRANCH  20  24
BRANCH  23  26
HETATM   26  O3  UNL     1       8.009   2.344  37.876  1.00  0.00    -0.340 OA
ATOM     27  H3  UNL     1       8.141   1.939  38.725  1.00  0.00     0.220 HD
ENDBRANCH  23  26
ENDBRANCH  18  19
ENDBRANCH  16  18
ENDBRANCH   1  16
TORSDOF 5
ENDMDL
MODEL 2
REMARK VINA RESULT: -8.275365644      0.382      1.552
REMARK  5 active torsions:
REMARK  status: ('A' for Active; 'I' for Inactive)
REMARK    1  A    between atoms: C2_2  and  C3_3 
REMARK    2  A    between atoms: C2_2  and  C8_13 
REMARK    3  A    between atoms: C3_3  and  C4_4 
REMARK    4  A    between atoms: C5_5  and  O1_6 
REMARK    5  A    between atoms: C7_10  and  O3_11 
ROOT
HETATM    1  C8  UNL     1       8.102   2.438  33.935  1.00  0.00    -0.065 C 
HETATM    2  C9  UNL     1       7.746   1.010  34.059  1.00  0.00     0.036 C 
HETATM    3  C10 UNL     1       9.043   0.310  33.658  1.00  0.00     0.015 C 
HETATM    4  C11 UNL     1       9.864   1.339  32.923  1.00  0.00     0.035 C 
HETATM    5  C12 UNL     1      10.239   0.905  31.573  1.00  0.00    -0.042 A 
HETATM    6  C13 UNL     1      11.298   0.110  31.158  1.00  0.00     0.027 A 
HETATM    7  C14 UNL     1      11.485  -0.187  29.814  1.00  0.00     0.011 A 
HETATM    8 BR1  UNL     1      12.953  -1.285  29.249  1.00  0.00    -0.051 Br
HETATM    9  C15 UNL     1      10.580   0.335  28.921  1.00  0.00     0.020 A 
HETATM   10  C16 UNL     1       9.525   1.126  29.338  1.00  0.00     0.012 A 
HETATM   11  C17 UNL     1       9.338   1.424  30.677  1.00  0.00    -0.017 A 
HETATM   12  C18 UNL     1       8.311   2.236  31.402  1.00  0.00     0.216 C 
HETATM   13  F1  UNL     1       8.139   3.363  30.601  1.00  0.00    -0.243 F 
HETATM   14  C19 UNL     1       8.925   2.525  32.701  1.00  0.00     0.022 C 
HETATM   15  C20 UNL     1       9.718   3.816  32.610  1.00  0.00     0.024 C 
ENDROOT
BRANCH   1  16
HETATM   16  C2  UNL     1       7.113   3.470  34.214  1.00  0.00    -0.076 C 
HETATM   17  C1  UNL     1       5.708   3.256  33.710  1.00  0.00     0.044 C 
BRANCH  16  18
HETATM   18  C3  UNL     1       7.157   4.199  35.501  1.00  0.00     0.080 C 
BRANCH  18  19
HETATM   19  C4  UNL     1       8.390   4.252  36.263  1.00  0.00     0.039 A 
HETATM   20  C5  UNL     1       8.850   3.496  37.305  1.00  0.00     0.099 A 
HETATM   21  C6  UNL     1      10.096   3.993  37.706  1.00  0.00     0.182 A 
HETATM   22  O2  UNL     1      10.368   4.997  36.942  1.00  0.00    -0.297 OA
HETATM   23  C7  UNL     1       9.395   5.198  36.067  1.00  0.00     0.192 A 
BRANCH  20  24
HETATM   24  O1  UNL     1       8.236   2.409  37.898  1.00  0.00    -0.358 OA
ATOM     25  H1  UNL     1       8.620   1.566  38.107  1.00  0.00     0.217 HD
ENDBRANCH  20  24
BRANCH  23  26
HETATM   26  O3  UNL     1       9.445   6.218  35.133  1.00  0.00    -0.340 OA
ATOM     27  H3  UNL     1      10.205   6.575  34.691  1.00  0.00     0.220 HD
ENDBRANCH  23  26
ENDBRANCH  18  19
ENDBRANCH  16  18
ENDBRANCH   1  16
TORSDOF 5
ENDMDL
MODEL 3
REMARK VINA RESULT: -8.105407641      4.208      7.056
REMARK  5 active torsions:
REMARK  status: ('A' for Active; 'I' for Inactive)
REMARK    1  A    between atoms: C2_2  and  C3_3 
REMARK    2  A    between atoms: C2_2  and  C8_13 
REMARK    3  A    between atoms: C3_3  and  C4_4 
REMARK    4  A    between atoms: C5_5  and  O1_6 
REMARK    5  A    between atoms: C7_10  and  O3_11 
ROOT
HETATM    1  C8  UNL     1       8.941   1.204  31.944  1.00  0.00    -0.065 C 
HETATM    2  C9  UNL     1       8.230   0.164  32.716  1.00  0.00     0.036 C 
HETATM    3  C10 UNL     1       6.873   0.815  32.976  1.00  0.00     0.015 C 
HETATM    4  C11 UNL     1       7.065   2.292  32.742  1.00  0.00     0.035 C 
HETATM    5  C12 UNL     1       6.696   3.102  33.906  1.00  0.00    -0.042 A 
HETATM    6  C13 UNL     1       5.452   3.570  34.305  1.00  0.00     0.027 A 
HETATM    7  C14 UNL     1       5.310   4.336  35.455  1.00  0.00     0.011 A 
HETATM    8 BR1  UNL     1       3.586   4.979  35.997  1.00  0.00    -0.051 Br
HETATM    9  C15 UNL     1       6.448   4.607  36.176  1.00  0.00     0.020 A 
HETATM   10  C16 UNL     1       7.687   4.140  35.777  1.00  0.00     0.012 A 
HETATM   11  C17 UNL     1       7.829   3.376  34.630  1.00  0.00    -0.017 A 
HETATM   12  C18 UNL     1       9.018   2.751  33.969  1.00  0.00     0.216 C 
HETATM   13  F1  UNL     1      10.011   3.723  34.060  1.00  0.00    -0.243 F 
HETATM   14  C19 UNL     1       8.575   2.487  32.597  1.00  0.00     0.022 C 
HETATM   15  C20 UNL     1       8.870   3.697  31.729  1.00  0.00     0.024 C 
ENDROOT
BRANCH   1  16
HETATM   16  C2  UNL     1      10.312   0.985  31.505  1.00  0.00    -0.076 C 
HETATM   17  C1  UNL     1      11.271   0.345  32.476  1.00  0.00     0.044 C 
BRANCH  16  18
HETATM   18  C3  UNL     1      10.580   0.608  30.099  1.00  0.00     0.080 C 
BRANCH  18  19
HETATM   19  C4  UNL     1      10.046   1.414  29.017  1.00  0.00     0.039 A 
HETATM   20  C5  UNL     1      10.380   2.657  28.557  1.00  0.00     0.099 A 
HETATM   21  C6  UNL     1       9.519   2.994  27.505  1.00  0.00     0.182 A 
HETATM   22  O2  UNL     1       8.710   2.002  27.344  1.00  0.00    -0.297 OA
HETATM   23  C7  UNL     1       8.974   1.036  28.210  1.00  0.00     0.192 A 
BRANCH  20  24
HETATM   24  O1  UNL     1      11.391   3.484  29.010  1.00  0.00    -0.358 OA
ATOM     25  H1  UNL     1      11.304   4.309  29.472  1.00  0.00     0.217 HD
ENDBRANCH  20  24
BRANCH  23  26
HETATM   26  O3  UNL     1       8.246  -0.141  28.245  1.00  0.00    -0.340 OA
ATOM     27  H3  UNL     1       7.413  -0.330  27.831  1.00  0.00     0.220 HD
ENDBRANCH  23  26
ENDBRANCH  18  19
ENDBRANCH  16  18
ENDBRANCH   1  16
TORSDOF 5
ENDMDL
MODEL 4
REMARK VINA RESULT: -8.035549008      2.509      3.836
REMARK  5 active torsions:
REMARK  status: ('A' for Active; 'I' for Inactive)
REMARK    1  A    between atoms: C2_2  and  C3_3 
REMARK    2  A    between atoms: C2_2  and  C8_13 
REMARK    3  A    between atoms: C3_3  and  C4_4 
REMARK    4  A    between atoms: C5_5  and  O1_6 
REMARK    5  A    between atoms: C7_10  and  O3_11 
ROOT
HETATM    1  C8  UNL     1       7.665   1.947  33.560  1.00  0.00    -0.065 C 
HETATM    2  C9  UNL     1       7.125   0.634  33.152  1.00  0.00     0.036 C 
HETATM    3  C10 UNL     1       8.392  -0.164  32.848  1.00  0.00     0.015 C 
HETATM    4  C11 UNL     1       9.493   0.850  32.669  1.00  0.00     0.035 C 
HETATM    5  C12 UNL     1      10.160   0.738  31.368  1.00  0.00    -0.042 A 
HETATM    6  C13 UNL     1      11.192  -0.100  30.969  1.00  0.00     0.027 A 
HETATM    7  C14 UNL     1      11.694  -0.050  29.675  1.00  0.00     0.011 A 
HETATM    8 BR1  UNL     1      13.122  -1.210  29.133  1.00  0.00    -0.051 Br
HETATM    9  C15 UNL     1      11.127   0.858  28.814  1.00  0.00     0.020 A 
HETATM   10  C16 UNL     1      10.098   1.692  29.214  1.00  0.00     0.012 A 
HETATM   11  C17 UNL     1       9.598   1.643  30.504  1.00  0.00    -0.017 A 
HETATM   12  C18 UNL     1       8.516   2.407  31.201  1.00  0.00     0.216 C 
HETATM   13  F1  UNL     1       8.695   3.720  30.774  1.00  0.00    -0.243 F 
HETATM   14  C19 UNL     1       8.791   2.208  32.627  1.00  0.00     0.022 C 
HETATM   15  C20 UNL     1       9.724   3.300  33.119  1.00  0.00     0.024 C 
ENDROOT
BRANCH   1  16
HETATM   16  C2  UNL     1       6.763   3.032  33.922  1.00  0.00    -0.076 C 
HETATM   17  C1  UNL     1       7.241   4.037  34.939  1.00  0.00     0.044 C 
BRANCH  16  18
HETATM   18  C3  UNL     1       5.884   3.629  32.893  1.00  0.00     0.080 C 
BRANCH  18  19
HETATM   19  C4  UNL     1       4.649   4.284  33.284  1.00  0.00     0.039 A 
HETATM   20  C5  UNL     1       3.489   3.796  33.818  1.00  0.00     0.099 A 
HETATM   21  C6  UNL     1       2.586   4.855  33.972  1.00  0.00     0.182 A 
HETATM   22  O2  UNL     1       3.176   5.923  33.553  1.00  0.00    -0.297 OA
HETATM   23  C7  UNL     1       4.401   5.647  33.134  1.00  0.00     0.192 A 
BRANCH  20  24
HETATM   24  O1  UNL     1       3.203   2.491  34.171  1.00  0.00    -0.358 OA
ATOM     25  H1  UNL     1       2.759   1.832  33.650  1.00  0.00     0.217 HD
ENDBRANCH  20  24
BRANCH  23  26
HETATM   26  O3  UNL     1       5.244   6.624  32.634  1.00  0.00    -0.340 OA
ATOM     27  H3  UNL     1       5.149   7.567  32.684  1.00  0.00     0.220 HD
ENDBRANCH  23  26
ENDBRANCH  18  19
ENDBRANCH  16  18
ENDBRANCH   1  16
TORSDOF 5
ENDMDL
MODEL 5
REMARK VINA RESULT: -8.027904886      4.241      7.075
REMARK  5 active torsions:
REMARK  status: ('A' for Active; 'I' for Inactive)
REMARK    1  A    between atoms: C2_2  and  C3_3 
REMARK    2  A    between atoms: C2_2  and  C8_13 
REMARK    3  A    between atoms: C3_3  and  C4_4 
REMARK    4  A    between atoms: C5_5  and  O1_6 
REMARK    5  A    between atoms: C7_10  and  O3_11 
ROOT
HETATM    1  C8  UNL     1       9.841   1.505  31.862  1.00  0.00    -0.065 C 
HETATM    2  C9  UNL     1       8.633   2.352  31.795  1.00  0.00     0.036 C 
HETATM    3  C10 UNL     1       8.898   3.394  32.880  1.00  0.00     0.015 C 
HETATM    4  C11 UNL     1       9.977   2.816  33.760  1.00  0.00     0.035 C 
HETATM    5  C12 UNL     1       9.574   2.730  35.167  1.00  0.00    -0.042 A 
HETATM    6  C13 UNL     1       9.612   3.696  36.162  1.00  0.00     0.027 A 
HETATM    7  C14 UNL     1       9.181   3.412  37.452  1.00  0.00     0.011 A 
HETATM    8 BR1  UNL     1       9.239   4.753  38.822  1.00  0.00    -0.051 Br
HETATM    9  C15 UNL     1       8.719   2.141  37.696  1.00  0.00     0.020 A 
HETATM   10  C16 UNL     1       8.682   1.179  36.703  1.00  0.00     0.012 A 
HETATM   11  C17 UNL     1       9.112   1.462  35.417  1.00  0.00    -0.017 A 
HETATM   12  C18 UNL     1       9.187   0.639  34.169  1.00  0.00     0.216 C 
HETATM   13  F1  UNL     1       9.659  -0.598  34.603  1.00  0.00    -0.243 F 
HETATM   14  C19 UNL     1      10.131   1.362  33.312  1.00  0.00     0.022 C 
HETATM   15  C20 UNL     1      11.541   0.871  33.586  1.00  0.00     0.024 C 
ENDROOT
BRANCH   1  16
HETATM   16  C2  UNL     1       9.981   0.353  30.983  1.00  0.00    -0.076 C 
HETATM   17  C1  UNL     1       8.866  -0.661  30.965  1.00  0.00     0.044 C 
BRANCH  16  18
HETATM   18  C3  UNL     1      10.635   0.512  29.665  1.00  0.00     0.080 C 
BRANCH  18  19
HETATM   19  C4  UNL     1      10.090   1.440  28.691  1.00  0.00     0.039 A 
HETATM   20  C5  UNL     1      10.426   2.726  28.372  1.00  0.00     0.099 A 
HETATM   21  C6  UNL     1       9.552   3.186  27.380  1.00  0.00     0.182 A 
HETATM   22  O2  UNL     1       8.733   2.224  27.119  1.00  0.00    -0.297 OA
HETATM   23  C7  UNL     1       9.004   1.163  27.863  1.00  0.00     0.192 A 
BRANCH  20  24
HETATM   24  O1  UNL     1      11.450   3.490  28.901  1.00  0.00    -0.358 OA
ATOM     25  H1  UNL     1      11.770   4.329  28.591  1.00  0.00     0.217 HD
ENDBRANCH  20  24
BRANCH  23  26
HETATM   26  O3  UNL     1       8.268  -0.006  27.774  1.00  0.00    -0.340 OA
ATOM     27  H3  UNL     1       8.381  -0.728  27.168  1.00  0.00     0.220 HD
ENDBRANCH  23  26
ENDBRANCH  18  19
ENDBRANCH  16  18
ENDBRANCH   1  16
TORSDOF 5
ENDMDL
