MODEL 1
REMARK VINA RESULT: -7.595809344      0.000      0.000
REMARK  14 active torsions:
REMARK  status: ('A' for Active; 'I' for Inactive)
REMARK    1  A    between atoms: C4_4  and  C5_5 
REMARK    2  A    between atoms: C5_5  and  C7_7 
REMARK    3  A    between atoms: C7_7  and  O1_8 
REMARK    4  A    between atoms: C7_7  and  C8_10 
REMARK    5  A    between atoms: C8_10  and  C9_11 
REMARK    6  A    between atoms: C22_25  and  O3_26 
REMARK    7  A    between atoms: O3_26  and  C23_27 
REMARK    8  A    between atoms: C23_27  and  C24_29 
REMARK    9  A    between atoms: C25_32  and  C26_33 
REMARK   10  A    between atoms: C26_33  and  O7_34 
REMARK   11  A    between atoms: C26_33  and  C27_36 
REMARK   12  A    between atoms: C27_36  and  C29_38 
REMARK   13  A    between atoms: C29_38  and  C30_39 
REMARK   14  A    between atoms: C30_39  and  C31_41 
ROOT
HETATM    1  C9  UNL     1      -4.134   1.566  25.170  1.00  0.00     0.021 C 
HETATM    2  C10 UNL     1      -3.814   0.916  26.477  1.00  0.00    -0.083 C 
HETATM    3  C11 UNL     1      -4.216  -0.466  26.856  1.00  0.00     0.043 C 
HETATM    4  C12 UNL     1      -3.120   1.749  27.248  1.00  0.00    -0.018 C 
HETATM    5  C13 UNL     1      -2.859   3.034  26.641  1.00  0.00     0.025 C 
HETATM    6  C14 UNL     1      -3.284   2.760  25.178  1.00  0.00     0.006 C 
HETATM    7  C15 UNL     1      -3.935   4.042  24.746  1.00  0.00    -0.013 C 
HETATM    8  C16 UNL     1      -5.285   4.171  25.465  1.00  0.00     0.010 C 
HETATM    9  C17 UNL     1      -2.993   5.155  25.156  1.00  0.00     0.005 C 
HETATM   10  C18 UNL     1      -1.625   4.719  25.488  1.00  0.00     0.014 C 
HETATM   11  C19 UNL     1      -1.518   3.585  26.522  1.00  0.00     0.004 C 
HETATM   12  C20 UNL     1      -0.572   2.595  25.876  1.00  0.00     0.163 A 
HETATM   13  O2  UNL     1      -0.396   1.324  26.343  1.00  0.00    -0.372 OA
HETATM   14  C21 UNL     1       0.528   2.323  26.660  1.00  0.00     0.181 A 
HETATM   15  C22 UNL     1       0.279   2.984  28.030  1.00  0.00     0.171 C 
HETATM   16  C25 UNL     1      -0.779   4.055  27.745  1.00  0.00     0.059 C 
ENDROOT
BRANCH  16  17
HETATM   17  C26 UNL     1      -1.596   4.379  28.911  1.00  0.00     0.129 C 
BRANCH  17  18
HETATM   18  O7  UNL     1      -2.336   5.570  28.605  1.00  0.00    -0.395 OA
ATOM     19  H7  UNL     1      -1.721   6.293  28.587  1.00  0.00     0.210 HD
ENDBRANCH  17  18
BRANCH  17  20
HETATM   20  C27 UNL     1      -0.910   4.720  30.172  1.00  0.00     0.018 C 
HETATM   21  C28 UNL     1      -2.009   5.382  31.118  1.00  0.00     0.013 C 
BRANCH  20  22
HETATM   22  C29 UNL     1       0.139   5.791  30.186  1.00  0.00     0.088 C 
BRANCH  22  23
HETATM   23  C30 UNL     1       1.515   5.494  30.513  1.00  0.00     0.166 C 
HETATM   24  O8  UNL     1       1.817   4.823  31.479  1.00  0.00    -0.295 OA
BRANCH  23  25
HETATM   25  C31 UNL     1       2.633   5.998  29.675  1.00  0.00     0.300 A 
HETATM   26  O9  UNL     1       2.699   5.465  28.327  1.00  0.00    -0.296 OA
HETATM   27  C32 UNL     1       3.701   5.050  29.351  1.00  0.00     0.297 A 
HETATM   28  O10 UNL     1       4.698   4.313  29.463  1.00  0.00    -0.262 OA
ENDBRANCH  23  25
ENDBRANCH  22  23
ENDBRANCH  20  22
ENDBRANCH  17  20
ENDBRANCH  16  17
BRANCH  15  29
HETATM   29  O3  UNL     1      -0.171   2.006  28.897  1.00  0.00    -0.304 OA
BRANCH  29  30
HETATM   30  C23 UNL     1       0.543   1.142  29.673  1.00  0.00     0.360 C 
HETATM   31  O4  UNL     1       1.185   1.629  30.629  1.00  0.00    -0.252 OA
BRANCH  30  32
HETATM   32  C24 UNL     1       0.528  -0.276  29.365  1.00  0.00     0.277 C 
HETATM   33  O5  UNL     1       1.187  -0.743  28.402  1.00  0.00    -0.640 OA
HETATM   34  O6  UNL     1      -0.208  -1.204  30.108  1.00  0.00    -0.640 OA
ENDBRANCH  30  32
ENDBRANCH  29  30
ENDBRANCH  15  29
BRANCH   1  35
HETATM   35  C8  UNL     1      -3.661   0.561  24.103  1.00  0.00     0.042 C 
BRANCH  35  36
HETATM   36  C7  UNL     1      -4.800  -0.089  23.412  1.00  0.00     0.126 C 
BRANCH  36  37
HETATM   37  C5  UNL     1      -4.644   0.137  21.889  1.00  0.00     0.033 C 
HETATM   38  C6  UNL     1      -3.656  -0.837  21.355  1.00  0.00     0.017 C 
BRANCH  37  39
HETATM   39  C4  UNL     1      -4.281   1.556  21.762  1.00  0.00    -0.018 C 
HETATM   40  C2  UNL     1      -4.445   2.463  20.869  1.00  0.00    -0.091 C 
HETATM   41  C1  UNL     1      -3.890   3.857  21.157  1.00  0.00     0.042 C 
HETATM   42  C3  UNL     1      -5.115   2.308  19.574  1.00  0.00     0.042 C 
ENDBRANCH  37  39
ENDBRANCH  36  37
BRANCH  36  43
HETATM   43  O1  UNL     1      -4.820  -1.471  23.622  1.00  0.00    -0.395 OA
ATOM     44  H1  UNL     1      -4.047  -1.687  24.130  1.00  0.00     0.210 HD
ENDBRANCH  36  43
ENDBRANCH  35  36
ENDBRANCH   1  35
TORSDOF 14
ENDMDL
MODEL 2
REMARK VINA RESULT: -7.495543400      0.825      1.012
REMARK  14 active torsions:
REMARK  status: ('A' for Active; 'I' for Inactive)
REMARK    1  A    between atoms: C4_4  and  C5_5 
REMARK    2  A    between atoms: C5_5  and  C7_7 
REMARK    3  A    between atoms: C7_7  and  O1_8 
REMARK    4  A    between atoms: C7_7  and  C8_10 
REMARK    5  A    between atoms: C8_10  and  C9_11 
REMARK    6  A    between atoms: C22_25  and  O3_26 
REMARK    7  A    between atoms: O3_26  and  C23_27 
REMARK    8  A    between atoms: C23_27  and  C24_29 
REMARK    9  A    between atoms: C25_32  and  C26_33 
REMARK   10  A    between atoms: C26_33  and  O7_34 
REMARK   11  A    between atoms: C26_33  and  C27_36 
REMARK   12  A    between atoms: C27_36  and  C29_38 
REMARK   13  A    between atoms: C29_38  and  C30_39 
REMARK   14  A    between atoms: C30_39  and  C31_41 
ROOT
HETATM    1  C9  UNL     1      -4.129   1.464  25.173  1.00  0.00     0.021 C 
HETATM    2  C10 UNL     1      -3.776   0.817  26.473  1.00  0.00    -0.083 C 
HETATM    3  C11 UNL     1      -4.126  -0.581  26.844  1.00  0.00     0.043 C 
HETATM    4  C12 UNL     1      -3.106   1.668  27.245  1.00  0.00    -0.018 C 
HETATM    5  C13 UNL     1      -2.896   2.966  26.646  1.00  0.00     0.025 C 
HETATM    6  C14 UNL     1      -3.323   2.688  25.184  1.00  0.00     0.006 C 
HETATM    7  C15 UNL     1      -4.023   3.949  24.766  1.00  0.00    -0.013 C 
HETATM    8  C16 UNL     1      -5.370   4.025  25.497  1.00  0.00     0.010 C 
HETATM    9  C17 UNL     1      -3.117   5.092  25.178  1.00  0.00     0.005 C 
HETATM   10  C18 UNL     1      -1.732   4.702  25.496  1.00  0.00     0.014 C 
HETATM   11  C19 UNL     1      -1.576   3.565  26.520  1.00  0.00     0.004 C 
HETATM   12  C20 UNL     1      -0.601   2.615  25.859  1.00  0.00     0.163 A 
HETATM   13  O2  UNL     1      -0.376   1.347  26.315  1.00  0.00    -0.372 OA
HETATM   14  C21 UNL     1       0.514   2.376  26.633  1.00  0.00     0.181 A 
HETATM   15  C22 UNL     1       0.253   3.017  28.010  1.00  0.00     0.171 C 
HETATM   16  C25 UNL     1      -0.845   4.052  27.742  1.00  0.00     0.059 C 
ENDROOT
BRANCH  16  17
HETATM   17  C26 UNL     1      -1.663   4.338  28.917  1.00  0.00     0.129 C 
BRANCH  17  18
HETATM   18  O7  UNL     1      -2.231   5.645  28.742  1.00  0.00    -0.395 OA
ATOM     19  H7  UNL     1      -2.458   5.976  29.602  1.00  0.00     0.210 HD
ENDBRANCH  17  18
BRANCH  17  20
HETATM   20  C27 UNL     1      -0.996   4.430  30.229  1.00  0.00     0.018 C 
HETATM   21  C28 UNL     1      -2.146   4.341  31.327  1.00  0.00     0.013 C 
BRANCH  20  22
HETATM   22  C29 UNL     1      -0.328   5.709  30.639  1.00  0.00     0.088 C 
BRANCH  22  23
HETATM   23  C30 UNL     1       1.021   6.022  30.225  1.00  0.00     0.166 C 
HETATM   24  O8  UNL     1       1.981   5.406  30.643  1.00  0.00    -0.295 OA
BRANCH  23  25
HETATM   25  C31 UNL     1       1.299   7.117  29.261  1.00  0.00     0.300 A 
HETATM   26  O9  UNL     1       0.272   7.350  28.262  1.00  0.00    -0.296 OA
HETATM   27  C32 UNL     1       1.573   6.730  27.876  1.00  0.00     0.297 A 
HETATM   28  O10 UNL     1       2.154   6.289  26.868  1.00  0.00    -0.262 OA
ENDBRANCH  23  25
ENDBRANCH  22  23
ENDBRANCH  20  22
ENDBRANCH  17  20
ENDBRANCH  16  17
BRANCH  15  29
HETATM   29  O3  UNL     1      -0.155   2.018  28.873  1.00  0.00    -0.304 OA
BRANCH  29  30
HETATM   30  C23 UNL     1       0.595   1.159  29.619  1.00  0.00     0.360 C 
HETATM   31  O4  UNL     1       1.291   1.654  30.532  1.00  0.00    -0.252 OA
BRANCH  30  32
HETATM   32  C24 UNL     1       0.555  -0.263  29.331  1.00  0.00     0.277 C 
HETATM   33  O5  UNL     1       1.190  -0.752  28.363  1.00  0.00    -0.640 OA
HETATM   34  O6  UNL     1      -0.180  -1.170  30.099  1.00  0.00    -0.640 OA
ENDBRANCH  30  32
ENDBRANCH  29  30
ENDBRANCH  15  29
BRANCH   1  35
HETATM   35  C8  UNL     1      -3.630   0.485  24.095  1.00  0.00     0.042 C 
BRANCH  35  36
HETATM   36  C7  UNL     1      -4.750  -0.215  23.421  1.00  0.00     0.126 C 
BRANCH  36  37
HETATM   37  C5  UNL     1      -4.633   0.025  21.896  1.00  0.00     0.033 C 
HETATM   38  C6  UNL     1      -3.653  -0.940  21.330  1.00  0.00     0.017 C 
BRANCH  37  39
HETATM   39  C4  UNL     1      -4.280   1.447  21.773  1.00  0.00    -0.018 C 
HETATM   40  C2  UNL     1      -4.456   2.356  20.884  1.00  0.00    -0.091 C 
HETATM   41  C1  UNL     1      -3.909   3.752  21.174  1.00  0.00     0.042 C 
HETATM   42  C3  UNL     1      -5.131   2.201  19.593  1.00  0.00     0.042 C 
ENDBRANCH  37  39
ENDBRANCH  36  37
BRANCH  36  43
HETATM   43  O1  UNL     1      -4.701  -1.597  23.624  1.00  0.00    -0.395 OA
ATOM     44  H1  UNL     1      -5.439  -1.823  24.179  1.00  0.00     0.210 HD
ENDBRANCH  36  43
ENDBRANCH  35  36
ENDBRANCH   1  35
TORSDOF 14
ENDMDL
MODEL 3
REMARK VINA RESULT: -7.378749618      1.279      1.785
REMARK  14 active torsions:
REMARK  status: ('A' for Active; 'I' for Inactive)
REMARK    1  A    between atoms: C4_4  and  C5_5 
REMARK    2  A    between atoms: C5_5  and  C7_7 
REMARK    3  A    between atoms: C7_7  and  O1_8 
REMARK    4  A    between atoms: C7_7  and  C8_10 
REMARK    5  A    between atoms: C8_10  and  C9_11 
REMARK    6  A    between atoms: C22_25  and  O3_26 
REMARK    7  A    between atoms: O3_26  and  C23_27 
REMARK    8  A    between atoms: C23_27  and  C24_29 
REMARK    9  A    between atoms: C25_32  and  C26_33 
REMARK   10  A    between atoms: C26_33  and  O7_34 
REMARK   11  A    between atoms: C26_33  and  C27_36 
REMARK   12  A    between atoms: C27_36  and  C29_38 
REMARK   13  A    between atoms: C29_38  and  C30_39 
REMARK   14  A    between atoms: C30_39  and  C31_41 
ROOT
HETATM    1  C9  UNL     1      -4.241   1.235  24.805  1.00  0.00     0.021 C 
HETATM    2  C10 UNL     1      -4.061   0.332  25.982  1.00  0.00    -0.083 C 
HETATM    3  C11 UNL     1      -4.532  -1.079  26.045  1.00  0.00     0.043 C 
HETATM    4  C12 UNL     1      -3.422   0.969  26.959  1.00  0.00    -0.018 C 
HETATM    5  C13 UNL     1      -3.073   2.334  26.642  1.00  0.00     0.025 C 
HETATM    6  C14 UNL     1      -3.367   2.368  25.122  1.00  0.00     0.006 C 
HETATM    7  C15 UNL     1      -3.942   3.736  24.896  1.00  0.00    -0.013 C 
HETATM    8  C16 UNL     1      -5.349   3.781  25.507  1.00  0.00     0.010 C 
HETATM    9  C17 UNL     1      -3.014   4.707  25.597  1.00  0.00     0.005 C 
HETATM   10  C18 UNL     1      -1.695   4.156  25.954  1.00  0.00     0.014 C 
HETATM   11  C19 UNL     1      -1.713   2.839  26.750  1.00  0.00     0.004 C 
HETATM   12  C20 UNL     1      -0.736   1.954  26.006  1.00  0.00     0.163 A 
HETATM   13  O2  UNL     1      -0.637   0.610  26.226  1.00  0.00    -0.372 OA
HETATM   14  C21 UNL     1       0.278   1.488  26.813  1.00  0.00     0.181 A 
HETATM   15  C22 UNL     1      -0.081   1.880  28.260  1.00  0.00     0.171 C 
HETATM   16  C25 UNL     1      -1.080   3.031  28.101  1.00  0.00     0.059 C 
ENDROOT
BRANCH  16  17
HETATM   17  C26 UNL     1      -1.994   3.158  29.233  1.00  0.00     0.129 C 
BRANCH  17  18
HETATM   18  O7  UNL     1      -2.539   4.486  29.203  1.00  0.00    -0.395 OA
ATOM     19  H7  UNL     1      -1.810   5.094  29.176  1.00  0.00     0.210 HD
ENDBRANCH  17  18
BRANCH  17  20
HETATM   20  C27 UNL     1      -1.439   3.048  30.595  1.00  0.00     0.018 C 
HETATM   21  C28 UNL     1      -2.683   2.889  31.577  1.00  0.00     0.013 C 
BRANCH  20  22
HETATM   22  C29 UNL     1      -0.751   4.225  31.218  1.00  0.00     0.088 C 
BRANCH  22  23
HETATM   23  C30 UNL     1       0.603   4.584  30.862  1.00  0.00     0.166 C 
HETATM   24  O8  UNL     1       0.845   5.441  30.036  1.00  0.00    -0.295 OA
BRANCH  23  25
HETATM   25  C31 UNL     1       1.771   3.918  31.494  1.00  0.00     0.300 A 
HETATM   26  O9  UNL     1       2.490   2.979  30.654  1.00  0.00    -0.296 OA
HETATM   27  C32 UNL     1       1.646   2.488  31.781  1.00  0.00     0.297 A 
HETATM   28  O10 UNL     1       1.302   1.418  32.317  1.00  0.00    -0.262 OA
ENDBRANCH  23  25
ENDBRANCH  22  23
ENDBRANCH  20  22
ENDBRANCH  17  20
ENDBRANCH  16  17
BRANCH  15  29
HETATM   29  O3  UNL     1      -0.634   0.773  28.875  1.00  0.00    -0.304 OA
BRANCH  29  30
HETATM   30  C23 UNL     1      -0.018  -0.315  29.416  1.00  0.00     0.360 C 
HETATM   31  O4  UNL     1       1.065  -0.672  28.904  1.00  0.00    -0.252 OA
BRANCH  30  32
HETATM   32  C24 UNL     1      -0.630  -1.000  30.540  1.00  0.00     0.277 C 
HETATM   33  O5  UNL     1      -1.665  -0.552  31.094  1.00  0.00    -0.640 OA
HETATM   34  O6  UNL     1      -0.116  -2.185  31.074  1.00  0.00    -0.640 OA
ENDBRANCH  30  32
ENDBRANCH  29  30
ENDBRANCH  15  29
BRANCH   1  35
HETATM   35  C8  UNL     1      -3.697   0.437  23.606  1.00  0.00     0.042 C 
BRANCH  35  36
HETATM   36  C7  UNL     1      -4.785  -0.194  22.821  1.00  0.00     0.126 C 
BRANCH  36  37
HETATM   37  C5  UNL     1      -4.697   0.315  21.362  1.00  0.00     0.033 C 
HETATM   38  C6  UNL     1      -3.751  -0.547  20.606  1.00  0.00     0.017 C 
BRANCH  37  39
HETATM   39  C4  UNL     1      -4.318   1.730  21.488  1.00  0.00    -0.018 C 
HETATM   40  C2  UNL     1      -4.309   2.745  20.703  1.00  0.00    -0.091 C 
HETATM   41  C1  UNL     1      -3.820   4.078  21.266  1.00  0.00     0.042 C 
HETATM   42  C3  UNL     1      -4.717   2.769  19.295  1.00  0.00     0.042 C 
ENDBRANCH  37  39
ENDBRANCH  36  37
BRANCH  36  43
HETATM   43  O1  UNL     1      -4.660  -1.585  22.778  1.00  0.00    -0.395 OA
ATOM     44  H1  UNL     1      -4.574  -1.885  23.676  1.00  0.00     0.210 HD
ENDBRANCH  36  43
ENDBRANCH  35  36
ENDBRANCH   1  35
TORSDOF 14
ENDMDL
MODEL 4
REMARK VINA RESULT: -7.326997884      1.166      1.688
REMARK  14 active torsions:
REMARK  status: ('A' for Active; 'I' for Inactive)
REMARK    1  A    between atoms: C4_4  and  C5_5 
REMARK    2  A    between atoms: C5_5  and  C7_7 
REMARK    3  A    between atoms: C7_7  and  O1_8 
REMARK    4  A    between atoms: C7_7  and  C8_10 
REMARK    5  A    between atoms: C8_10  and  C9_11 
REMARK    6  A    between atoms: C22_25  and  O3_26 
REMARK    7  A    between atoms: O3_26  and  C23_27 
REMARK    8  A    between atoms: C23_27  and  C24_29 
REMARK    9  A    between atoms: C25_32  and  C26_33 
REMARK   10  A    between atoms: C26_33  and  O7_34 
REMARK   11  A    between atoms: C26_33  and  C27_36 
REMARK   12  A    between atoms: C27_36  and  C29_38 
REMARK   13  A    between atoms: C29_38  and  C30_39 
REMARK   14  A    between atoms: C30_39  and  C31_41 
ROOT
HETATM    1  C9  UNL     1      -4.143   1.654  25.687  1.00  0.00     0.021 C 
HETATM    2  C10 UNL     1      -3.748   1.221  27.062  1.00  0.00    -0.083 C 
HETATM    3  C11 UNL     1      -4.196  -0.041  27.713  1.00  0.00     0.043 C 
HETATM    4  C12 UNL     1      -2.942   2.122  27.616  1.00  0.00    -0.018 C 
HETATM    5  C13 UNL     1      -2.660   3.258  26.769  1.00  0.00     0.025 C 
HETATM    6  C14 UNL     1      -3.228   2.766  25.416  1.00  0.00     0.006 C 
HETATM    7  C15 UNL     1      -3.837   3.997  24.811  1.00  0.00    -0.013 C 
HETATM    8  C16 UNL     1      -5.108   4.348  25.595  1.00  0.00     0.010 C 
HETATM    9  C17 UNL     1      -2.799   5.092  24.941  1.00  0.00     0.005 C 
HETATM   10  C18 UNL     1      -1.435   4.621  25.241  1.00  0.00     0.014 C 
HETATM   11  C19 UNL     1      -1.304   3.680  26.451  1.00  0.00     0.004 C 
HETATM   12  C20 UNL     1      -0.479   2.526  25.924  1.00  0.00     0.163 A 
HETATM   13  O2  UNL     1      -0.338   1.346  26.597  1.00  0.00    -0.372 OA
HETATM   14  C21 UNL     1       0.667   2.315  26.658  1.00  0.00     0.181 A 
HETATM   15  C22 UNL     1       0.580   3.220  27.902  1.00  0.00     0.171 C 
HETATM   16  C25 UNL     1      -0.434   4.300  27.510  1.00  0.00     0.059 C 
ENDROOT
BRANCH  16  17
HETATM   17  C26 UNL     1      -1.125   4.882  28.658  1.00  0.00     0.129 C 
BRANCH  17  18
HETATM   18  O7  UNL     1      -1.819   6.052  28.198  1.00  0.00    -0.395 OA
ATOM     19  H7  UNL     1      -2.200   6.476  28.958  1.00  0.00     0.210 HD
ENDBRANCH  17  18
BRANCH  17  20
HETATM   20  C27 UNL     1      -0.313   5.387  29.781  1.00  0.00     0.018 C 
HETATM   21  C28 UNL     1      -1.336   5.773  30.939  1.00  0.00     0.013 C 
BRANCH  20  22
HETATM   22  C29 UNL     1       0.435   6.679  29.639  1.00  0.00     0.088 C 
BRANCH  22  23
HETATM   23  C30 UNL     1       1.789   6.716  29.136  1.00  0.00     0.166 C 
HETATM   24  O8  UNL     1       2.748   6.512  29.853  1.00  0.00    -0.295 OA
BRANCH  23  25
HETATM   25  C31 UNL     1       2.075   7.004  27.707  1.00  0.00     0.300 A 
HETATM   26  O9  UNL     1       2.589   5.889  26.932  1.00  0.00    -0.296 OA
HETATM   27  C32 UNL     1       3.481   7.026  27.301  1.00  0.00     0.297 A 
HETATM   28  O10 UNL     1       4.661   7.396  27.156  1.00  0.00    -0.262 OA
ENDBRANCH  23  25
ENDBRANCH  22  23
ENDBRANCH  20  22
ENDBRANCH  17  20
ENDBRANCH  16  17
BRANCH  15  29
HETATM   29  O3  UNL     1       0.151   2.445  28.963  1.00  0.00    -0.304 OA
BRANCH  29  30
HETATM   30  C23 UNL     1       0.876   1.667  29.815  1.00  0.00     0.360 C 
HETATM   31  O4  UNL     1       0.914   0.441  29.577  1.00  0.00    -0.252 OA
BRANCH  30  32
HETATM   32  C24 UNL     1       1.559   2.281  30.940  1.00  0.00     0.277 C 
HETATM   33  O5  UNL     1       1.396   1.860  32.112  1.00  0.00    -0.640 OA
HETATM   34  O6  UNL     1       2.430   3.364  30.795  1.00  0.00    -0.640 OA
ENDBRANCH  30  32
ENDBRANCH  29  30
ENDBRANCH  15  29
BRANCH   1  35
HETATM   35  C8  UNL     1      -3.826   0.446  24.786  1.00  0.00     0.042 C 
BRANCH  35  36
HETATM   36  C7  UNL     1      -5.007   0.017  24.000  1.00  0.00     0.126 C 
BRANCH  36  37
HETATM   37  C5  UNL     1      -4.536  -0.380  22.580  1.00  0.00     0.033 C 
HETATM   38  C6  UNL     1      -3.393  -1.324  22.698  1.00  0.00     0.017 C 
BRANCH  37  39
HETATM   39  C4  UNL     1      -4.247   0.899  21.917  1.00  0.00    -0.018 C 
HETATM   40  C2  UNL     1      -4.781   1.574  20.965  1.00  0.00    -0.091 C 
HETATM   41  C1  UNL     1      -4.134   2.904  20.583  1.00  0.00     0.042 C 
HETATM   42  C3  UNL     1      -5.964   1.203  20.184  1.00  0.00     0.042 C 
ENDBRANCH  37  39
ENDBRANCH  36  37
BRANCH  36  43
HETATM   43  O1  UNL     1      -5.625  -1.107  24.556  1.00  0.00    -0.395 OA
ATOM     44  H1  UNL     1      -5.752  -0.927  25.480  1.00  0.00     0.210 HD
ENDBRANCH  36  43
ENDBRANCH  35  36
ENDBRANCH   1  35
TORSDOF 14
ENDMDL
MODEL 5
REMARK VINA RESULT: -7.257863801      1.545      2.703
REMARK  14 active torsions:
REMARK  status: ('A' for Active; 'I' for Inactive)
REMARK    1  A    between atoms: C4_4  and  C5_5 
REMARK    2  A    between atoms: C5_5  and  C7_7 
REMARK    3  A    between atoms: C7_7  and  O1_8 
REMARK    4  A    between atoms: C7_7  and  C8_10 
REMARK    5  A    between atoms: C8_10  and  C9_11 
REMARK    6  A    between atoms: C22_25  and  O3_26 
REMARK    7  A    between atoms: O3_26  and  C23_27 
REMARK    8  A    between atoms: C23_27  and  C24_29 
REMARK    9  A    between atoms: C25_32  and  C26_33 
REMARK   10  A    between atoms: C26_33  and  O7_34 
REMARK   11  A    between atoms: C26_33  and  C27_36 
REMARK   12  A    between atoms: C27_36  and  C29_38 
REMARK   13  A    between atoms: C29_38  and  C30_39 
REMARK   14  A    between atoms: C30_39  and  C31_41 
ROOT
HETATM    1  C9  UNL     1      -4.197   1.355  25.163  1.00  0.00     0.021 C 
HETATM    2  C10 UNL     1      -3.798   0.704  26.448  1.00  0.00    -0.083 C 
HETATM    3  C11 UNL     1      -4.057  -0.722  26.789  1.00  0.00     0.043 C 
HETATM    4  C12 UNL     1      -3.180   1.578  27.236  1.00  0.00    -0.018 C 
HETATM    5  C13 UNL     1      -3.054   2.899  26.665  1.00  0.00     0.025 C 
HETATM    6  C14 UNL     1      -3.469   2.627  25.199  1.00  0.00     0.006 C 
HETATM    7  C15 UNL     1      -4.248   3.851  24.811  1.00  0.00    -0.013 C 
HETATM    8  C16 UNL     1      -5.595   3.825  25.547  1.00  0.00     0.010 C 
HETATM    9  C17 UNL     1      -3.415   5.039  25.245  1.00  0.00     0.005 C 
HETATM   10  C18 UNL     1      -2.007   4.730  25.551  1.00  0.00     0.014 C 
HETATM   11  C19 UNL     1      -1.775   3.583  26.550  1.00  0.00     0.004 C 
HETATM   12  C20 UNL     1      -0.745   2.711  25.865  1.00  0.00     0.163 A 
HETATM   13  O2  UNL     1      -0.439   1.450  26.292  1.00  0.00    -0.372 OA
HETATM   14  C21 UNL     1       0.386   2.526  26.630  1.00  0.00     0.181 A 
HETATM   15  C22 UNL     1       0.091   3.119  28.022  1.00  0.00     0.171 C 
HETATM   16  C25 UNL     1      -1.071   4.089  27.779  1.00  0.00     0.059 C 
ENDROOT
BRANCH  16  17
HETATM   17  C26 UNL     1      -1.901   4.296  28.962  1.00  0.00     0.129 C 
BRANCH  17  18
HETATM   18  O7  UNL     1      -3.174   4.790  28.517  1.00  0.00    -0.395 OA
ATOM     19  H7  UNL     1      -3.235   5.701  28.779  1.00  0.00     0.210 HD
ENDBRANCH  17  18
BRANCH  17  20
HETATM   20  C27 UNL     1      -1.472   5.305  29.950  1.00  0.00     0.018 C 
HETATM   21  C28 UNL     1      -1.935   4.765  31.376  1.00  0.00     0.013 C 
BRANCH  20  22
HETATM   22  C29 UNL     1      -2.107   6.663  29.955  1.00  0.00     0.088 C 
BRANCH  22  23
HETATM   23  C30 UNL     1      -1.940   7.578  28.849  1.00  0.00     0.166 C 
HETATM   24  O8  UNL     1      -0.868   7.733  28.298  1.00  0.00    -0.295 OA
BRANCH  23  25
HETATM   25  C31 UNL     1      -3.079   8.377  28.329  1.00  0.00     0.300 A 
HETATM   26  O9  UNL     1      -4.148   7.617  27.708  1.00  0.00    -0.296 OA
HETATM   27  C32 UNL     1      -3.232   8.448  26.874  1.00  0.00     0.297 A 
HETATM   28  O10 UNL     1      -3.044   8.752  25.682  1.00  0.00    -0.262 OA
ENDBRANCH  23  25
ENDBRANCH  22  23
ENDBRANCH  20  22
ENDBRANCH  17  20
ENDBRANCH  16  17
BRANCH  15  29
HETATM   29  O3  UNL     1      -0.250   2.077  28.864  1.00  0.00    -0.304 OA
BRANCH  29  30
HETATM   30  C23 UNL     1       0.556   1.231  29.564  1.00  0.00     0.360 C 
HETATM   31  O4  UNL     1       1.307   1.739  30.425  1.00  0.00    -0.252 OA
BRANCH  30  32
HETATM   32  C24 UNL     1       0.512  -0.193  29.288  1.00  0.00     0.277 C 
HETATM   33  O5  UNL     1       1.154  -0.694  28.330  1.00  0.00    -0.640 OA
HETATM   34  O6  UNL     1      -0.235  -1.090  30.057  1.00  0.00    -0.640 OA
ENDBRANCH  30  32
ENDBRANCH  29  30
ENDBRANCH  15  29
BRANCH   1  35
HETATM   35  C8  UNL     1      -3.641   0.434  24.062  1.00  0.00     0.042 C 
BRANCH  35  36
HETATM   36  C7  UNL     1      -4.720  -0.294  23.352  1.00  0.00     0.126 C 
BRANCH  36  37
HETATM   37  C5  UNL     1      -4.609   0.016  21.840  1.00  0.00     0.033 C 
HETATM   38  C6  UNL     1      -3.605  -0.897  21.233  1.00  0.00     0.017 C 
BRANCH  37  39
HETATM   39  C4  UNL     1      -4.293   1.450  21.780  1.00  0.00    -0.018 C 
HETATM   40  C2  UNL     1      -4.406   2.373  20.895  1.00  0.00    -0.091 C 
HETATM   41  C1  UNL     1      -3.939   3.779  21.266  1.00  0.00     0.042 C 
HETATM   42  C3  UNL     1      -4.940   2.226  19.538  1.00  0.00     0.042 C 
ENDBRANCH  37  39
ENDBRANCH  36  37
BRANCH  36  43
HETATM   43  O1  UNL     1      -4.601  -1.679  23.497  1.00  0.00    -0.395 OA
ATOM     44  H1  UNL     1      -4.129  -1.835  24.307  1.00  0.00     0.210 HD
ENDBRANCH  36  43
ENDBRANCH  35  36
ENDBRANCH   1  35
TORSDOF 14
ENDMDL
