MODEL 1
REMARK VINA RESULT: -9.370120988      0.000      0.000
REMARK  17 active torsions:
REMARK  status: ('A' for Active; 'I' for Inactive)
REMARK    1  A    between atoms: C2_2  and  C3_3 
REMARK    2  A    between atoms: C2_2  and  C9_11 
REMARK    3  A    between atoms: C3_3  and  O1_4 
REMARK    4  A    between atoms: O1_4  and  C4_5 
REMARK    5  A    between atoms: C4_5  and  C5_7 
REMARK    6  A    between atoms: C10_12  and  O3_13 
REMARK    7  A    between atoms: C11_15  and  O4_16 
REMARK    8  A    between atoms: C12_18  and  C13_19 
REMARK    9  A    between atoms: C13_19  and  C14_20 
REMARK   10  A    between atoms: C14_20  and  C15_21 
REMARK   11  A    between atoms: C15_21  and  C17_23 
REMARK   12  A    between atoms: C17_23  and  C18_24 
REMARK   13  A    between atoms: C18_24  and  C19_25 
REMARK   14  A    between atoms: C19_25  and  C20_26 
REMARK   15  A    between atoms: C31_41  and  C32_42 
REMARK   16  A    between atoms: C32_42  and  C33_43 
REMARK   17  A    between atoms: C33_43  and  O9_44 
ROOT
HETATM    1  C9  UNL     1      -5.781   1.780  17.858  1.00  0.00     0.052 C 
HETATM    2  C10 UNL     1      -6.871   0.911  18.284  1.00  0.00     0.156 C 
HETATM    3  C11 UNL     1      -6.419   0.328  19.654  1.00  0.00     0.155 C 
HETATM    4  C12 UNL     1      -4.971   0.256  19.490  1.00  0.00     0.044 C 
HETATM    5  C31 UNL     1      -4.647   1.638  18.916  1.00  0.00     0.008 C 
ENDROOT
BRANCH   4   6
HETATM    6  C13 UNL     1      -4.063  -0.198  20.500  1.00  0.00    -0.019 C 
BRANCH   6   7
HETATM    7  C14 UNL     1      -3.995  -0.522  21.723  1.00  0.00     0.003 C 
BRANCH   7   8
HETATM    8  C15 UNL     1      -4.283   0.101  22.981  1.00  0.00    -0.062 C 
HETATM    9  C16 UNL     1      -3.811  -1.526  23.825  1.00  0.00     0.048 C 
BRANCH   8  10
HETATM   10  C17 UNL     1      -4.520   0.619  24.028  1.00  0.00     0.006 C 
BRANCH  10  11
HETATM   11  C18 UNL     1      -4.244   2.061  24.401  1.00  0.00    -0.001 C 
BRANCH  11  12
HETATM   12  C19 UNL     1      -3.838   2.506  25.455  1.00  0.00     0.013 C 
BRANCH  12  13
HETATM   13  C20 UNL     1      -2.645   2.535  26.330  1.00  0.00     0.101 C 
HETATM   14  O5  UNL     1      -3.130   2.089  27.614  1.00  0.00    -0.299 OA
HETATM   15  C21 UNL     1      -2.348   2.357  28.713  1.00  0.00     0.331 C 
HETATM   16  O6  UNL     1      -2.616   1.968  29.893  1.00  0.00    -0.256 OA
HETATM   17  C22 UNL     1      -1.130   3.137  28.529  1.00  0.00     0.236 C 
HETATM   18  O7  UNL     1      -0.204   3.041  29.367  1.00  0.00    -0.286 OA
HETATM   19  C23 UNL     1      -0.965   4.047  27.365  1.00  0.00     0.146 C 
HETATM   20  C24 UNL     1       0.069   3.382  26.483  1.00  0.00     0.140 C 
HETATM   21  C28 UNL     1      -2.244   3.968  26.549  1.00  0.00     0.006 C 
HETATM   22  O8  UNL     1       0.981   4.081  26.105  1.00  0.00    -0.297 OA
HETATM   23  C25 UNL     1      -0.168   1.978  26.199  1.00  0.00     0.086 C 
HETATM   24  C26 UNL     1      -1.584   1.626  25.866  1.00  0.00     0.028 C 
HETATM   25  C27 UNL     1      -1.845   0.274  26.544  1.00  0.00     0.014 C 
HETATM   26  C29 UNL     1      -2.056   4.728  25.233  1.00  0.00     0.019 C 
HETATM   27  C30 UNL     1      -3.350   4.665  27.311  1.00  0.00     0.019 C 
ENDBRANCH  12  13
ENDBRANCH  11  12
ENDBRANCH  10  11
ENDBRANCH   8  10
ENDBRANCH   7   8
ENDBRANCH   6   7
ENDBRANCH   4   6
BRANCH   3  28
HETATM   28  O4  UNL     1      -6.921   1.075  20.705  1.00  0.00    -0.392 OA
ATOM     29  H4  UNL     1      -6.299   1.737  20.983  1.00  0.00     0.210 HD
ENDBRANCH   3  28
BRANCH   5  30
HETATM   30  C32 UNL     1      -4.667   2.795  19.805  1.00  0.00     0.032 C 
BRANCH  30  31
HETATM   31  C33 UNL     1      -3.479   3.674  19.920  1.00  0.00     0.164 C 
BRANCH  31  32
HETATM   32  O9  UNL     1      -3.016   4.104  18.667  1.00  0.00    -0.401 OA
ATOM     33  H9  UNL     1      -2.230   3.644  18.399  1.00  0.00     0.209 HD
ENDBRANCH  31  32
ENDBRANCH  30  31
ENDBRANCH   5  30
BRANCH   2  34
HETATM   34  O3  UNL     1      -7.249  -0.150  17.511  1.00  0.00    -0.392 OA
ATOM     35  H3  UNL     1      -8.017  -0.661  17.741  1.00  0.00     0.210 HD
ENDBRANCH   2  34
BRANCH   1  36
HETATM   36  C2  UNL     1      -5.194   1.716  16.527  1.00  0.00    -0.058 C 
HETATM   37  C1  UNL     1      -5.647   1.967  15.369  1.00  0.00     0.017 C 
BRANCH  36  38
HETATM   38  C3  UNL     1      -3.713   1.264  16.579  1.00  0.00     0.213 C 
BRANCH  38  39
HETATM   39  O1  UNL     1      -2.879   2.254  16.073  1.00  0.00    -0.314 OA
BRANCH  39  40
HETATM   40  C4  UNL     1      -1.501   2.168  16.289  1.00  0.00     0.283 C 
HETATM   41  O2  UNL     1      -1.103   2.125  17.513  1.00  0.00    -0.260 OA
BRANCH  40  42
HETATM   42  C5  UNL     1      -0.490   2.127  15.284  1.00  0.00     0.084 C 
HETATM   43  C6  UNL     1      -0.126   3.175  14.554  1.00  0.00    -0.082 C 
HETATM   44  C7  UNL     1      -0.769   4.483  14.741  1.00  0.00     0.043 C 
HETATM   45  C8  UNL     1       0.979   2.981  13.567  1.00  0.00     0.043 C 
ENDBRANCH  40  42
ENDBRANCH  39  40
ENDBRANCH  38  39
ENDBRANCH  36  38
ENDBRANCH   1  36
TORSDOF 17
ENDMDL
MODEL 2
REMARK VINA RESULT: -9.296723123      1.446      2.464
REMARK  17 active torsions:
REMARK  status: ('A' for Active; 'I' for Inactive)
REMARK    1  A    between atoms: C2_2  and  C3_3 
REMARK    2  A    between atoms: C2_2  and  C9_11 
REMARK    3  A    between atoms: C3_3  and  O1_4 
REMARK    4  A    between atoms: O1_4  and  C4_5 
REMARK    5  A    between atoms: C4_5  and  C5_7 
REMARK    6  A    between atoms: C10_12  and  O3_13 
REMARK    7  A    between atoms: C11_15  and  O4_16 
REMARK    8  A    between atoms: C12_18  and  C13_19 
REMARK    9  A    between atoms: C13_19  and  C14_20 
REMARK   10  A    between atoms: C14_20  and  C15_21 
REMARK   11  A    between atoms: C15_21  and  C17_23 
REMARK   12  A    between atoms: C17_23  and  C18_24 
REMARK   13  A    between atoms: C18_24  and  C19_25 
REMARK   14  A    between atoms: C19_25  and  C20_26 
REMARK   15  A    between atoms: C31_41  and  C32_42 
REMARK   16  A    between atoms: C32_42  and  C33_43 
REMARK   17  A    between atoms: C33_43  and  O9_44 
ROOT
HETATM    1  C9  UNL     1      -5.868   1.801  17.842  1.00  0.00     0.052 C 
HETATM    2  C10 UNL     1      -6.945   0.923  18.280  1.00  0.00     0.156 C 
HETATM    3  C11 UNL     1      -6.527   0.440  19.700  1.00  0.00     0.155 C 
HETATM    4  C12 UNL     1      -5.072   0.408  19.593  1.00  0.00     0.044 C 
HETATM    5  C31 UNL     1      -4.771   1.763  18.947  1.00  0.00     0.008 C 
ENDROOT
BRANCH   4   6
HETATM    6  C13 UNL     1      -4.190   0.048  20.662  1.00  0.00    -0.019 C 
BRANCH   6   7
HETATM    7  C14 UNL     1      -4.167  -0.449  21.827  1.00  0.00     0.003 C 
BRANCH   7   8
HETATM    8  C15 UNL     1      -4.280   0.042  23.169  1.00  0.00    -0.062 C 
HETATM    9  C16 UNL     1      -3.913  -1.713  23.776  1.00  0.00     0.048 C 
BRANCH   8  10
HETATM   10  C17 UNL     1      -4.372   0.449  24.285  1.00  0.00     0.006 C 
BRANCH  10  11
HETATM   11  C18 UNL     1      -3.527   1.535  24.919  1.00  0.00    -0.001 C 
BRANCH  11  12
HETATM   12  C19 UNL     1      -3.103   1.599  26.054  1.00  0.00     0.013 C 
BRANCH  12  13
HETATM   13  C20 UNL     1      -1.910   1.297  26.875  1.00  0.00     0.101 C 
HETATM   14  O5  UNL     1      -1.053   0.536  25.998  1.00  0.00    -0.299 OA
HETATM   15  C21 UNL     1      -0.044  -0.196  26.578  1.00  0.00     0.331 C 
HETATM   16  O6  UNL     1       0.823  -0.859  25.928  1.00  0.00    -0.256 OA
HETATM   17  C22 UNL     1       0.050  -0.224  28.033  1.00  0.00     0.236 C 
HETATM   18  O7  UNL     1       1.146  -0.495  28.575  1.00  0.00    -0.286 OA
HETATM   19  C23 UNL     1      -1.132   0.062  28.888  1.00  0.00     0.146 C 
HETATM   20  C24 UNL     1      -0.852   1.410  29.517  1.00  0.00     0.140 C 
HETATM   21  C28 UNL     1      -2.304   0.331  27.959  1.00  0.00     0.006 C 
HETATM   22  O8  UNL     1      -1.005   1.485  30.714  1.00  0.00    -0.297 OA
HETATM   23  C25 UNL     1      -0.434   2.450  28.594  1.00  0.00     0.086 C 
HETATM   24  C26 UNL     1      -1.204   2.512  27.313  1.00  0.00     0.028 C 
HETATM   25  C27 UNL     1      -0.171   2.829  26.223  1.00  0.00     0.014 C 
HETATM   26  C29 UNL     1      -3.499   0.828  28.777  1.00  0.00     0.019 C 
HETATM   27  C30 UNL     1      -2.719  -0.973  27.312  1.00  0.00     0.019 C 
ENDBRANCH  12  13
ENDBRANCH  11  12
ENDBRANCH  10  11
ENDBRANCH   8  10
ENDBRANCH   7   8
ENDBRANCH   6   7
ENDBRANCH   4   6
BRANCH   3  28
HETATM   28  O4  UNL     1      -7.093   1.231  20.683  1.00  0.00    -0.392 OA
ATOM     29  H4  UNL     1      -7.352   0.711  21.435  1.00  0.00     0.210 HD
ENDBRANCH   3  28
BRANCH   5  30
HETATM   30  C32 UNL     1      -4.863   2.971  19.761  1.00  0.00     0.032 C 
BRANCH  30  31
HETATM   31  C33 UNL     1      -3.687   3.861  19.920  1.00  0.00     0.164 C 
BRANCH  31  32
HETATM   32  O9  UNL     1      -3.054   4.124  18.695  1.00  0.00    -0.401 OA
ATOM     33  H9  UNL     1      -2.381   4.788  18.777  1.00  0.00     0.209 HD
ENDBRANCH  31  32
ENDBRANCH  30  31
ENDBRANCH   5  30
BRANCH   2  34
HETATM   34  O3  UNL     1      -7.259  -0.196  17.562  1.00  0.00    -0.392 OA
ATOM     35  H3  UNL     1      -8.054  -0.680  17.751  1.00  0.00     0.210 HD
ENDBRANCH   2  34
BRANCH   1  36
HETATM   36  C2  UNL     1      -5.229   1.678  16.540  1.00  0.00    -0.058 C 
HETATM   37  C1  UNL     1      -5.638   1.863  15.354  1.00  0.00     0.017 C 
BRANCH  36  38
HETATM   38  C3  UNL     1      -3.746   1.247  16.672  1.00  0.00     0.213 C 
BRANCH  38  39
HETATM   39  O1  UNL     1      -2.903   2.222  16.152  1.00  0.00    -0.314 OA
BRANCH  39  40
HETATM   40  C4  UNL     1      -1.529   2.140  16.391  1.00  0.00     0.283 C 
HETATM   41  O2  UNL     1      -1.147   2.157  17.621  1.00  0.00    -0.260 OA
BRANCH  40  42
HETATM   42  C5  UNL     1      -0.504   2.042  15.403  1.00  0.00     0.084 C 
HETATM   43  C6  UNL     1      -0.121   3.051  14.629  1.00  0.00    -0.082 C 
HETATM   44  C7  UNL     1      -0.753   4.372  14.745  1.00  0.00     0.043 C 
HETATM   45  C8  UNL     1       0.995   2.800  13.667  1.00  0.00     0.043 C 
ENDBRANCH  40  42
ENDBRANCH  39  40
ENDBRANCH  38  39
ENDBRANCH  36  38
ENDBRANCH   1  36
TORSDOF 17
ENDMDL
MODEL 3
REMARK VINA RESULT: -9.203126107      1.041      1.581
REMARK  17 active torsions:
REMARK  status: ('A' for Active; 'I' for Inactive)
REMARK    1  A    between atoms: C2_2  and  C3_3 
REMARK    2  A    between atoms: C2_2  and  C9_11 
REMARK    3  A    between atoms: C3_3  and  O1_4 
REMARK    4  A    between atoms: O1_4  and  C4_5 
REMARK    5  A    between atoms: C4_5  and  C5_7 
REMARK    6  A    between atoms: C10_12  and  O3_13 
REMARK    7  A    between atoms: C11_15  and  O4_16 
REMARK    8  A    between atoms: C12_18  and  C13_19 
REMARK    9  A    between atoms: C13_19  and  C14_20 
REMARK   10  A    between atoms: C14_20  and  C15_21 
REMARK   11  A    between atoms: C15_21  and  C17_23 
REMARK   12  A    between atoms: C17_23  and  C18_24 
REMARK   13  A    between atoms: C18_24  and  C19_25 
REMARK   14  A    between atoms: C19_25  and  C20_26 
REMARK   15  A    between atoms: C31_41  and  C32_42 
REMARK   16  A    between atoms: C32_42  and  C33_43 
REMARK   17  A    between atoms: C33_43  and  O9_44 
ROOT
HETATM    1  C9  UNL     1      -5.874   1.794  17.879  1.00  0.00     0.052 C 
HETATM    2  C10 UNL     1      -6.988   0.934  18.256  1.00  0.00     0.156 C 
HETATM    3  C11 UNL     1      -6.657   0.442  19.694  1.00  0.00     0.155 C 
HETATM    4  C12 UNL     1      -5.199   0.385  19.668  1.00  0.00     0.044 C 
HETATM    5  C31 UNL     1      -4.840   1.735  19.042  1.00  0.00     0.008 C 
ENDROOT
BRANCH   4   6
HETATM    6  C13 UNL     1      -4.383   0.008  20.783  1.00  0.00    -0.019 C 
BRANCH   6   7
HETATM    7  C14 UNL     1      -4.355  -0.020  22.049  1.00  0.00     0.003 C 
BRANCH   7   8
HETATM    8  C15 UNL     1      -3.795  -0.870  23.058  1.00  0.00    -0.062 C 
HETATM    9  C16 UNL     1      -5.374  -0.608  24.068  1.00  0.00     0.048 C 
BRANCH   8  10
HETATM   10  C17 UNL     1      -3.331  -1.578  23.897  1.00  0.00     0.006 C 
BRANCH  10  11
HETATM   11  C18 UNL     1      -2.185  -1.238  24.827  1.00  0.00    -0.001 C 
BRANCH  11  12
HETATM   12  C19 UNL     1      -2.224  -0.677  25.903  1.00  0.00     0.013 C 
BRANCH  12  13
HETATM   13  C20 UNL     1      -1.620   0.441  26.661  1.00  0.00     0.101 C 
HETATM   14  O5  UNL     1      -1.573  -0.032  28.024  1.00  0.00    -0.299 OA
HETATM   15  C21 UNL     1      -1.406   0.907  29.014  1.00  0.00     0.331 C 
HETATM   16  O6  UNL     1      -1.282   0.631  30.248  1.00  0.00    -0.256 OA
HETATM   17  C22 UNL     1      -1.367   2.316  28.639  1.00  0.00     0.236 C 
HETATM   18  O7  UNL     1      -0.806   3.141  29.398  1.00  0.00    -0.286 OA
HETATM   19  C23 UNL     1      -1.981   2.796  27.373  1.00  0.00     0.146 C 
HETATM   20  C24 UNL     1      -0.816   3.167  26.481  1.00  0.00     0.140 C 
HETATM   21  C28 UNL     1      -2.594   1.587  26.686  1.00  0.00     0.006 C 
HETATM   22  O8  UNL     1      -0.872   4.252  25.951  1.00  0.00    -0.297 OA
HETATM   23  C25 UNL     1       0.228   2.164  26.374  1.00  0.00     0.086 C 
HETATM   24  C26 UNL     1      -0.255   0.757  26.208  1.00  0.00     0.028 C 
HETATM   25  C27 UNL     1       0.692  -0.109  27.049  1.00  0.00     0.014 C 
HETATM   26  C29 UNL     1      -3.064   1.983  25.284  1.00  0.00     0.019 C 
HETATM   27  C30 UNL     1      -3.821   1.158  27.462  1.00  0.00     0.019 C 
ENDBRANCH  12  13
ENDBRANCH  11  12
ENDBRANCH  10  11
ENDBRANCH   8  10
ENDBRANCH   7   8
ENDBRANCH   6   7
ENDBRANCH   4   6
BRANCH   3  28
HETATM   28  O4  UNL     1      -7.262   1.241  20.647  1.00  0.00    -0.392 OA
ATOM     29  H4  UNL     1      -7.870   0.740  21.179  1.00  0.00     0.210 HD
ENDBRANCH   3  28
BRANCH   5  30
HETATM   30  C32 UNL     1      -4.955   2.943  19.853  1.00  0.00     0.032 C 
BRANCH  30  31
HETATM   31  C33 UNL     1      -3.771   3.802  20.096  1.00  0.00     0.164 C 
BRANCH  31  32
HETATM   32  O9  UNL     1      -3.097   4.119  18.906  1.00  0.00    -0.401 OA
ATOM     33  H9  UNL     1      -3.379   4.952  18.547  1.00  0.00     0.209 HD
ENDBRANCH  31  32
ENDBRANCH  30  31
ENDBRANCH   5  30
BRANCH   2  34
HETATM   34  O3  UNL     1      -7.281  -0.178  17.519  1.00  0.00    -0.392 OA
ATOM     35  H3  UNL     1      -8.117  -0.617  17.623  1.00  0.00     0.210 HD
ENDBRANCH   2  34
BRANCH   1  36
HETATM   36  C2  UNL     1      -5.166   1.661  16.614  1.00  0.00    -0.058 C 
HETATM   37  C1  UNL     1      -5.510   1.843  15.407  1.00  0.00     0.017 C 
BRANCH  36  38
HETATM   38  C3  UNL     1      -3.695   1.225  16.827  1.00  0.00     0.213 C 
BRANCH  38  39
HETATM   39  O1  UNL     1      -2.840   1.968  16.021  1.00  0.00    -0.314 OA
BRANCH  39  40
HETATM   40  C4  UNL     1      -1.482   2.042  16.344  1.00  0.00     0.283 C 
HETATM   41  O2  UNL     1      -1.183   2.155  17.591  1.00  0.00    -0.260 OA
BRANCH  40  42
HETATM   42  C5  UNL     1      -0.393   2.006  15.423  1.00  0.00     0.084 C 
HETATM   43  C6  UNL     1      -0.046   3.024  14.644  1.00  0.00    -0.082 C 
HETATM   44  C7  UNL     1      -0.792   4.290  14.682  1.00  0.00     0.043 C 
HETATM   45  C8  UNL     1       1.146   2.845  13.760  1.00  0.00     0.043 C 
ENDBRANCH  40  42
ENDBRANCH  39  40
ENDBRANCH  38  39
ENDBRANCH  36  38
ENDBRANCH   1  36
TORSDOF 17
ENDMDL
MODEL 4
REMARK VINA RESULT: -8.974098167      1.202      1.943
REMARK  17 active torsions:
REMARK  status: ('A' for Active; 'I' for Inactive)
REMARK    1  A    between atoms: C2_2  and  C3_3 
REMARK    2  A    between atoms: C2_2  and  C9_11 
REMARK    3  A    between atoms: C3_3  and  O1_4 
REMARK    4  A    between atoms: O1_4  and  C4_5 
REMARK    5  A    between atoms: C4_5  and  C5_7 
REMARK    6  A    between atoms: C10_12  and  O3_13 
REMARK    7  A    between atoms: C11_15  and  O4_16 
REMARK    8  A    between atoms: C12_18  and  C13_19 
REMARK    9  A    between atoms: C13_19  and  C14_20 
REMARK   10  A    between atoms: C14_20  and  C15_21 
REMARK   11  A    between atoms: C15_21  and  C17_23 
REMARK   12  A    between atoms: C17_23  and  C18_24 
REMARK   13  A    between atoms: C18_24  and  C19_25 
REMARK   14  A    between atoms: C19_25  and  C20_26 
REMARK   15  A    between atoms: C31_41  and  C32_42 
REMARK   16  A    between atoms: C32_42  and  C33_43 
REMARK   17  A    between atoms: C33_43  and  O9_44 
ROOT
HETATM    1  C9  UNL     1      -5.818   1.813  17.800  1.00  0.00     0.052 C 
HETATM    2  C10 UNL     1      -6.904   0.947  18.239  1.00  0.00     0.156 C 
HETATM    3  C11 UNL     1      -6.483   0.443  19.650  1.00  0.00     0.155 C 
HETATM    4  C12 UNL     1      -5.030   0.390  19.531  1.00  0.00     0.044 C 
HETATM    5  C31 UNL     1      -4.714   1.747  18.896  1.00  0.00     0.008 C 
ENDROOT
BRANCH   4   6
HETATM    6  C13 UNL     1      -4.145   0.006  20.590  1.00  0.00    -0.019 C 
BRANCH   6   7
HETATM    7  C14 UNL     1      -4.120  -0.497  21.752  1.00  0.00     0.003 C 
BRANCH   7   8
HETATM    8  C15 UNL     1      -4.345  -0.034  23.090  1.00  0.00    -0.062 C 
HETATM    9  C16 UNL     1      -4.015  -1.799  23.690  1.00  0.00     0.048 C 
BRANCH   8  10
HETATM   10  C17 UNL     1      -4.529   0.350  24.203  1.00  0.00     0.006 C 
BRANCH  10  11
HETATM   11  C18 UNL     1      -3.627   1.271  24.998  1.00  0.00    -0.001 C 
BRANCH  11  12
HETATM   12  C19 UNL     1      -2.667   0.985  25.683  1.00  0.00     0.013 C 
BRANCH  12  13
HETATM   13  C20 UNL     1      -2.143   1.091  27.063  1.00  0.00     0.101 C 
HETATM   14  O5  UNL     1      -2.671   2.342  27.553  1.00  0.00    -0.299 OA
HETATM   15  C21 UNL     1      -2.069   2.891  28.661  1.00  0.00     0.331 C 
HETATM   16  O6  UNL     1      -2.467   3.951  29.238  1.00  0.00    -0.256 OA
HETATM   17  C22 UNL     1      -0.898   2.228  29.220  1.00  0.00     0.236 C 
HETATM   18  O7  UNL     1      -0.592   2.422  30.419  1.00  0.00    -0.286 OA
HETATM   19  C23 UNL     1      -0.056   1.323  28.394  1.00  0.00     0.146 C 
HETATM   20  C24 UNL     1      -0.326  -0.069  28.924  1.00  0.00     0.140 C 
HETATM   21  C28 UNL     1      -0.655   1.302  26.998  1.00  0.00     0.006 C 
HETATM   22  O8  UNL     1       0.644  -0.746  29.171  1.00  0.00    -0.297 OA
HETATM   23  C25 UNL     1      -1.729  -0.415  29.069  1.00  0.00     0.086 C 
HETATM   24  C26 UNL     1      -2.607  -0.006  27.928  1.00  0.00     0.028 C 
HETATM   25  C27 UNL     1      -3.920   0.470  28.565  1.00  0.00     0.014 C 
HETATM   26  C29 UNL     1       0.049   0.234  26.157  1.00  0.00     0.019 C 
HETATM   27  C30 UNL     1      -0.388   2.637  26.335  1.00  0.00     0.019 C 
ENDBRANCH  12  13
ENDBRANCH  11  12
ENDBRANCH  10  11
ENDBRANCH   8  10
ENDBRANCH   7   8
ENDBRANCH   6   7
ENDBRANCH   4   6
BRANCH   3  28
HETATM   28  O4  UNL     1      -7.030   1.233  20.646  1.00  0.00    -0.392 OA
ATOM     29  H4  UNL     1      -7.290   0.709  21.394  1.00  0.00     0.210 HD
ENDBRANCH   3  28
BRANCH   5  30
HETATM   30  C32 UNL     1      -4.781   2.948  19.723  1.00  0.00     0.032 C 
BRANCH  30  31
HETATM   31  C33 UNL     1      -3.592   3.821  19.878  1.00  0.00     0.164 C 
BRANCH  31  32
HETATM   32  O9  UNL     1      -2.997   4.126  18.643  1.00  0.00    -0.401 OA
ATOM     33  H9  UNL     1      -2.198   4.629  18.747  1.00  0.00     0.209 HD
ENDBRANCH  31  32
ENDBRANCH  30  31
ENDBRANCH   5  30
BRANCH   2  34
HETATM   34  O3  UNL     1      -7.241  -0.160  17.512  1.00  0.00    -0.392 OA
ATOM     35  H3  UNL     1      -6.993  -1.026  17.814  1.00  0.00     0.210 HD
ENDBRANCH   2  34
BRANCH   1  36
HETATM   36  C2  UNL     1      -5.191   1.693  16.492  1.00  0.00    -0.058 C 
HETATM   37  C1  UNL     1      -5.611   1.881  15.311  1.00  0.00     0.017 C 
BRANCH  36  38
HETATM   38  C3  UNL     1      -3.707   1.263  16.609  1.00  0.00     0.213 C 
BRANCH  38  39
HETATM   39  O1  UNL     1      -2.870   2.241  16.086  1.00  0.00    -0.314 OA
BRANCH  39  40
HETATM   40  C4  UNL     1      -1.494   2.166  16.323  1.00  0.00     0.283 C 
HETATM   41  O2  UNL     1      -1.114   2.130  17.553  1.00  0.00    -0.260 OA
BRANCH  40  42
HETATM   42  C5  UNL     1      -0.468   2.129  15.333  1.00  0.00     0.084 C 
HETATM   43  C6  UNL     1      -0.130   3.166  14.575  1.00  0.00    -0.082 C 
HETATM   44  C7  UNL     1      -0.819   4.456  14.713  1.00  0.00     0.043 C 
HETATM   45  C8  UNL     1       0.995   2.980  13.609  1.00  0.00     0.043 C 
ENDBRANCH  40  42
ENDBRANCH  39  40
ENDBRANCH  38  39
ENDBRANCH  36  38
ENDBRANCH   1  36
TORSDOF 17
ENDMDL
MODEL 5
REMARK VINA RESULT: -8.946999199      0.903      2.374
REMARK  17 active torsions:
REMARK  status: ('A' for Active; 'I' for Inactive)
REMARK    1  A    between atoms: C2_2  and  C3_3 
REMARK    2  A    between atoms: C2_2  and  C9_11 
REMARK    3  A    between atoms: C3_3  and  O1_4 
REMARK    4  A    between atoms: O1_4  and  C4_5 
REMARK    5  A    between atoms: C4_5  and  C5_7 
REMARK    6  A    between atoms: C10_12  and  O3_13 
REMARK    7  A    between atoms: C11_15  and  O4_16 
REMARK    8  A    between atoms: C12_18  and  C13_19 
REMARK    9  A    between atoms: C13_19  and  C14_20 
REMARK   10  A    between atoms: C14_20  and  C15_21 
REMARK   11  A    between atoms: C15_21  and  C17_23 
REMARK   12  A    between atoms: C17_23  and  C18_24 
REMARK   13  A    between atoms: C18_24  and  C19_25 
REMARK   14  A    between atoms: C19_25  and  C20_26 
REMARK   15  A    between atoms: C31_41  and  C32_42 
REMARK   16  A    between atoms: C32_42  and  C33_43 
REMARK   17  A    between atoms: C33_43  and  O9_44 
ROOT
HETATM    1  C9  UNL     1      -5.732   1.815  17.806  1.00  0.00     0.052 C 
HETATM    2  C10 UNL     1      -6.812   0.949  18.259  1.00  0.00     0.156 C 
HETATM    3  C11 UNL     1      -6.331   0.372  19.622  1.00  0.00     0.155 C 
HETATM    4  C12 UNL     1      -4.887   0.298  19.427  1.00  0.00     0.044 C 
HETATM    5  C31 UNL     1      -4.575   1.678  18.840  1.00  0.00     0.008 C 
ENDROOT
BRANCH   4   6
HETATM    6  C13 UNL     1      -3.958  -0.151  20.421  1.00  0.00    -0.019 C 
BRANCH   6   7
HETATM    7  C14 UNL     1      -3.869  -0.493  21.637  1.00  0.00     0.003 C 
BRANCH   7   8
HETATM    8  C15 UNL     1      -4.397  -0.032  22.888  1.00  0.00    -0.062 C 
HETATM    9  C16 UNL     1      -4.048  -1.752  23.597  1.00  0.00     0.048 C 
BRANCH   8  10
HETATM   10  C17 UNL     1      -4.834   0.349  23.929  1.00  0.00     0.006 C 
BRANCH  10  11
HETATM   11  C18 UNL     1      -4.289   1.485  24.770  1.00  0.00    -0.001 C 
BRANCH  11  12
HETATM   12  C19 UNL     1      -3.147   1.679  25.133  1.00  0.00     0.013 C 
BRANCH  12  13
HETATM   13  C20 UNL     1      -2.304   1.761  26.346  1.00  0.00     0.101 C 
HETATM   14  O5  UNL     1      -0.992   2.104  25.850  1.00  0.00    -0.299 OA
HETATM   15  C21 UNL     1       0.076   1.894  26.689  1.00  0.00     0.331 C 
HETATM   16  O6  UNL     1       1.275   2.208  26.412  1.00  0.00    -0.256 OA
HETATM   17  C22 UNL     1      -0.167   1.270  27.985  1.00  0.00     0.236 C 
HETATM   18  O7  UNL     1       0.651   1.446  28.917  1.00  0.00    -0.286 OA
HETATM   19  C23 UNL     1      -1.367   0.424  28.221  1.00  0.00     0.146 C 
HETATM   20  C24 UNL     1      -2.250   1.236  29.144  1.00  0.00     0.140 C 
HETATM   21  C28 UNL     1      -2.147   0.379  26.918  1.00  0.00     0.006 C 
HETATM   22  O8  UNL     1      -2.675   0.662  30.120  1.00  0.00    -0.297 OA
HETATM   23  C25 UNL     1      -2.476   2.611  28.736  1.00  0.00     0.086 C 
HETATM   24  C26 UNL     1      -2.760   2.804  27.279  1.00  0.00     0.028 C 
HETATM   25  C27 UNL     1      -2.027   4.093  26.882  1.00  0.00     0.014 C 
HETATM   26  C29 UNL     1      -3.494  -0.309  27.156  1.00  0.00     0.019 C 
HETATM   27  C30 UNL     1      -1.383  -0.469  25.924  1.00  0.00     0.019 C 
ENDBRANCH  12  13
ENDBRANCH  11  12
ENDBRANCH  10  11
ENDBRANCH   8  10
ENDBRANCH   7   8
ENDBRANCH   6   7
ENDBRANCH   4   6
BRANCH   3  28
HETATM   28  O4  UNL     1      -6.811   1.124  20.679  1.00  0.00    -0.392 OA
ATOM     29  H4  UNL     1      -7.456   1.757  20.386  1.00  0.00     0.210 HD
ENDBRANCH   3  28
BRANCH   5  30
HETATM   30  C32 UNL     1      -4.576   2.839  19.723  1.00  0.00     0.032 C 
BRANCH  30  31
HETATM   31  C33 UNL     1      -3.365   3.685  19.854  1.00  0.00     0.164 C 
BRANCH  31  32
HETATM   32  O9  UNL     1      -2.985   4.256  18.629  1.00  0.00    -0.401 OA
ATOM     33  H9  UNL     1      -2.385   4.983  18.745  1.00  0.00     0.209 HD
ENDBRANCH  31  32
ENDBRANCH  30  31
ENDBRANCH   5  30
BRANCH   2  34
HETATM   34  O3  UNL     1      -7.207  -0.117  17.500  1.00  0.00    -0.392 OA
ATOM     35  H3  UNL     1      -7.969  -0.049  16.937  1.00  0.00     0.210 HD
ENDBRANCH   2  34
BRANCH   1  36
HETATM   36  C2  UNL     1      -5.173   1.744  16.463  1.00  0.00    -0.058 C 
HETATM   37  C1  UNL     1      -5.648   1.995  15.314  1.00  0.00     0.017 C 
BRANCH  36  38
HETATM   38  C3  UNL     1      -3.694   1.283  16.485  1.00  0.00     0.213 C 
BRANCH  38  39
HETATM   39  O1  UNL     1      -2.850   2.321  16.108  1.00  0.00    -0.314 OA
BRANCH  39  40
HETATM   40  C4  UNL     1      -1.476   2.206  16.335  1.00  0.00     0.283 C 
HETATM   41  O2  UNL     1      -1.087   2.167  17.561  1.00  0.00    -0.260 OA
BRANCH  40  42
HETATM   42  C5  UNL     1      -0.459   2.129  15.336  1.00  0.00     0.084 C 
HETATM   43  C6  UNL     1      -0.114   3.142  14.550  1.00  0.00    -0.082 C 
HETATM   44  C7  UNL     1      -0.784   4.445  14.662  1.00  0.00     0.043 C 
HETATM   45  C8  UNL     1       1.000   2.916  13.579  1.00  0.00     0.043 C 
ENDBRANCH  40  42
ENDBRANCH  39  40
ENDBRANCH  38  39
ENDBRANCH  36  38
ENDBRANCH   1  36
TORSDOF 17
ENDMDL
