MODEL 1
REMARK VINA RESULT: -7.843706510      0.000      0.000
REMARK  13 active torsions:
REMARK  status: ('A' for Active; 'I' for Inactive)
REMARK    1  A    between atoms: C2_2  and  C3_3 
REMARK    2  A    between atoms: C3_3  and  C5_5 
REMARK    3  A    between atoms: C5_5  and  C6_6 
REMARK    4  A    between atoms: C6_6  and  C7_7 
REMARK    5  A    between atoms: C6_6  and  C29_41 
REMARK    6  A    between atoms: C7_7  and  O1_8 
REMARK    7  A    between atoms: O1_8  and  C8_9 
REMARK    8  A    between atoms: C13_15  and  O3_16 
REMARK    9  A    between atoms: O3_16  and  C14_17 
REMARK   10  A    between atoms: C22_27  and  N1_28 
REMARK       I    between atoms: N1_28  and  C23_30 
REMARK   11  A    between atoms: C26_34  and  O7_35 
REMARK   12  A    between atoms: C28_38  and  O8_39 
REMARK   13  A    between atoms: C29_41  and  O10_43 
ROOT
HETATM    1  C8  UNL     1      -3.901   4.626  22.054  1.00  0.00     0.289 C 
HETATM    2  O2  UNL     1      -3.385   5.917  22.422  1.00  0.00    -0.348 OA
HETATM    3  C9  UNL     1      -4.275   6.420  23.337  1.00  0.00     0.063 C 
HETATM    4  C10 UNL     1      -3.904   7.899  23.481  1.00  0.00     0.046 C 
HETATM    5  C11 UNL     1      -5.717   6.445  22.877  1.00  0.00     0.046 C 
HETATM    6  C12 UNL     1      -4.202   5.689  24.661  1.00  0.00     0.059 C 
HETATM    7  C13 UNL     1      -3.084   6.260  25.457  1.00  0.00     0.140 C 
HETATM    8  C16 UNL     1      -1.955   5.247  25.678  1.00  0.00     0.042 C 
HETATM    9  C17 UNL     1      -2.640   4.132  26.447  1.00  0.00     0.038 C 
HETATM   10  C18 UNL     1      -1.588   3.251  27.032  1.00  0.00     0.022 C 
HETATM   11  C19 UNL     1      -0.471   2.898  26.105  1.00  0.00     0.023 C 
HETATM   12  C20 UNL     1      -0.956   3.920  28.263  1.00  0.00     0.023 C 
HETATM   13  C21 UNL     1      -2.306   2.045  27.568  1.00  0.00     0.158 C 
HETATM   14  O5  UNL     1      -2.379   1.774  28.745  1.00  0.00    -0.295 OA
HETATM   15  C22 UNL     1      -2.924   1.209  26.497  1.00  0.00     0.158 C 
HETATM   16  C25 UNL     1      -3.408   2.018  25.319  1.00  0.00     0.071 C 
HETATM   17  C26 UNL     1      -3.721   3.458  25.690  1.00  0.00     0.071 C 
HETATM   18  C27 UNL     1      -4.214   4.223  24.481  1.00  0.00     0.063 C 
HETATM   19  C28 UNL     1      -3.648   3.698  23.168  1.00  0.00     0.180 C 
ENDROOT
BRANCH   1  20
HETATM   20  O1  UNL     1      -3.239   4.264  20.881  1.00  0.00    -0.358 OA
BRANCH  20  21
HETATM   21  C7  UNL     1      -4.102   3.967  19.887  1.00  0.00     0.185 C 
BRANCH  21  22
HETATM   22  C6  UNL     1      -4.080   2.686  19.159  1.00  0.00     0.110 C 
BRANCH  22  23
HETATM   23  C5  UNL     1      -3.452   1.518  19.828  1.00  0.00     0.021 C 
BRANCH  23  24
HETATM   24  C3  UNL     1      -4.301   0.269  19.875  1.00  0.00    -0.018 C 
HETATM   25  C4  UNL     1      -5.777   0.535  20.021  1.00  0.00     0.010 C 
BRANCH  24  26
HETATM   26  C2  UNL     1      -3.890  -0.471  21.163  1.00  0.00    -0.000 C 
HETATM   27  C1  UNL     1      -3.448  -1.873  20.869  1.00  0.00     0.005 C 
ENDBRANCH  24  26
ENDBRANCH  23  24
ENDBRANCH  22  23
BRANCH  22  28
HETATM   28  C29 UNL     1      -3.679   2.854  17.716  1.00  0.00     0.264 C 
HETATM   29  O9  UNL     1      -2.885   3.713  17.307  1.00  0.00    -0.265 OA
BRANCH  28  30
HETATM   30  O10 UNL     1      -4.244   1.977  16.773  1.00  0.00    -0.326 OA
HETATM   31  C30 UNL     1      -5.637   1.980  16.520  1.00  0.00     0.213 C 
ENDBRANCH  28  30
ENDBRANCH  22  28
ENDBRANCH  21  22
ENDBRANCH  20  21
ENDBRANCH   1  20
BRANCH  19  32
HETATM   32  O8  UNL     1      -4.298   2.501  22.825  1.00  0.00    -0.390 OA
ATOM     33  H8  UNL     1      -4.878   2.717  22.104  1.00  0.00     0.210 HD
ENDBRANCH  19  32
BRANCH  17  34
HETATM   34  O7  UNL     1      -4.820   3.320  26.585  1.00  0.00    -0.389 OA
ATOM     35  H7  UNL     1      -4.824   2.414  26.872  1.00  0.00     0.210 HD
ENDBRANCH  17  34
BRANCH   7  36
HETATM   36  O3  UNL     1      -3.507   6.578  26.794  1.00  0.00    -0.316 OA
BRANCH  36  37
HETATM   37  C14 UNL     1      -3.534   7.830  27.320  1.00  0.00     0.255 C 
HETATM   38  C15 UNL     1      -2.682   8.894  26.728  1.00  0.00     0.126 C 
HETATM   39  O4  UNL     1      -4.267   8.087  28.296  1.00  0.00    -0.266 OA
ENDBRANCH  36  37
ENDBRANCH   7  36
BRANCH  15  40
HETATM   40  N1  UNL     1      -3.947   0.414  27.102  1.00  0.00    -0.350 N 
HETATM   41  C23 UNL     1      -4.194  -0.915  26.668  1.00  0.00     0.214 C 
HETATM   42  C24 UNL     1      -5.251  -1.762  27.278  1.00  0.00     0.117 C 
HETATM   43  O6  UNL     1      -3.501  -1.425  25.722  1.00  0.00    -0.274 OA
ATOM     44  H1  UNL     1      -4.509   0.808  27.858  1.00  0.00     0.163 HD
ENDBRANCH  15  40
TORSDOF 13
ENDMDL
MODEL 2
REMARK VINA RESULT: -7.739622427      1.032      2.154
REMARK  13 active torsions:
REMARK  status: ('A' for Active; 'I' for Inactive)
REMARK    1  A    between atoms: C2_2  and  C3_3 
REMARK    2  A    between atoms: C3_3  and  C5_5 
REMARK    3  A    between atoms: C5_5  and  C6_6 
REMARK    4  A    between atoms: C6_6  and  C7_7 
REMARK    5  A    between atoms: C6_6  and  C29_41 
REMARK    6  A    between atoms: C7_7  and  O1_8 
REMARK    7  A    between atoms: O1_8  and  C8_9 
REMARK    8  A    between atoms: C13_15  and  O3_16 
REMARK    9  A    between atoms: O3_16  and  C14_17 
REMARK   10  A    between atoms: C22_27  and  N1_28 
REMARK       I    between atoms: N1_28  and  C23_30 
REMARK   11  A    between atoms: C26_34  and  O7_35 
REMARK   12  A    between atoms: C28_38  and  O8_39 
REMARK   13  A    between atoms: C29_41  and  O10_43 
ROOT
HETATM    1  C8  UNL     1      -3.779   4.963  22.405  1.00  0.00     0.289 C 
HETATM    2  O2  UNL     1      -3.201   6.214  22.816  1.00  0.00    -0.348 OA
HETATM    3  C9  UNL     1      -4.010   6.681  23.820  1.00  0.00     0.063 C 
HETATM    4  C10 UNL     1      -3.585   8.137  24.030  1.00  0.00     0.046 C 
HETATM    5  C11 UNL     1      -5.478   6.773  23.465  1.00  0.00     0.046 C 
HETATM    6  C12 UNL     1      -3.870   5.864  25.088  1.00  0.00     0.059 C 
HETATM    7  C13 UNL     1      -2.684   6.353  25.838  1.00  0.00     0.140 C 
HETATM    8  C16 UNL     1      -1.573   5.299  25.917  1.00  0.00     0.042 C 
HETATM    9  C17 UNL     1      -2.239   4.156  26.660  1.00  0.00     0.038 C 
HETATM   10  C18 UNL     1      -1.177   3.211  27.115  1.00  0.00     0.022 C 
HETATM   11  C19 UNL     1      -0.137   2.890  26.092  1.00  0.00     0.023 C 
HETATM   12  C20 UNL     1      -0.443   3.783  28.338  1.00  0.00     0.023 C 
HETATM   13  C21 UNL     1      -1.893   1.993  27.624  1.00  0.00     0.158 C 
HETATM   14  O5  UNL     1      -1.894   1.649  28.784  1.00  0.00    -0.295 OA
HETATM   15  C22 UNL     1      -2.608   1.243  26.549  1.00  0.00     0.158 C 
HETATM   16  C25 UNL     1      -3.146   2.139  25.460  1.00  0.00     0.071 C 
HETATM   17  C26 UNL     1      -3.389   3.560  25.940  1.00  0.00     0.071 C 
HETATM   18  C27 UNL     1      -3.939   4.414  24.818  1.00  0.00     0.063 C 
HETATM   19  C28 UNL     1      -3.481   3.959  23.439  1.00  0.00     0.180 C 
ENDROOT
BRANCH   1  20
HETATM   20  O1  UNL     1      -3.211   4.659  21.169  1.00  0.00    -0.358 OA
BRANCH  20  21
HETATM   21  C7  UNL     1      -4.118   4.156  20.307  1.00  0.00     0.185 C 
BRANCH  21  22
HETATM   22  C6  UNL     1      -3.920   2.889  19.580  1.00  0.00     0.110 C 
BRANCH  22  23
HETATM   23  C5  UNL     1      -3.681   2.960  18.115  1.00  0.00     0.021 C 
BRANCH  23  24
HETATM   24  C3  UNL     1      -2.983   1.760  17.517  1.00  0.00    -0.018 C 
HETATM   25  C4  UNL     1      -1.515   1.975  17.247  1.00  0.00     0.010 C 
BRANCH  24  26
HETATM   26  C2  UNL     1      -3.626   1.546  16.133  1.00  0.00    -0.000 C 
HETATM   27  C1  UNL     1      -5.057   1.991  16.122  1.00  0.00     0.005 C 
ENDBRANCH  24  26
ENDBRANCH  23  24
ENDBRANCH  22  23
BRANCH  22  28
HETATM   28  C29 UNL     1      -4.913   1.833  19.987  1.00  0.00     0.264 C 
HETATM   29  O9  UNL     1      -6.051   1.723  19.508  1.00  0.00    -0.265 OA
BRANCH  28  30
HETATM   30  O10 UNL     1      -4.523   0.913  20.976  1.00  0.00    -0.326 OA
HETATM   31  C30 UNL     1      -3.790  -0.250  20.640  1.00  0.00     0.213 C 
ENDBRANCH  28  30
ENDBRANCH  22  28
ENDBRANCH  21  22
ENDBRANCH  20  21
ENDBRANCH   1  20
BRANCH  19  32
HETATM   32  O8  UNL     1      -4.189   2.805  23.069  1.00  0.00    -0.390 OA
ATOM     33  H8  UNL     1      -5.107   3.010  23.200  1.00  0.00     0.210 HD
ENDBRANCH  19  32
BRANCH  17  34
HETATM   34  O7  UNL     1      -4.428   3.394  26.900  1.00  0.00    -0.389 OA
ATOM     35  H7  UNL     1      -5.164   3.912  26.596  1.00  0.00     0.210 HD
ENDBRANCH  17  34
BRANCH   7  36
HETATM   36  O3  UNL     1      -3.005   6.596  27.219  1.00  0.00    -0.316 OA
BRANCH  36  37
HETATM   37  C14 UNL     1      -3.311   7.812  27.740  1.00  0.00     0.255 C 
HETATM   38  C15 UNL     1      -2.418   8.970  27.477  1.00  0.00     0.126 C 
HETATM   39  O4  UNL     1      -4.336   7.959  28.436  1.00  0.00    -0.266 OA
ENDBRANCH  36  37
ENDBRANCH   7  36
BRANCH  15  40
HETATM   40  N1  UNL     1      -3.612   0.439  27.173  1.00  0.00    -0.350 N 
HETATM   41  C23 UNL     1      -4.004  -0.806  26.614  1.00  0.00     0.214 C 
HETATM   42  C24 UNL     1      -5.044  -1.661  27.242  1.00  0.00     0.117 C 
HETATM   43  O6  UNL     1      -3.462  -1.230  25.537  1.00  0.00    -0.274 OA
ATOM     44  H1  UNL     1      -4.054   0.765  28.033  1.00  0.00     0.163 HD
ENDBRANCH  15  40
TORSDOF 13
ENDMDL
MODEL 3
REMARK VINA RESULT: -7.707880537      1.117      1.246
REMARK  13 active torsions:
REMARK  status: ('A' for Active; 'I' for Inactive)
REMARK    1  A    between atoms: C2_2  and  C3_3 
REMARK    2  A    between atoms: C3_3  and  C5_5 
REMARK    3  A    between atoms: C5_5  and  C6_6 
REMARK    4  A    between atoms: C6_6  and  C7_7 
REMARK    5  A    between atoms: C6_6  and  C29_41 
REMARK    6  A    between atoms: C7_7  and  O1_8 
REMARK    7  A    between atoms: O1_8  and  C8_9 
REMARK    8  A    between atoms: C13_15  and  O3_16 
REMARK    9  A    between atoms: O3_16  and  C14_17 
REMARK   10  A    between atoms: C22_27  and  N1_28 
REMARK       I    between atoms: N1_28  and  C23_30 
REMARK   11  A    between atoms: C26_34  and  O7_35 
REMARK   12  A    between atoms: C28_38  and  O8_39 
REMARK   13  A    between atoms: C29_41  and  O10_43 
ROOT
HETATM    1  C8  UNL     1      -3.730   5.171  22.753  1.00  0.00     0.289 C 
HETATM    2  O2  UNL     1      -3.201   6.468  23.079  1.00  0.00    -0.348 OA
HETATM    3  C9  UNL     1      -3.963   6.924  24.124  1.00  0.00     0.063 C 
HETATM    4  C10 UNL     1      -3.614   8.410  24.253  1.00  0.00     0.046 C 
HETATM    5  C11 UNL     1      -5.456   6.917  23.875  1.00  0.00     0.046 C 
HETATM    6  C12 UNL     1      -3.682   6.165  25.404  1.00  0.00     0.059 C 
HETATM    7  C13 UNL     1      -2.477   6.750  26.047  1.00  0.00     0.140 C 
HETATM    8  C16 UNL     1      -1.302   5.767  26.078  1.00  0.00     0.042 C 
HETATM    9  C17 UNL     1      -1.841   4.615  26.907  1.00  0.00     0.038 C 
HETATM   10  C18 UNL     1      -0.693   3.752  27.312  1.00  0.00     0.022 C 
HETATM   11  C19 UNL     1       0.288   3.453  26.226  1.00  0.00     0.023 C 
HETATM   12  C20 UNL     1       0.091   4.410  28.457  1.00  0.00     0.023 C 
HETATM   13  C21 UNL     1      -1.295   2.513  27.912  1.00  0.00     0.158 C 
HETATM   14  O5  UNL     1      -1.192   2.214  29.080  1.00  0.00    -0.295 OA
HETATM   15  C22 UNL     1      -2.039   1.684  26.919  1.00  0.00     0.158 C 
HETATM   16  C25 UNL     1      -2.707   2.505  25.844  1.00  0.00     0.071 C 
HETATM   17  C26 UNL     1      -3.002   3.926  26.294  1.00  0.00     0.071 C 
HETATM   18  C27 UNL     1      -3.682   4.704  25.188  1.00  0.00     0.063 C 
HETATM   19  C28 UNL     1      -3.297   4.226  23.795  1.00  0.00     0.180 C 
ENDROOT
BRANCH   1  20
HETATM   20  O1  UNL     1      -3.235   4.855  21.488  1.00  0.00    -0.358 OA
BRANCH  20  21
HETATM   21  C7  UNL     1      -4.224   4.704  20.583  1.00  0.00     0.185 C 
BRANCH  21  22
HETATM   22  C6  UNL     1      -4.416   3.470  19.801  1.00  0.00     0.110 C 
BRANCH  22  23
HETATM   23  C5  UNL     1      -4.968   2.282  20.503  1.00  0.00     0.021 C 
BRANCH  23  24
HETATM   24  C3  UNL     1      -5.387   1.141  19.606  1.00  0.00    -0.018 C 
HETATM   25  C4  UNL     1      -6.853   0.800  19.690  1.00  0.00     0.010 C 
BRANCH  24  26
HETATM   26  C2  UNL     1      -4.647  -0.103  20.134  1.00  0.00    -0.000 C 
HETATM   27  C1  UNL     1      -4.261   0.062  21.573  1.00  0.00     0.005 C 
ENDBRANCH  24  26
ENDBRANCH  23  24
ENDBRANCH  22  23
BRANCH  22  28
HETATM   28  C29 UNL     1      -3.236   3.164  18.915  1.00  0.00     0.264 C 
HETATM   29  O9  UNL     1      -2.172   2.669  19.315  1.00  0.00    -0.265 OA
BRANCH  28  30
HETATM   30  O10 UNL     1      -3.351   3.459  17.546  1.00  0.00    -0.326 OA
HETATM   31  C30 UNL     1      -3.580   2.434  16.597  1.00  0.00     0.213 C 
ENDBRANCH  28  30
ENDBRANCH  22  28
ENDBRANCH  21  22
ENDBRANCH  20  21
ENDBRANCH   1  20
BRANCH  19  32
HETATM   32  O8  UNL     1      -3.958   3.019  23.516  1.00  0.00    -0.390 OA
ATOM     33  H8  UNL     1      -4.195   2.652  24.360  1.00  0.00     0.210 HD
ENDBRANCH  19  32
BRANCH  17  34
HETATM   34  O7  UNL     1      -3.956   3.736  27.333  1.00  0.00    -0.389 OA
ATOM     35  H7  UNL     1      -3.676   2.971  27.822  1.00  0.00     0.210 HD
ENDBRANCH  17  34
BRANCH   7  36
HETATM   36  O3  UNL     1      -2.712   7.025  27.440  1.00  0.00    -0.316 OA
BRANCH  36  37
HETATM   37  C14 UNL     1      -3.335   8.134  27.915  1.00  0.00     0.255 C 
HETATM   38  C15 UNL     1      -2.747   9.475  27.658  1.00  0.00     0.126 C 
HETATM   39  O4  UNL     1      -4.395   8.031  28.564  1.00  0.00    -0.266 OA
ENDBRANCH  36  37
ENDBRANCH   7  36
BRANCH  15  40
HETATM   40  N1  UNL     1      -2.944   0.846  27.642  1.00  0.00    -0.350 N 
HETATM   41  C23 UNL     1      -3.168  -0.500  27.249  1.00  0.00     0.214 C 
HETATM   42  C24 UNL     1      -4.103  -1.392  27.982  1.00  0.00     0.117 C 
HETATM   43  O6  UNL     1      -2.560  -0.987  26.235  1.00  0.00    -0.274 OA
ATOM     44  H1  UNL     1      -3.437   1.221  28.453  1.00  0.00     0.163 HD
ENDBRANCH  15  40
TORSDOF 13
ENDMDL
MODEL 4
REMARK VINA RESULT: -7.673718618      1.474      2.420
REMARK  13 active torsions:
REMARK  status: ('A' for Active; 'I' for Inactive)
REMARK    1  A    between atoms: C2_2  and  C3_3 
REMARK    2  A    between atoms: C3_3  and  C5_5 
REMARK    3  A    between atoms: C5_5  and  C6_6 
REMARK    4  A    between atoms: C6_6  and  C7_7 
REMARK    5  A    between atoms: C6_6  and  C29_41 
REMARK    6  A    between atoms: C7_7  and  O1_8 
REMARK    7  A    between atoms: O1_8  and  C8_9 
REMARK    8  A    between atoms: C13_15  and  O3_16 
REMARK    9  A    between atoms: O3_16  and  C14_17 
REMARK   10  A    between atoms: C22_27  and  N1_28 
REMARK       I    between atoms: N1_28  and  C23_30 
REMARK   11  A    between atoms: C26_34  and  O7_35 
REMARK   12  A    between atoms: C28_38  and  O8_39 
REMARK   13  A    between atoms: C29_41  and  O10_43 
ROOT
HETATM    1  C8  UNL     1      -3.917   4.672  21.475  1.00  0.00     0.289 C 
HETATM    2  O2  UNL     1      -3.532   6.052  21.603  1.00  0.00    -0.348 OA
HETATM    3  C9  UNL     1      -4.505   6.636  22.372  1.00  0.00     0.063 C 
HETATM    4  C10 UNL     1      -4.268   8.143  22.238  1.00  0.00     0.046 C 
HETATM    5  C11 UNL     1      -5.919   6.440  21.869  1.00  0.00     0.046 C 
HETATM    6  C12 UNL     1      -4.438   6.180  23.814  1.00  0.00     0.059 C 
HETATM    7  C13 UNL     1      -3.413   6.992  24.521  1.00  0.00     0.140 C 
HETATM    8  C16 UNL     1      -2.215   6.149  24.973  1.00  0.00     0.042 C 
HETATM    9  C17 UNL     1      -2.843   5.142  25.920  1.00  0.00     0.038 C 
HETATM   10  C18 UNL     1      -1.751   4.490  26.700  1.00  0.00     0.022 C 
HETATM   11  C19 UNL     1      -0.563   4.071  25.896  1.00  0.00     0.023 C 
HETATM   12  C20 UNL     1      -1.240   5.436  27.797  1.00  0.00     0.023 C 
HETATM   13  C21 UNL     1      -2.391   3.347  27.436  1.00  0.00     0.158 C 
HETATM   14  O5  UNL     1      -2.500   3.300  28.639  1.00  0.00    -0.295 OA
HETATM   15  C22 UNL     1      -2.882   2.268  26.528  1.00  0.00     0.158 C 
HETATM   16  C25 UNL     1      -3.372   2.791  25.199  1.00  0.00     0.071 C 
HETATM   17  C26 UNL     1      -3.824   4.239  25.273  1.00  0.00     0.071 C 
HETATM   18  C27 UNL     1      -4.318   4.712  23.922  1.00  0.00     0.063 C 
HETATM   19  C28 UNL     1      -3.644   4.000  22.756  1.00  0.00     0.180 C 
ENDROOT
BRANCH   1  20
HETATM   20  O1  UNL     1      -3.170   4.156  20.417  1.00  0.00    -0.358 OA
BRANCH  20  21
HETATM   21  C7  UNL     1      -3.919   3.392  19.595  1.00  0.00     0.185 C 
BRANCH  21  22
HETATM   22  C6  UNL     1      -3.652   1.962  19.360  1.00  0.00     0.110 C 
BRANCH  22  23
HETATM   23  C5  UNL     1      -3.149   1.562  18.021  1.00  0.00     0.021 C 
BRANCH  23  24
HETATM   24  C3  UNL     1      -3.665   2.388  16.865  1.00  0.00    -0.018 C 
HETATM   25  C4  UNL     1      -5.004   1.937  16.338  1.00  0.00     0.010 C 
BRANCH  24  26
HETATM   26  C2  UNL     1      -2.673   2.160  15.709  1.00  0.00    -0.000 C 
HETATM   27  C1  UNL     1      -1.281   1.937  16.220  1.00  0.00     0.005 C 
ENDBRANCH  24  26
ENDBRANCH  23  24
ENDBRANCH  22  23
BRANCH  22  28
HETATM   28  C29 UNL     1      -4.752   1.080  19.890  1.00  0.00     0.264 C 
HETATM   29  O9  UNL     1      -5.785   1.499  20.431  1.00  0.00    -0.265 OA
BRANCH  28  30
HETATM   30  O10 UNL     1      -4.594  -0.312  19.763  1.00  0.00    -0.326 OA
HETATM   31  C30 UNL     1      -3.906  -1.059  20.749  1.00  0.00     0.213 C 
ENDBRANCH  28  30
ENDBRANCH  22  28
ENDBRANCH  21  22
ENDBRANCH  20  21
ENDBRANCH   1  20
BRANCH  19  32
HETATM   32  O8  UNL     1      -4.173   2.706  22.631  1.00  0.00    -0.390 OA
ATOM     33  H8  UNL     1      -3.920   2.244  23.422  1.00  0.00     0.210 HD
ENDBRANCH  19  32
BRANCH  17  34
HETATM   34  O7  UNL     1      -4.951   4.174  26.141  1.00  0.00    -0.389 OA
ATOM     35  H7  UNL     1      -5.624   3.692  25.676  1.00  0.00     0.210 HD
ENDBRANCH  17  34
BRANCH   7  36
HETATM   36  O3  UNL     1      -3.928   7.519  25.757  1.00  0.00    -0.316 OA
BRANCH  36  37
HETATM   37  C14 UNL     1      -3.531   8.687  26.325  1.00  0.00     0.255 C 
HETATM   38  C15 UNL     1      -3.136   8.710  27.758  1.00  0.00     0.126 C 
HETATM   39  O4  UNL     1      -3.499   9.736  25.652  1.00  0.00    -0.266 OA
ENDBRANCH  36  37
ENDBRANCH   7  36
BRANCH  15  40
HETATM   40  N1  UNL     1      -3.864   1.513  27.241  1.00  0.00    -0.350 N 
HETATM   41  C23 UNL     1      -3.653   0.143  27.547  1.00  0.00     0.214 C 
HETATM   42  C24 UNL     1      -4.656  -0.665  28.286  1.00  0.00     0.117 C 
HETATM   43  O6  UNL     1      -2.574  -0.441  27.186  1.00  0.00    -0.274 OA
ATOM     44  H1  UNL     1      -4.730   1.965  27.535  1.00  0.00     0.163 HD
ENDBRANCH  15  40
TORSDOF 13
ENDMDL
MODEL 5
REMARK VINA RESULT: -7.633151058      0.924      1.777
REMARK  13 active torsions:
REMARK  status: ('A' for Active; 'I' for Inactive)
REMARK    1  A    between atoms: C2_2  and  C3_3 
REMARK    2  A    between atoms: C3_3  and  C5_5 
REMARK    3  A    between atoms: C5_5  and  C6_6 
REMARK    4  A    between atoms: C6_6  and  C7_7 
REMARK    5  A    between atoms: C6_6  and  C29_41 
REMARK    6  A    between atoms: C7_7  and  O1_8 
REMARK    7  A    between atoms: O1_8  and  C8_9 
REMARK    8  A    between atoms: C13_15  and  O3_16 
REMARK    9  A    between atoms: O3_16  and  C14_17 
REMARK   10  A    between atoms: C22_27  and  N1_28 
REMARK       I    between atoms: N1_28  and  C23_30 
REMARK   11  A    between atoms: C26_34  and  O7_35 
REMARK   12  A    between atoms: C28_38  and  O8_39 
REMARK   13  A    between atoms: C29_41  and  O10_43 
ROOT
HETATM    1  C8  UNL     1      -3.837   4.750  21.993  1.00  0.00     0.289 C 
HETATM    2  O2  UNL     1      -3.389   6.060  22.381  1.00  0.00    -0.348 OA
HETATM    3  C9  UNL     1      -4.342   6.534  23.244  1.00  0.00     0.063 C 
HETATM    4  C10 UNL     1      -4.033   8.026  23.399  1.00  0.00     0.046 C 
HETATM    5  C11 UNL     1      -5.758   6.506  22.709  1.00  0.00     0.046 C 
HETATM    6  C12 UNL     1      -4.314   5.811  24.574  1.00  0.00     0.059 C 
HETATM    7  C13 UNL     1      -3.261   6.425  25.425  1.00  0.00     0.140 C 
HETATM    8  C16 UNL     1      -2.109   5.454  25.711  1.00  0.00     0.042 C 
HETATM    9  C17 UNL     1      -2.794   4.318  26.449  1.00  0.00     0.038 C 
HETATM   10  C18 UNL     1      -1.743   3.478  27.094  1.00  0.00     0.022 C 
HETATM   11  C19 UNL     1      -0.567   3.162  26.229  1.00  0.00     0.023 C 
HETATM   12  C20 UNL     1      -1.201   4.173  28.352  1.00  0.00     0.023 C 
HETATM   13  C21 UNL     1      -2.444   2.249  27.598  1.00  0.00     0.158 C 
HETATM   14  O5  UNL     1      -2.570   1.980  28.771  1.00  0.00    -0.295 OA
HETATM   15  C22 UNL     1      -2.975   1.387  26.501  1.00  0.00     0.158 C 
HETATM   16  C25 UNL     1      -3.424   2.174  25.294  1.00  0.00     0.071 C 
HETATM   17  C26 UNL     1      -3.809   3.603  25.640  1.00  0.00     0.071 C 
HETATM   18  C27 UNL     1      -4.264   4.345  24.402  1.00  0.00     0.063 C 
HETATM   19  C28 UNL     1      -3.611   3.836  23.124  1.00  0.00     0.180 C 
ENDROOT
BRANCH   1  20
HETATM   20  O1  UNL     1      -3.103   4.407  20.858  1.00  0.00    -0.358 OA
BRANCH  20  21
HETATM   21  C7  UNL     1      -3.887   4.286  19.767  1.00  0.00     0.185 C 
BRANCH  21  22
HETATM   22  C6  UNL     1      -4.070   3.015  19.046  1.00  0.00     0.110 C 
BRANCH  22  23
HETATM   23  C5  UNL     1      -5.452   2.490  18.905  1.00  0.00     0.021 C 
BRANCH  23  24
HETATM   24  C3  UNL     1      -5.646   1.470  17.806  1.00  0.00    -0.018 C 
HETATM   25  C4  UNL     1      -6.098   2.058  16.494  1.00  0.00     0.010 C 
BRANCH  24  26
HETATM   26  C2  UNL     1      -6.804   0.566  18.270  1.00  0.00    -0.000 C 
HETATM   27  C1  UNL     1      -7.131   0.797  19.715  1.00  0.00     0.005 C 
ENDBRANCH  24  26
ENDBRANCH  23  24
ENDBRANCH  22  23
BRANCH  22  28
HETATM   28  C29 UNL     1      -3.059   1.974  19.452  1.00  0.00     0.264 C 
HETATM   29  O9  UNL     1      -1.935   1.857  18.944  1.00  0.00    -0.265 OA
BRANCH  28  30
HETATM   30  O10 UNL     1      -3.415   1.079  20.476  1.00  0.00    -0.326 OA
HETATM   31  C30 UNL     1      -3.572  -0.303  20.211  1.00  0.00     0.213 C 
ENDBRANCH  28  30
ENDBRANCH  22  28
ENDBRANCH  21  22
ENDBRANCH  20  21
ENDBRANCH   1  20
BRANCH  19  32
HETATM   32  O8  UNL     1      -4.199   2.615  22.755  1.00  0.00    -0.390 OA
ATOM     33  H8  UNL     1      -3.479   2.042  22.516  1.00  0.00     0.210 HD
ENDBRANCH  19  32
BRANCH  17  34
HETATM   34  O7  UNL     1      -4.947   3.429  26.477  1.00  0.00    -0.389 OA
ATOM     35  H7  UNL     1      -5.560   2.889  25.993  1.00  0.00     0.210 HD
ENDBRANCH  17  34
BRANCH   7  36
HETATM   36  O3  UNL     1      -3.765   6.732  26.737  1.00  0.00    -0.316 OA
BRANCH  36  37
HETATM   37  C14 UNL     1      -3.619   7.930  27.360  1.00  0.00     0.255 C 
HETATM   38  C15 UNL     1      -3.652   7.995  28.845  1.00  0.00     0.126 C 
HETATM   39  O4  UNL     1      -3.461   8.972  26.693  1.00  0.00    -0.266 OA
ENDBRANCH  36  37
ENDBRANCH   7  36
BRANCH  15  40
HETATM   40  N1  UNL     1      -4.000   0.558  27.056  1.00  0.00    -0.350 N 
HETATM   41  C23 UNL     1      -4.155  -0.791  26.640  1.00  0.00     0.214 C 
HETATM   42  C24 UNL     1      -5.211  -1.673  27.199  1.00  0.00     0.117 C 
HETATM   43  O6  UNL     1      -3.376  -1.288  25.757  1.00  0.00    -0.274 OA
ATOM     44  H1  UNL     1      -4.629   0.942  27.761  1.00  0.00     0.163 HD
ENDBRANCH  15  40
TORSDOF 13
ENDMDL
