MODEL 1
REMARK VINA RESULT: -8.117794340      0.000      0.000
REMARK  14 active torsions:
REMARK  status: ('A' for Active; 'I' for Inactive)
REMARK    1  A    between atoms: C3_3  and  O1_4 
REMARK    2  A    between atoms: C3_3  and  C4_6 
REMARK    3  A    between atoms: C3_3  and  C11_13 
REMARK    4  A    between atoms: C4_6  and  C5_7 
REMARK    5  A    between atoms: C5_7  and  C6_8 
REMARK    6  A    between atoms: C6_8  and  C7_9 
REMARK    7  A    between atoms: C7_9  and  C9_11 
REMARK    8  A    between atoms: C14_16  and  O2_17 
REMARK    9  A    between atoms: N1_22  and  O3_24 
REMARK   10  A    between atoms: O3_24  and  C18_25 
REMARK   11  A    between atoms: C22_30  and  C23_31 
REMARK   12  A    between atoms: C23_31  and  C25_33 
REMARK   13  A    between atoms: C25_33  and  O5_34 
REMARK   14  A    between atoms: C30_42  and  C31_43 
ROOT
HETATM    1  C1  UNL     1      -6.832   0.835  19.783  1.00  0.00     0.015 C 
HETATM    2  C2  UNL     1      -5.797   0.493  20.295  1.00  0.00    -0.079 C 
HETATM    3  C3  UNL     1      -4.458   0.060  20.918  1.00  0.00     0.124 C 
ENDROOT
BRANCH   3   4
HETATM    4  O1  UNL     1      -4.389  -1.289  20.612  1.00  0.00    -0.377 OA
ATOM      5  H1  UNL     1      -3.583  -1.564  21.033  1.00  0.00     0.211 HD
ENDBRANCH   3   4
BRANCH   3   6
HETATM    6  C4  UNL     1      -3.460   0.816  20.136  1.00  0.00     0.052 C 
BRANCH   6   7
HETATM    7  C5  UNL     1      -3.636   0.860  18.669  1.00  0.00     0.004 C 
BRANCH   7   8
HETATM    8  C6  UNL     1      -3.176   2.191  18.113  1.00  0.00     0.004 C 
BRANCH   8   9
HETATM    9  C7  UNL     1      -3.533   2.359  16.663  1.00  0.00    -0.019 C 
HETATM   10  C8  UNL     1      -4.899   1.779  16.372  1.00  0.00     0.010 C 
BRANCH   9  11
HETATM   11  C9  UNL     1      -2.545   1.727  15.732  1.00  0.00    -0.000 C 
HETATM   12  C10 UNL     1      -1.115   2.025  16.103  1.00  0.00     0.005 C 
ENDBRANCH   9  11
ENDBRANCH   8   9
ENDBRANCH   7   8
ENDBRANCH   6   7
ENDBRANCH   3   6
BRANCH   3  13
HETATM   13  C11 UNL     1      -4.592   0.381  22.358  1.00  0.00     0.040 C 
HETATM   14  C12 UNL     1      -3.868  -0.869  23.004  1.00  0.00     0.012 C 
HETATM   15  C13 UNL     1      -3.657  -0.527  24.427  1.00  0.00     0.039 C 
HETATM   16  C14 UNL     1      -3.978   0.914  24.485  1.00  0.00     0.067 C 
HETATM   17  C15 UNL     1      -3.321   1.666  25.544  1.00  0.00     0.031 C 
HETATM   18  C33 UNL     1      -3.818   1.435  23.038  1.00  0.00     0.039 C 
HETATM   19  C16 UNL     1      -1.854   1.604  25.684  1.00  0.00     0.063 C 
HETATM   20  C28 UNL     1      -3.840   3.113  25.469  1.00  0.00     0.008 C 
HETATM   21  C17 UNL     1      -1.396   2.420  26.843  1.00  0.00     0.023 C 
HETATM   22  N1  UNL     1      -0.579   1.868  27.667  1.00  0.00    -0.265 N 
HETATM   23  C20 UNL     1      -1.885   3.781  26.930  1.00  0.00     0.037 C 
ATOM     24  H1  UNL     1      -0.248   2.401  28.471  1.00  0.00     0.194 HD
HETATM   25  C21 UNL     1      -1.204   4.666  25.860  1.00  0.00     0.025 C 
HETATM   26  C22 UNL     1      -1.823   4.542  28.173  1.00  0.00     0.152 C 
HETATM   27  C27 UNL     1      -3.382   3.765  26.674  1.00  0.00     0.106 C 
HETATM   28  O6  UNL     1      -2.962   5.434  28.085  1.00  0.00    -0.314 OA
HETATM   29  C26 UNL     1      -3.652   5.170  26.913  1.00  0.00     0.265 C 
HETATM   30  O7  UNL     1      -4.324   5.979  26.263  1.00  0.00    -0.265 OA
HETATM   31  C29 UNL     1      -3.479   3.595  24.140  1.00  0.00     0.018 C 
HETATM   32  C30 UNL     1      -4.344   2.822  23.097  1.00  0.00     0.063 C 
BRANCH  16  33
HETATM   33  O2  UNL     1      -5.377   1.018  24.701  1.00  0.00    -0.389 OA
ATOM     34  H2  UNL     1      -5.592   1.943  24.690  1.00  0.00     0.210 HD
ENDBRANCH  16  33
BRANCH  22  35
HETATM   35  O3  UNL     1      -0.144   0.584  27.494  1.00  0.00    -0.200 OA
BRANCH  35  36
HETATM   36  C18 UNL     1       0.186  -0.237  28.561  1.00  0.00     0.277 C 
HETATM   37  C19 UNL     1      -0.727  -0.540  29.683  1.00  0.00     0.128 C 
HETATM   38  O4  UNL     1       1.328  -0.756  28.576  1.00  0.00    -0.264 OA
ENDBRANCH  35  36
ENDBRANCH  22  35
BRANCH  26  39
HETATM   39  C23 UNL     1      -1.725   3.905  29.494  1.00  0.00     0.036 C 
HETATM   40  C24 UNL     1      -0.447   4.509  30.159  1.00  0.00     0.015 C 
BRANCH  39  41
HETATM   41  C25 UNL     1      -2.822   4.112  30.487  1.00  0.00     0.170 C 
BRANCH  41  42
HETATM   42  O5  UNL     1      -3.562   2.888  30.630  1.00  0.00    -0.400 OA
ATOM     43  H5  UNL     1      -4.428   3.005  30.258  1.00  0.00     0.209 HD
ENDBRANCH  41  42
ENDBRANCH  39  41
ENDBRANCH  26  39
BRANCH  32  44
HETATM   44  C31 UNL     1      -4.183   3.681  21.908  1.00  0.00     0.127 C 
HETATM   45  C32 UNL     1      -3.384   4.926  21.878  1.00  0.00     0.091 C 
HETATM   46  O8  UNL     1      -4.732   3.370  20.876  1.00  0.00    -0.298 OA
ENDBRANCH  32  44
ENDBRANCH   3  13
TORSDOF 14
ENDMDL
MODEL 2
REMARK VINA RESULT: -7.936960229      1.154      1.604
REMARK  14 active torsions:
REMARK  status: ('A' for Active; 'I' for Inactive)
REMARK    1  A    between atoms: C3_3  and  O1_4 
REMARK    2  A    between atoms: C3_3  and  C4_6 
REMARK    3  A    between atoms: C3_3  and  C11_13 
REMARK    4  A    between atoms: C4_6  and  C5_7 
REMARK    5  A    between atoms: C5_7  and  C6_8 
REMARK    6  A    between atoms: C6_8  and  C7_9 
REMARK    7  A    between atoms: C7_9  and  C9_11 
REMARK    8  A    between atoms: C14_16  and  O2_17 
REMARK    9  A    between atoms: N1_22  and  O3_24 
REMARK   10  A    between atoms: O3_24  and  C18_25 
REMARK   11  A    between atoms: C22_30  and  C23_31 
REMARK   12  A    between atoms: C23_31  and  C25_33 
REMARK   13  A    between atoms: C25_33  and  O5_34 
REMARK   14  A    between atoms: C30_42  and  C31_43 
ROOT
HETATM    1  C1  UNL     1      -3.885  -1.189  20.820  1.00  0.00     0.015 C 
HETATM    2  C2  UNL     1      -4.162  -0.026  20.964  1.00  0.00    -0.079 C 
HETATM    3  C3  UNL     1      -4.533   1.460  21.117  1.00  0.00     0.124 C 
ENDROOT
BRANCH   3   4
HETATM    4  O1  UNL     1      -3.504   2.111  20.458  1.00  0.00    -0.377 OA
ATOM      5  H1  UNL     1      -2.792   2.082  21.087  1.00  0.00     0.211 HD
ENDBRANCH   3   4
BRANCH   3   6
HETATM    6  C4  UNL     1      -5.790   1.577  20.350  1.00  0.00     0.052 C 
BRANCH   6   7
HETATM    7  C5  UNL     1      -6.111   0.490  19.402  1.00  0.00     0.004 C 
BRANCH   7   8
HETATM    8  C6  UNL     1      -6.482   1.052  18.046  1.00  0.00     0.004 C 
BRANCH   8   9
HETATM    9  C7  UNL     1      -5.356   1.825  17.419  1.00  0.00    -0.019 C 
HETATM   10  C8  UNL     1      -5.752   2.343  16.054  1.00  0.00     0.010 C 
BRANCH   9  11
HETATM   11  C9  UNL     1      -4.098   1.025  17.272  1.00  0.00    -0.000 C 
HETATM   12  C10 UNL     1      -3.193   1.548  16.187  1.00  0.00     0.005 C 
ENDBRANCH   9  11
ENDBRANCH   8   9
ENDBRANCH   7   8
ENDBRANCH   6   7
ENDBRANCH   3   6
BRANCH   3  13
HETATM   13  C11 UNL     1      -4.595   1.684  22.580  1.00  0.00     0.040 C 
HETATM   14  C12 UNL     1      -4.000   0.317  23.110  1.00  0.00     0.012 C 
HETATM   15  C13 UNL     1      -3.717   0.526  24.547  1.00  0.00     0.039 C 
HETATM   16  C14 UNL     1      -3.874   1.986  24.719  1.00  0.00     0.067 C 
HETATM   17  C15 UNL     1      -3.112   2.579  25.807  1.00  0.00     0.031 C 
HETATM   18  C33 UNL     1      -3.692   2.593  23.308  1.00  0.00     0.039 C 
HETATM   19  C16 UNL     1      -1.658   2.347  25.894  1.00  0.00     0.063 C 
HETATM   20  C28 UNL     1      -3.468   4.076  25.853  1.00  0.00     0.008 C 
HETATM   21  C17 UNL     1      -1.083   3.018  27.093  1.00  0.00     0.023 C 
HETATM   22  N1  UNL     1      -0.314   2.319  27.848  1.00  0.00    -0.265 N 
HETATM   23  C20 UNL     1      -1.416   4.414  27.294  1.00  0.00     0.037 C 
ATOM     24  H1  UNL     1       0.095   2.752  28.677  1.00  0.00     0.194 HD
HETATM   25  C21 UNL     1      -0.666   5.297  26.269  1.00  0.00     0.025 C 
HETATM   26  C22 UNL     1      -1.239   5.068  28.586  1.00  0.00     0.152 C 
HETATM   27  C27 UNL     1      -2.911   4.581  27.087  1.00  0.00     0.106 C 
HETATM   28  O6  UNL     1      -2.274   6.083  28.600  1.00  0.00    -0.314 OA
HETATM   29  C26 UNL     1      -3.017   5.985  27.434  1.00  0.00     0.265 C 
HETATM   30  O7  UNL     1      -3.610   6.910  26.867  1.00  0.00    -0.265 OA
HETATM   31  C29 UNL     1      -3.088   4.614  24.551  1.00  0.00     0.018 C 
HETATM   32  C30 UNL     1      -4.059   4.020  23.484  1.00  0.00     0.063 C 
BRANCH  16  33
HETATM   33  O2  UNL     1      -5.247   2.224  24.987  1.00  0.00    -0.389 OA
ATOM     34  H2  UNL     1      -5.353   2.205  25.931  1.00  0.00     0.210 HD
ENDBRANCH  16  33
BRANCH  22  35
HETATM   35  O3  UNL     1      -0.028   1.012  27.570  1.00  0.00    -0.200 OA
BRANCH  35  36
HETATM   36  C18 UNL     1       0.221   0.080  28.564  1.00  0.00     0.277 C 
HETATM   37  C19 UNL     1      -0.626  -0.095  29.763  1.00  0.00     0.128 C 
HETATM   38  O4  UNL     1       1.223  -0.663  28.439  1.00  0.00    -0.264 OA
ENDBRANCH  35  36
ENDBRANCH  22  35
BRANCH  26  39
HETATM   39  C23 UNL     1      -1.181   4.327  29.854  1.00  0.00     0.036 C 
HETATM   40  C24 UNL     1       0.178   4.727  30.513  1.00  0.00     0.015 C 
BRANCH  39  41
HETATM   41  C25 UNL     1      -2.217   4.585  30.898  1.00  0.00     0.170 C 
BRANCH  41  42
HETATM   42  O5  UNL     1      -3.477   4.062  30.447  1.00  0.00    -0.400 OA
ATOM     43  H5  UNL     1      -3.523   3.137  30.659  1.00  0.00     0.209 HD
ENDBRANCH  41  42
ENDBRANCH  39  41
ENDBRANCH  26  39
BRANCH  32  44
HETATM   44  C31 UNL     1      -3.832   4.944  22.355  1.00  0.00     0.127 C 
HETATM   45  C32 UNL     1      -4.422   6.296  22.248  1.00  0.00     0.091 C 
HETATM   46  O8  UNL     1      -3.120   4.595  21.441  1.00  0.00    -0.298 OA
ENDBRANCH  32  44
ENDBRANCH   3  13
TORSDOF 14
ENDMDL
MODEL 3
REMARK VINA RESULT: -7.742918470      1.242      1.280
REMARK  14 active torsions:
REMARK  status: ('A' for Active; 'I' for Inactive)
REMARK    1  A    between atoms: C3_3  and  O1_4 
REMARK    2  A    between atoms: C3_3  and  C4_6 
REMARK    3  A    between atoms: C3_3  and  C11_13 
REMARK    4  A    between atoms: C4_6  and  C5_7 
REMARK    5  A    between atoms: C5_7  and  C6_8 
REMARK    6  A    between atoms: C6_8  and  C7_9 
REMARK    7  A    between atoms: C7_9  and  C9_11 
REMARK    8  A    between atoms: C14_16  and  O2_17 
REMARK    9  A    between atoms: N1_22  and  O3_24 
REMARK   10  A    between atoms: O3_24  and  C18_25 
REMARK   11  A    between atoms: C22_30  and  C23_31 
REMARK   12  A    between atoms: C23_31  and  C25_33 
REMARK   13  A    between atoms: C25_33  and  O5_34 
REMARK   14  A    between atoms: C30_42  and  C31_43 
ROOT
HETATM    1  C1  UNL     1      -6.632   0.455  19.289  1.00  0.00     0.015 C 
HETATM    2  C2  UNL     1      -5.655   0.158  19.929  1.00  0.00    -0.079 C 
HETATM    3  C3  UNL     1      -4.389  -0.221  20.716  1.00  0.00     0.124 C 
ENDROOT
BRANCH   3   4
HETATM    4  O1  UNL     1      -4.339  -1.599  20.589  1.00  0.00    -0.377 OA
ATOM      5  H1  UNL     1      -4.225  -1.895  21.484  1.00  0.00     0.211 HD
ENDBRANCH   3   4
BRANCH   3   6
HETATM    6  C4  UNL     1      -3.303   0.407  19.937  1.00  0.00     0.052 C 
BRANCH   6   7
HETATM    7  C5  UNL     1      -3.602   0.789  18.541  1.00  0.00     0.004 C 
BRANCH   7   8
HETATM    8  C6  UNL     1      -2.779   1.990  18.126  1.00  0.00     0.004 C 
BRANCH   8   9
HETATM    9  C7  UNL     1      -3.120   2.468  16.742  1.00  0.00    -0.019 C 
HETATM   10  C8  UNL     1      -4.577   2.209  16.426  1.00  0.00     0.010 C 
BRANCH   9  11
HETATM   11  C9  UNL     1      -2.287   1.831  15.673  1.00  0.00    -0.000 C 
HETATM   12  C10 UNL     1      -0.889   2.390  15.608  1.00  0.00     0.005 C 
ENDBRANCH   9  11
ENDBRANCH   8   9
ENDBRANCH   7   8
ENDBRANCH   6   7
ENDBRANCH   3   6
BRANCH   3  13
HETATM   13  C11 UNL     1      -4.633   0.283  22.088  1.00  0.00     0.040 C 
HETATM   14  C12 UNL     1      -3.921  -0.842  22.943  1.00  0.00     0.012 C 
HETATM   15  C13 UNL     1      -3.820  -0.305  24.318  1.00  0.00     0.039 C 
HETATM   16  C14 UNL     1      -4.186   1.118  24.159  1.00  0.00     0.067 C 
HETATM   17  C15 UNL     1      -3.628   2.028  25.147  1.00  0.00     0.031 C 
HETATM   18  C33 UNL     1      -3.940   1.447  22.668  1.00  0.00     0.039 C 
HETATM   19  C16 UNL     1      -2.173   2.042  25.391  1.00  0.00     0.063 C 
HETATM   20  C28 UNL     1      -4.182   3.431  24.843  1.00  0.00     0.008 C 
HETATM   21  C17 UNL     1      -1.821   3.021  26.456  1.00  0.00     0.023 C 
HETATM   22  N1  UNL     1      -1.050   2.615  27.400  1.00  0.00    -0.265 N 
HETATM   23  C20 UNL     1      -2.355   4.362  26.326  1.00  0.00     0.037 C 
ATOM     24  H1  UNL     1      -0.791   3.263  28.144  1.00  0.00     0.194 HD
HETATM   25  C21 UNL     1      -1.626   5.122  25.193  1.00  0.00     0.025 C 
HETATM   26  C22 UNL     1      -2.403   5.284  27.456  1.00  0.00     0.152 C 
HETATM   27  C27 UNL     1      -3.830   4.255  25.977  1.00  0.00     0.106 C 
HETATM   28  O6  UNL     1      -3.559   6.111  27.173  1.00  0.00    -0.314 OA
HETATM   29  C26 UNL     1      -4.156   5.668  26.004  1.00  0.00     0.265 C 
HETATM   30  O7  UNL     1      -4.804   6.357  25.208  1.00  0.00    -0.265 OA
HETATM   31  C29 UNL     1      -3.742   3.746  23.488  1.00  0.00     0.018 C 
HETATM   32  C30 UNL     1      -4.509   2.808  22.505  1.00  0.00     0.063 C 
BRANCH  16  33
HETATM   33  O2  UNL     1      -5.599   1.195  24.266  1.00  0.00    -0.389 OA
ATOM     34  H2  UNL     1      -5.960   0.611  23.609  1.00  0.00     0.210 HD
ENDBRANCH  16  33
BRANCH  22  35
HETATM   35  O3  UNL     1      -0.566   1.337  27.432  1.00  0.00    -0.200 OA
BRANCH  35  36
HETATM   36  C18 UNL     1       0.558   0.952  26.719  1.00  0.00     0.277 C 
HETATM   37  C19 UNL     1       0.861  -0.446  26.346  1.00  0.00     0.128 C 
HETATM   38  O4  UNL     1       1.368   1.842  26.367  1.00  0.00    -0.264 OA
ENDBRANCH  35  36
ENDBRANCH  22  35
BRANCH  26  39
HETATM   39  C23 UNL     1      -2.380   4.833  28.855  1.00  0.00     0.036 C 
HETATM   40  C24 UNL     1      -1.048   5.385  29.454  1.00  0.00     0.015 C 
BRANCH  39  41
HETATM   41  C25 UNL     1      -3.453   5.291  29.787  1.00  0.00     0.170 C 
BRANCH  41  42
HETATM   42  O5  UNL     1      -3.225   6.670  30.123  1.00  0.00    -0.400 OA
ATOM     43  H5  UNL     1      -2.312   6.880  29.966  1.00  0.00     0.209 HD
ENDBRANCH  41  42
ENDBRANCH  39  41
ENDBRANCH  26  39
BRANCH  32  44
HETATM   44  C31 UNL     1      -4.289   3.507  21.223  1.00  0.00     0.127 C 
HETATM   45  C32 UNL     1      -3.162   4.428  20.955  1.00  0.00     0.091 C 
HETATM   46  O8  UNL     1      -5.069   3.335  20.315  1.00  0.00    -0.298 OA
ENDBRANCH  32  44
ENDBRANCH   3  13
TORSDOF 14
ENDMDL
MODEL 4
REMARK VINA RESULT: -7.713501139      3.419      6.752
REMARK  14 active torsions:
REMARK  status: ('A' for Active; 'I' for Inactive)
REMARK    1  A    between atoms: C3_3  and  O1_4 
REMARK    2  A    between atoms: C3_3  and  C4_6 
REMARK    3  A    between atoms: C3_3  and  C11_13 
REMARK    4  A    between atoms: C4_6  and  C5_7 
REMARK    5  A    between atoms: C5_7  and  C6_8 
REMARK    6  A    between atoms: C6_8  and  C7_9 
REMARK    7  A    between atoms: C7_9  and  C9_11 
REMARK    8  A    between atoms: C14_16  and  O2_17 
REMARK    9  A    between atoms: N1_22  and  O3_24 
REMARK   10  A    between atoms: O3_24  and  C18_25 
REMARK   11  A    between atoms: C22_30  and  C23_31 
REMARK   12  A    between atoms: C23_31  and  C25_33 
REMARK   13  A    between atoms: C25_33  and  O5_34 
REMARK   14  A    between atoms: C30_42  and  C31_43 
ROOT
HETATM    1  C1  UNL     1      -4.128   1.312  26.567  1.00  0.00     0.015 C 
HETATM    2  C2  UNL     1      -3.353   0.392  26.506  1.00  0.00    -0.079 C 
HETATM    3  C3  UNL     1      -2.379  -0.794  26.400  1.00  0.00     0.124 C 
ENDROOT
BRANCH   3   4
HETATM    4  O1  UNL     1      -3.030  -1.799  27.096  1.00  0.00    -0.377 OA
ATOM      5  H1  UNL     1      -3.014  -2.529  26.488  1.00  0.00     0.211 HD
ENDBRANCH   3   4
BRANCH   3   6
HETATM    6  C4  UNL     1      -2.366  -1.096  24.955  1.00  0.00     0.052 C 
BRANCH   6   7
HETATM    7  C5  UNL     1      -3.664  -1.378  24.307  1.00  0.00     0.004 C 
BRANCH   7   8
HETATM    8  C6  UNL     1      -3.499  -1.508  22.808  1.00  0.00     0.004 C 
BRANCH   8   9
HETATM    9  C7  UNL     1      -4.350  -0.528  22.051  1.00  0.00    -0.019 C 
HETATM   10  C8  UNL     1      -3.895  -0.416  20.613  1.00  0.00     0.010 C 
BRANCH   9  11
HETATM   11  C9  UNL     1      -4.352   0.844  22.652  1.00  0.00    -0.000 C 
HETATM   12  C10 UNL     1      -4.402   1.938  21.617  1.00  0.00     0.005 C 
ENDBRANCH   9  11
ENDBRANCH   8   9
ENDBRANCH   7   8
ENDBRANCH   6   7
ENDBRANCH   3   6
BRANCH   3  13
HETATM   13  C11 UNL     1      -1.122  -0.306  27.014  1.00  0.00     0.040 C 
HETATM   14  C12 UNL     1      -0.634   0.714  25.906  1.00  0.00     0.012 C 
HETATM   15  C13 UNL     1       0.451   1.503  26.530  1.00  0.00     0.039 C 
HETATM   16  C14 UNL     1       0.363   1.139  27.959  1.00  0.00     0.067 C 
HETATM   17  C15 UNL     1       0.852   2.138  28.897  1.00  0.00     0.031 C 
HETATM   18  C33 UNL     1      -1.076   0.611  28.167  1.00  0.00     0.039 C 
HETATM   19  C16 UNL     1       0.337   3.519  28.830  1.00  0.00     0.063 C 
HETATM   20  C28 UNL     1       0.733   1.538  30.309  1.00  0.00     0.008 C 
HETATM   21  C17 UNL     1       0.988   4.380  29.855  1.00  0.00     0.023 C 
HETATM   22  N1  UNL     1       1.455   5.511  29.466  1.00  0.00    -0.265 N 
HETATM   23  C20 UNL     1       1.015   3.884  31.217  1.00  0.00     0.037 C 
ATOM     24  H1  UNL     1       1.908   6.123  30.146  1.00  0.00     0.194 HD
HETATM   25  C21 UNL     1      -0.395   3.963  31.846  1.00  0.00     0.025 C 
HETATM   26  C22 UNL     1       1.927   4.431  32.216  1.00  0.00     0.152 C 
HETATM   27  C27 UNL     1       1.459   2.431  31.184  1.00  0.00     0.106 C 
HETATM   28  O6  UNL     1       2.181   3.308  33.098  1.00  0.00    -0.314 OA
HETATM   29  C26 UNL     1       1.512   2.195  32.615  1.00  0.00     0.265 C 
HETATM   30  O7  UNL     1       1.083   1.251  33.288  1.00  0.00    -0.265 OA
HETATM   31  C29 UNL     1      -0.683   1.246  30.499  1.00  0.00     0.018 C 
HETATM   32  C30 UNL     1      -1.061   0.068  29.548  1.00  0.00     0.063 C 
BRANCH  16  33
HETATM   33  O2  UNL     1       1.152  -0.028  28.138  1.00  0.00    -0.389 OA
ATOM     34  H2  UNL     1       1.168  -0.482  27.304  1.00  0.00     0.210 HD
ENDBRANCH  16  33
BRANCH  22  35
HETATM   35  O3  UNL     1       1.362   5.917  28.164  1.00  0.00    -0.200 OA
BRANCH  35  36
HETATM   36  C18 UNL     1       2.444   5.889  27.299  1.00  0.00     0.277 C 
HETATM   37  C19 UNL     1       2.369   5.427  25.897  1.00  0.00     0.128 C 
HETATM   38  O4  UNL     1       3.555   6.280  27.731  1.00  0.00    -0.264 OA
ENDBRANCH  35  36
ENDBRANCH  22  35
BRANCH  26  39
HETATM   39  C23 UNL     1       3.165   5.142  31.863  1.00  0.00     0.036 C 
HETATM   40  C24 UNL     1       3.614   5.876  33.166  1.00  0.00     0.015 C 
BRANCH  39  41
HETATM   41  C25 UNL     1       4.356   4.358  31.421  1.00  0.00     0.170 C 
BRANCH  41  42
HETATM   42  O5  UNL     1       4.443   4.406  29.987  1.00  0.00    -0.400 OA
ATOM     43  H5  UNL     1       3.795   3.818  29.617  1.00  0.00     0.209 HD
ENDBRANCH  41  42
ENDBRANCH  39  41
ENDBRANCH  26  39
BRANCH  32  44
HETATM   44  C31 UNL     1      -2.341  -0.368  30.139  1.00  0.00     0.127 C 
HETATM   45  C32 UNL     1      -3.300   0.532  30.818  1.00  0.00     0.091 C 
HETATM   46  O8  UNL     1      -2.650  -1.536  30.082  1.00  0.00    -0.298 OA
ENDBRANCH  32  44
ENDBRANCH   3  13
TORSDOF 14
ENDMDL
MODEL 5
REMARK VINA RESULT: -7.702376797      4.726      8.454
REMARK  14 active torsions:
REMARK  status: ('A' for Active; 'I' for Inactive)
REMARK    1  A    between atoms: C3_3  and  O1_4 
REMARK    2  A    between atoms: C3_3  and  C4_6 
REMARK    3  A    between atoms: C3_3  and  C11_13 
REMARK    4  A    between atoms: C4_6  and  C5_7 
REMARK    5  A    between atoms: C5_7  and  C6_8 
REMARK    6  A    between atoms: C6_8  and  C7_9 
REMARK    7  A    between atoms: C7_9  and  C9_11 
REMARK    8  A    between atoms: C14_16  and  O2_17 
REMARK    9  A    between atoms: N1_22  and  O3_24 
REMARK   10  A    between atoms: O3_24  and  C18_25 
REMARK   11  A    between atoms: C22_30  and  C23_31 
REMARK   12  A    between atoms: C23_31  and  C25_33 
REMARK   13  A    between atoms: C25_33  and  O5_34 
REMARK   14  A    between atoms: C30_42  and  C31_43 
ROOT
HETATM    1  C1  UNL     1      -4.169   0.819  29.954  1.00  0.00     0.015 C 
HETATM    2  C2  UNL     1      -3.580   0.002  29.294  1.00  0.00    -0.079 C 
HETATM    3  C3  UNL     1      -2.855  -1.063  28.453  1.00  0.00     0.124 C 
ENDROOT
BRANCH   3   4
HETATM    4  O1  UNL     1      -2.230  -1.847  29.409  1.00  0.00    -0.377 OA
ATOM      5  H1  UNL     1      -1.795  -2.514  28.891  1.00  0.00     0.211 HD
ENDBRANCH   3   4
BRANCH   3   6
HETATM    6  C4  UNL     1      -3.962  -1.809  27.821  1.00  0.00     0.052 C 
BRANCH   6   7
HETATM    7  C5  UNL     1      -4.300  -3.132  28.386  1.00  0.00     0.004 C 
BRANCH   7   8
HETATM    8  C6  UNL     1      -5.798  -3.353  28.377  1.00  0.00     0.004 C 
BRANCH   8   9
HETATM    9  C7  UNL     1      -6.344  -3.632  29.749  1.00  0.00    -0.019 C 
HETATM   10  C8  UNL     1      -7.799  -4.042  29.677  1.00  0.00     0.010 C 
BRANCH   9  11
HETATM   11  C9  UNL     1      -6.229  -2.466  30.682  1.00  0.00    -0.000 C 
HETATM   12  C10 UNL     1      -5.334  -2.744  31.861  1.00  0.00     0.005 C 
ENDBRANCH   9  11
ENDBRANCH   8   9
ENDBRANCH   7   8
ENDBRANCH   6   7
ENDBRANCH   3   6
BRANCH   3  13
HETATM   13  C11 UNL     1      -1.949  -0.294  27.569  1.00  0.00     0.040 C 
HETATM   14  C12 UNL     1      -2.930   0.049  26.374  1.00  0.00     0.012 C 
HETATM   15  C13 UNL     1      -2.241   1.078  25.565  1.00  0.00     0.039 C 
HETATM   16  C14 UNL     1      -1.100   1.477  26.415  1.00  0.00     0.067 C 
HETATM   17  C15 UNL     1      -0.598   2.826  26.207  1.00  0.00     0.031 C 
HETATM   18  C33 UNL     1      -1.495   1.079  27.857  1.00  0.00     0.039 C 
HETATM   19  C16 UNL     1      -1.527   3.970  26.268  1.00  0.00     0.063 C 
HETATM   20  C28 UNL     1       0.618   3.012  27.133  1.00  0.00     0.008 C 
HETATM   21  C17 UNL     1      -0.814   5.250  25.998  1.00  0.00     0.023 C 
HETATM   22  N1  UNL     1      -1.337   6.048  25.138  1.00  0.00    -0.265 N 
HETATM   23  C20 UNL     1       0.398   5.504  26.751  1.00  0.00     0.037 C 
ATOM     24  H1  UNL     1      -0.871   6.932  24.933  1.00  0.00     0.194 HD
HETATM   25  C21 UNL     1       0.056   5.843  28.221  1.00  0.00     0.025 C 
HETATM   26  C22 UNL     1       1.370   6.506  26.328  1.00  0.00     0.152 C 
HETATM   27  C27 UNL     1       1.248   4.245  26.722  1.00  0.00     0.106 C 
HETATM   28  O6  UNL     1       2.632   5.985  26.815  1.00  0.00    -0.314 OA
HETATM   29  C26 UNL     1       2.411   4.759  27.421  1.00  0.00     0.265 C 
HETATM   30  O7  UNL     1       3.077   4.267  28.339  1.00  0.00    -0.265 OA
HETATM   31  C29 UNL     1       0.118   2.809  28.489  1.00  0.00     0.018 C 
HETATM   32  C30 UNL     1      -0.256   1.302  28.641  1.00  0.00     0.063 C 
BRANCH  16  33
HETATM   33  O2  UNL     1      -0.036   0.583  26.126  1.00  0.00    -0.389 OA
ATOM     34  H2  UNL     1       0.759   1.101  26.086  1.00  0.00     0.210 HD
ENDBRANCH  16  33
BRANCH  22  35
HETATM   35  O3  UNL     1      -2.502   5.743  24.492  1.00  0.00    -0.200 OA
BRANCH  35  36
HETATM   36  C18 UNL     1      -3.570   6.624  24.433  1.00  0.00     0.277 C 
HETATM   37  C19 UNL     1      -4.144   7.307  25.612  1.00  0.00     0.128 C 
HETATM   38  O4  UNL     1      -4.081   6.858  23.312  1.00  0.00    -0.264 OA
ENDBRANCH  35  36
ENDBRANCH  22  35
BRANCH  26  39
HETATM   39  C23 UNL     1       1.472   6.984  24.942  1.00  0.00     0.036 C 
HETATM   40  C24 UNL     1       1.088   8.497  24.988  1.00  0.00     0.015 C 
BRANCH  39  41
HETATM   41  C25 UNL     1       2.793   6.932  24.247  1.00  0.00     0.170 C 
BRANCH  41  42
HETATM   42  O5  UNL     1       3.173   5.558  24.063  1.00  0.00    -0.400 OA
ATOM     43  H5  UNL     1       3.971   5.524  23.550  1.00  0.00     0.209 HD
ENDBRANCH  41  42
ENDBRANCH  39  41
ENDBRANCH  26  39
BRANCH  32  44
HETATM   44  C31 UNL     1      -0.329   1.180  30.111  1.00  0.00     0.127 C 
HETATM   45  C32 UNL     1      -0.613   2.304  31.031  1.00  0.00     0.091 C 
HETATM   46  O8  UNL     1      -0.145   0.100  30.624  1.00  0.00    -0.298 OA
ENDBRANCH  32  44
ENDBRANCH   3  13
TORSDOF 14
ENDMDL
