MODEL 1
REMARK VINA RESULT: -6.384275259      0.000      0.000
REMARK  14 active torsions:
REMARK  status: ('A' for Active; 'I' for Inactive)
REMARK    1  A    between atoms: C2_2  and  C4_4 
REMARK    2  A    between atoms: C5_5  and  C6_6 
REMARK    3  A    between atoms: C7_7  and  O1_8 
REMARK    4  A    between atoms: C7_7  and  C8_10 
REMARK    5  A    between atoms: C8_10  and  O2_11 
REMARK    6  A    between atoms: C8_10  and  C11_15 
REMARK    7  A    between atoms: O2_11  and  C9_12 
REMARK    8  A    between atoms: C11_15  and  C13_17 
REMARK    9  A    between atoms: C21_26  and  C23_28 
REMARK   10  A    between atoms: C29_35  and  O6_36 
REMARK   11  A    between atoms: C30_38  and  O7_39 
REMARK   12  A    between atoms: O7_39  and  C31_40 
REMARK   13  A    between atoms: C31_40  and  C32_42 
REMARK   14  A    between atoms: C32_42  and  N1_44 
ROOT
HETATM    1  C13 UNL     1       0.211   2.660  28.178  1.00  0.00     0.095 C 
HETATM    2  C14 UNL     1       0.863   2.767  26.822  1.00  0.00     0.138 C 
HETATM    3  O4  UNL     1       1.287   1.736  26.253  1.00  0.00    -0.297 OA
HETATM    4  C15 UNL     1       1.029   4.028  26.123  1.00  0.00     0.059 C 
HETATM    5  C16 UNL     1       2.103   4.869  26.703  1.00  0.00     0.018 C 
HETATM    6  C17 UNL     1      -0.346   4.655  25.980  1.00  0.00     0.034 C 
HETATM    7  C18 UNL     1      -0.279   6.126  25.919  1.00  0.00     0.009 C 
HETATM    8  C19 UNL     1      -1.676   6.705  26.072  1.00  0.00     0.007 C 
HETATM    9  C20 UNL     1      -2.656   5.672  25.620  1.00  0.00     0.012 C 
HETATM   10  C21 UNL     1      -3.803   6.203  24.908  1.00  0.00     0.014 C 
HETATM   11  C22 UNL     1      -4.401   7.476  25.434  1.00  0.00     0.023 C 
HETATM   12  C24 UNL     1      -4.882   5.197  24.610  1.00  0.00     0.016 C 
HETATM   13  C25 UNL     1      -5.044   4.136  25.670  1.00  0.00     0.002 C 
HETATM   14  C26 UNL     1      -3.741   3.552  26.138  1.00  0.00     0.012 C 
HETATM   15  C27 UNL     1      -2.774   4.585  26.655  1.00  0.00    -0.005 C 
HETATM   16  C28 UNL     1      -3.403   5.074  27.929  1.00  0.00     0.019 C 
HETATM   17  C29 UNL     1      -1.412   3.968  26.789  1.00  0.00     0.097 C 
HETATM   18  C30 UNL     1      -1.003   3.566  28.160  1.00  0.00     0.179 C 
ENDROOT
BRANCH   1  19
HETATM   19  C11 UNL     1       0.137   1.270  28.522  1.00  0.00     0.031 C 
HETATM   20  C12 UNL     1       0.877   1.197  29.933  1.00  0.00     0.014 C 
BRANCH  19  21
HETATM   21  C8  UNL     1      -1.020   0.416  28.684  1.00  0.00     0.192 C 
BRANCH  21  22
HETATM   22  C7  UNL     1      -1.287  -0.288  27.357  1.00  0.00     0.073 C 
HETATM   23  C6  UNL     1      -2.277  -0.536  26.633  1.00  0.00     0.035 C 
BRANCH  23  24
HETATM   24  C5  UNL     1      -3.714  -0.212  26.824  1.00  0.00     0.003 C 
HETATM   25  C4  UNL     1      -4.531  -0.279  25.761  1.00  0.00     0.006 C 
BRANCH  25  26
HETATM   26  C2  UNL     1      -4.018  -0.670  24.422  1.00  0.00    -0.071 C 
HETATM   27  C1  UNL     1      -4.235   0.717  23.769  1.00  0.00     0.047 C 
HETATM   28  C3  UNL     1      -3.523  -1.429  23.447  1.00  0.00     0.018 C 
ENDBRANCH  25  26
ENDBRANCH  23  24
BRANCH  22  29
HETATM   29  O1  UNL     1      -0.038  -0.811  26.763  1.00  0.00    -0.362 OA
ATOM     30  H1  UNL     1       0.188  -0.350  25.964  1.00  0.00     0.217 HD
ENDBRANCH  22  29
ENDBRANCH  21  22
BRANCH  21  31
HETATM   31  O2  UNL     1      -1.005  -0.673  29.621  1.00  0.00    -0.309 OA
BRANCH  31  32
HETATM   32  C9  UNL     1      -2.188  -1.089  30.243  1.00  0.00     0.255 C 
HETATM   33  C10 UNL     1      -3.212  -0.128  30.659  1.00  0.00     0.126 C 
HETATM   34  O3  UNL     1      -2.295  -2.351  30.418  1.00  0.00    -0.266 OA
ENDBRANCH  31  32
ENDBRANCH  21  31
ENDBRANCH  19  21
ENDBRANCH   1  19
BRANCH  18  35
HETATM   35  O7  UNL     1      -0.557   4.736  28.852  1.00  0.00    -0.310 OA
BRANCH  35  36
HETATM   36  C31 UNL     1      -0.226   4.735  30.172  1.00  0.00     0.289 C 
HETATM   37  O8  UNL     1      -0.980   4.104  30.962  1.00  0.00    -0.263 OA
BRANCH  36  38
HETATM   38  C32 UNL     1       0.968   5.456  30.658  1.00  0.00     0.278 C 
HETATM   39  C33 UNL     1       1.266   6.692  29.878  1.00  0.00     0.050 C 
BRANCH  38  40
HETATM   40  N1  UNL     1       2.094   4.534  30.625  1.00  0.00    -0.066 N 
ATOM     41  H13 UNL     1       1.854   3.606  30.974  1.00  0.00     0.275 HD
ATOM     42  H12 UNL     1       2.352   4.259  29.677  1.00  0.00     0.275 HD
ATOM     43  H11 UNL     1       2.865   4.961  31.137  1.00  0.00     0.275 HD
ENDBRANCH  38  40
ENDBRANCH  36  38
ENDBRANCH  35  36
ENDBRANCH  18  35
BRANCH  17  44
HETATM   44  O6  UNL     1      -1.501   2.667  26.130  1.00  0.00    -0.386 OA
ATOM     45  H6  UNL     1      -0.842   2.166  26.594  1.00  0.00     0.210 HD
ENDBRANCH  17  44
BRANCH  10  46
HETATM   46  C23 UNL     1      -3.259   6.624  23.538  1.00  0.00     0.240 C 
HETATM   47  O5  UNL     1      -3.994   6.297  22.555  1.00  0.00    -0.306 OA
ENDBRANCH  10  46
TORSDOF 14
ENDMDL
MODEL 2
REMARK VINA RESULT: -6.245346484      1.825      2.191
REMARK  14 active torsions:
REMARK  status: ('A' for Active; 'I' for Inactive)
REMARK    1  A    between atoms: C2_2  and  C4_4 
REMARK    2  A    between atoms: C5_5  and  C6_6 
REMARK    3  A    between atoms: C7_7  and  O1_8 
REMARK    4  A    between atoms: C7_7  and  C8_10 
REMARK    5  A    between atoms: C8_10  and  O2_11 
REMARK    6  A    between atoms: C8_10  and  C11_15 
REMARK    7  A    between atoms: O2_11  and  C9_12 
REMARK    8  A    between atoms: C11_15  and  C13_17 
REMARK    9  A    between atoms: C21_26  and  C23_28 
REMARK   10  A    between atoms: C29_35  and  O6_36 
REMARK   11  A    between atoms: C30_38  and  O7_39 
REMARK   12  A    between atoms: O7_39  and  C31_40 
REMARK   13  A    between atoms: C31_40  and  C32_42 
REMARK   14  A    between atoms: C32_42  and  N1_44 
ROOT
HETATM    1  C13 UNL     1      -0.601   1.943  27.987  1.00  0.00     0.095 C 
HETATM    2  C14 UNL     1       0.426   2.301  26.943  1.00  0.00     0.138 C 
HETATM    3  O4  UNL     1       0.850   1.421  26.161  1.00  0.00    -0.297 OA
HETATM    4  C15 UNL     1       0.961   3.641  26.788  1.00  0.00     0.059 C 
HETATM    5  C16 UNL     1       1.925   4.001  27.855  1.00  0.00     0.018 C 
HETATM    6  C17 UNL     1      -0.212   4.579  26.565  1.00  0.00     0.034 C 
HETATM    7  C18 UNL     1       0.073   5.944  27.041  1.00  0.00     0.009 C 
HETATM    8  C19 UNL     1      -1.214   6.753  27.065  1.00  0.00     0.007 C 
HETATM    9  C20 UNL     1      -2.152   6.155  26.068  1.00  0.00     0.012 C 
HETATM   10  C21 UNL     1      -2.958   7.122  25.346  1.00  0.00     0.014 C 
HETATM   11  C22 UNL     1      -3.501   8.279  26.134  1.00  0.00     0.023 C 
HETATM   12  C24 UNL     1      -4.031   6.526  24.476  1.00  0.00     0.016 C 
HETATM   13  C25 UNL     1      -4.640   5.262  25.029  1.00  0.00     0.002 C 
HETATM   14  C26 UNL     1      -3.625   4.284  25.547  1.00  0.00     0.012 C 
HETATM   15  C27 UNL     1      -2.717   4.864  26.599  1.00  0.00    -0.005 C 
HETATM   16  C28 UNL     1      -3.615   5.078  27.784  1.00  0.00     0.019 C 
HETATM   17  C29 UNL     1      -1.552   3.942  26.815  1.00  0.00     0.097 C 
HETATM   18  C30 UNL     1      -1.620   3.064  28.013  1.00  0.00     0.179 C 
ENDROOT
BRANCH   1  19
HETATM   19  C11 UNL     1      -0.964   0.569  27.795  1.00  0.00     0.031 C 
HETATM   20  C12 UNL     1      -0.553  -0.120  29.174  1.00  0.00     0.014 C 
BRANCH  19  21
HETATM   21  C8  UNL     1      -2.250  -0.013  27.477  1.00  0.00     0.192 C 
BRANCH  21  22
HETATM   22  C7  UNL     1      -2.180  -0.591  26.066  1.00  0.00     0.073 C 
HETATM   23  C6  UNL     1      -2.955  -0.734  25.094  1.00  0.00     0.035 C 
BRANCH  23  24
HETATM   24  C5  UNL     1      -4.385  -0.365  24.942  1.00  0.00     0.003 C 
HETATM   25  C4  UNL     1      -4.925  -0.394  23.714  1.00  0.00     0.006 C 
BRANCH  25  26
HETATM   26  C2  UNL     1      -4.118  -0.790  22.529  1.00  0.00    -0.071 C 
HETATM   27  C1  UNL     1      -4.323   0.538  21.761  1.00  0.00     0.047 C 
HETATM   28  C3  UNL     1      -3.369  -1.537  21.721  1.00  0.00     0.018 C 
ENDBRANCH  25  26
ENDBRANCH  23  24
BRANCH  22  29
HETATM   29  O1  UNL     1      -0.830  -1.116  25.766  1.00  0.00    -0.362 OA
ATOM     30  H1  UNL     1      -0.190  -0.814  26.399  1.00  0.00     0.217 HD
ENDBRANCH  22  29
ENDBRANCH  21  22
BRANCH  21  31
HETATM   31  O2  UNL     1      -2.768  -1.113  28.242  1.00  0.00    -0.309 OA
BRANCH  31  32
HETATM   32  C9  UNL     1      -4.113  -1.138  28.627  1.00  0.00     0.255 C 
HETATM   33  C10 UNL     1      -5.031  -2.167  28.134  1.00  0.00     0.126 C 
HETATM   34  O3  UNL     1      -4.468  -0.204  29.425  1.00  0.00    -0.266 OA
ENDBRANCH  31  32
ENDBRANCH  21  31
ENDBRANCH  19  21
ENDBRANCH   1  19
BRANCH  18  35
HETATM   35  O7  UNL     1      -1.237   3.838  29.154  1.00  0.00    -0.310 OA
BRANCH  35  36
HETATM   36  C31 UNL     1      -1.516   3.462  30.431  1.00  0.00     0.289 C 
HETATM   37  O8  UNL     1      -0.557   3.415  31.248  1.00  0.00    -0.263 OA
BRANCH  36  38
HETATM   38  C32 UNL     1      -2.893   3.115  30.838  1.00  0.00     0.278 C 
HETATM   39  C33 UNL     1      -3.397   3.942  31.972  1.00  0.00     0.050 C 
BRANCH  38  40
HETATM   40  N1  UNL     1      -2.918   1.699  31.175  1.00  0.00    -0.066 N 
ATOM     41  H13 UNL     1      -2.083   1.398  31.676  1.00  0.00     0.275 HD
ATOM     42  H12 UNL     1      -3.599   1.477  31.901  1.00  0.00     0.275 HD
ATOM     43  H11 UNL     1      -3.072   1.173  30.315  1.00  0.00     0.275 HD
ENDBRANCH  38  40
ENDBRANCH  36  38
ENDBRANCH  35  36
ENDBRANCH  18  35
BRANCH  17  44
HETATM   44  O6  UNL     1      -1.624   2.956  25.740  1.00  0.00    -0.386 OA
ATOM     45  H6  UNL     1      -2.209   3.380  25.123  1.00  0.00     0.210 HD
ENDBRANCH  17  44
BRANCH  10  46
HETATM   46  C23 UNL     1      -1.985   7.800  24.374  1.00  0.00     0.240 C 
HETATM   47  O5  UNL     1      -2.016   9.070  24.397  1.00  0.00    -0.306 OA
ENDBRANCH  10  46
TORSDOF 14
ENDMDL
MODEL 3
REMARK VINA RESULT: -6.182732892      1.207      1.287
REMARK  14 active torsions:
REMARK  status: ('A' for Active; 'I' for Inactive)
REMARK    1  A    between atoms: C2_2  and  C4_4 
REMARK    2  A    between atoms: C5_5  and  C6_6 
REMARK    3  A    between atoms: C7_7  and  O1_8 
REMARK    4  A    between atoms: C7_7  and  C8_10 
REMARK    5  A    between atoms: C8_10  and  O2_11 
REMARK    6  A    between atoms: C8_10  and  C11_15 
REMARK    7  A    between atoms: O2_11  and  C9_12 
REMARK    8  A    between atoms: C11_15  and  C13_17 
REMARK    9  A    between atoms: C21_26  and  C23_28 
REMARK   10  A    between atoms: C29_35  and  O6_36 
REMARK   11  A    between atoms: C30_38  and  O7_39 
REMARK   12  A    between atoms: O7_39  and  C31_40 
REMARK   13  A    between atoms: C31_40  and  C32_42 
REMARK   14  A    between atoms: C32_42  and  N1_44 
ROOT
HETATM    1  C13 UNL     1       0.235   3.253  28.209  1.00  0.00     0.095 C 
HETATM    2  C14 UNL     1       1.110   3.628  27.040  1.00  0.00     0.138 C 
HETATM    3  O4  UNL     1       2.006   2.842  26.658  1.00  0.00    -0.297 OA
HETATM    4  C15 UNL     1       0.968   4.876  26.314  1.00  0.00     0.059 C 
HETATM    5  C16 UNL     1       1.484   6.042  27.070  1.00  0.00     0.018 C 
HETATM    6  C17 UNL     1      -0.463   4.950  25.810  1.00  0.00     0.034 C 
HETATM    7  C18 UNL     1      -0.926   6.342  25.666  1.00  0.00     0.009 C 
HETATM    8  C19 UNL     1      -2.430   6.357  25.447  1.00  0.00     0.007 C 
HETATM    9  C20 UNL     1      -2.822   5.045  24.850  1.00  0.00     0.012 C 
HETATM   10  C21 UNL     1      -3.874   5.128  23.854  1.00  0.00     0.014 C 
HETATM   11  C22 UNL     1      -5.005   6.075  24.137  1.00  0.00     0.023 C 
HETATM   12  C24 UNL     1      -4.402   3.801  23.382  1.00  0.00     0.016 C 
HETATM   13  C25 UNL     1      -4.417   2.731  24.444  1.00  0.00     0.002 C 
HETATM   14  C26 UNL     1      -3.147   2.662  25.243  1.00  0.00     0.012 C 
HETATM   15  C27 UNL     1      -2.782   3.967  25.900  1.00  0.00    -0.005 C 
HETATM   16  C28 UNL     1      -3.836   4.157  26.955  1.00  0.00     0.019 C 
HETATM   17  C29 UNL     1      -1.365   3.897  26.392  1.00  0.00     0.097 C 
HETATM   18  C30 UNL     1      -1.184   3.643  27.845  1.00  0.00     0.179 C 
ENDROOT
BRANCH   1  19
HETATM   19  C11 UNL     1       0.593   1.927  28.620  1.00  0.00     0.031 C 
HETATM   20  C12 UNL     1       1.323   2.157  30.020  1.00  0.00     0.014 C 
BRANCH  19  21
HETATM   21  C8  UNL     1      -0.244   0.768  28.844  1.00  0.00     0.192 C 
BRANCH  21  22
HETATM   22  C7  UNL     1      -0.625   0.182  27.488  1.00  0.00     0.073 C 
HETATM   23  C6  UNL     1      -1.657  -0.266  26.939  1.00  0.00     0.035 C 
BRANCH  23  24
HETATM   24  C5  UNL     1      -3.037  -0.418  27.464  1.00  0.00     0.003 C 
HETATM   25  C4  UNL     1      -4.011  -0.765  26.609  1.00  0.00     0.006 C 
BRANCH  25  26
HETATM   26  C2  UNL     1      -3.723  -0.998  25.169  1.00  0.00    -0.071 C 
HETATM   27  C1  UNL     1      -5.160  -0.698  24.680  1.00  0.00     0.047 C 
HETATM   28  C3  UNL     1      -3.047  -1.307  24.065  1.00  0.00     0.018 C 
ENDBRANCH  25  26
ENDBRANCH  23  24
BRANCH  22  29
HETATM   29  O1  UNL     1       0.538   0.137  26.575  1.00  0.00    -0.362 OA
ATOM     30  H1  UNL     1       1.305  -0.220  27.005  1.00  0.00     0.217 HD
ENDBRANCH  22  29
ENDBRANCH  21  22
BRANCH  21  31
HETATM   31  O2  UNL     1       0.258  -0.376  29.552  1.00  0.00    -0.309 OA
BRANCH  31  32
HETATM   32  C9  UNL     1      -0.556  -1.059  30.463  1.00  0.00     0.255 C 
HETATM   33  C10 UNL     1      -1.788  -0.463  30.985  1.00  0.00     0.126 C 
HETATM   34  O3  UNL     1      -0.141  -2.222  30.797  1.00  0.00    -0.266 OA
ENDBRANCH  31  32
ENDBRANCH  21  31
ENDBRANCH  19  21
ENDBRANCH   1  19
BRANCH  18  35
HETATM   35  O7  UNL     1      -1.379   4.878  28.541  1.00  0.00    -0.310 OA
BRANCH  35  36
HETATM   36  C31 UNL     1      -1.342   4.978  29.897  1.00  0.00     0.289 C 
HETATM   37  O8  UNL     1      -1.939   4.090  30.564  1.00  0.00    -0.263 OA
BRANCH  36  38
HETATM   38  C32 UNL     1      -0.635   6.093  30.558  1.00  0.00     0.278 C 
HETATM   39  C33 UNL     1      -0.723   7.376  29.803  1.00  0.00     0.050 C 
BRANCH  38  40
HETATM   40  N1  UNL     1       0.753   5.695  30.749  1.00  0.00    -0.066 N 
ATOM     41  H13 UNL     1       0.844   4.805  31.238  1.00  0.00     0.275 HD
ATOM     42  H12 UNL     1       1.208   5.419  29.878  1.00  0.00     0.275 HD
ATOM     43  H11 UNL     1       1.237   6.457  31.223  1.00  0.00     0.275 HD
ENDBRANCH  38  40
ENDBRANCH  36  38
ENDBRANCH  35  36
ENDBRANCH  18  35
BRANCH  17  44
HETATM   44  O6  UNL     1      -0.809   2.673  25.821  1.00  0.00    -0.386 OA
ATOM     45  H6  UNL     1       0.125   2.843  25.864  1.00  0.00     0.210 HD
ENDBRANCH  17  44
BRANCH  10  46
HETATM   46  C23 UNL     1      -3.206   5.754  22.625  1.00  0.00     0.240 C 
HETATM   47  O5  UNL     1      -3.578   5.261  21.514  1.00  0.00    -0.306 OA
ENDBRANCH  10  46
TORSDOF 14
ENDMDL
MODEL 4
REMARK VINA RESULT: -6.117455825      2.371      6.680
REMARK  14 active torsions:
REMARK  status: ('A' for Active; 'I' for Inactive)
REMARK    1  A    between atoms: C2_2  and  C4_4 
REMARK    2  A    between atoms: C5_5  and  C6_6 
REMARK    3  A    between atoms: C7_7  and  O1_8 
REMARK    4  A    between atoms: C7_7  and  C8_10 
REMARK    5  A    between atoms: C8_10  and  O2_11 
REMARK    6  A    between atoms: C8_10  and  C11_15 
REMARK    7  A    between atoms: O2_11  and  C9_12 
REMARK    8  A    between atoms: C11_15  and  C13_17 
REMARK    9  A    between atoms: C21_26  and  C23_28 
REMARK   10  A    between atoms: C29_35  and  O6_36 
REMARK   11  A    between atoms: C30_38  and  O7_39 
REMARK   12  A    between atoms: O7_39  and  C31_40 
REMARK   13  A    between atoms: C31_40  and  C32_42 
REMARK   14  A    between atoms: C32_42  and  N1_44 
ROOT
HETATM    1  C13 UNL     1      -1.506   5.288  28.866  1.00  0.00     0.095 C 
HETATM    2  C14 UNL     1      -2.496   4.779  29.883  1.00  0.00     0.138 C 
HETATM    3  O4  UNL     1      -3.389   5.542  30.316  1.00  0.00    -0.297 OA
HETATM    4  C15 UNL     1      -2.472   3.423  30.400  1.00  0.00     0.059 C 
HETATM    5  C16 UNL     1      -1.369   3.196  31.364  1.00  0.00     0.018 C 
HETATM    6  C17 UNL     1      -2.566   2.481  29.213  1.00  0.00     0.034 C 
HETATM    7  C18 UNL     1      -1.913   1.188  29.482  1.00  0.00     0.009 C 
HETATM    8  C19 UNL     1      -1.778   0.407  28.184  1.00  0.00     0.007 C 
HETATM    9  C20 UNL     1      -2.844   0.880  27.250  1.00  0.00     0.012 C 
HETATM   10  C21 UNL     1      -3.428  -0.164  26.428  1.00  0.00     0.014 C 
HETATM   11  C22 UNL     1      -2.491  -1.198  25.873  1.00  0.00     0.023 C 
HETATM   12  C24 UNL     1      -4.367   0.326  25.359  1.00  0.00     0.016 C 
HETATM   13  C25 UNL     1      -3.986   1.661  24.770  1.00  0.00     0.002 C 
HETATM   14  C26 UNL     1      -3.606   2.685  25.801  1.00  0.00     0.012 C 
HETATM   15  C27 UNL     1      -2.487   2.237  26.705  1.00  0.00    -0.005 C 
HETATM   16  C28 UNL     1      -1.282   2.196  25.809  1.00  0.00     0.019 C 
HETATM   17  C29 UNL     1      -2.399   3.164  27.883  1.00  0.00     0.097 C 
HETATM   18  C30 UNL     1      -1.329   4.194  27.832  1.00  0.00     0.179 C 
ENDROOT
BRANCH   1  19
HETATM   19  C11 UNL     1      -1.879   6.629  28.521  1.00  0.00     0.031 C 
HETATM   20  C12 UNL     1      -0.847   7.524  29.345  1.00  0.00     0.014 C 
BRANCH  19  21
HETATM   21  C8  UNL     1      -1.945   7.267  27.224  1.00  0.00     0.192 C 
BRANCH  21  22
HETATM   22  C7  UNL     1      -3.391   7.215  26.737  1.00  0.00     0.073 C 
HETATM   23  C6  UNL     1      -4.024   6.685  25.797  1.00  0.00     0.035 C 
BRANCH  23  24
HETATM   24  C5  UNL     1      -3.550   5.825  24.682  1.00  0.00     0.003 C 
HETATM   25  C4  UNL     1      -3.628   6.303  23.431  1.00  0.00     0.006 C 
BRANCH  25  26
HETATM   26  C2  UNL     1      -4.172   7.659  23.158  1.00  0.00    -0.071 C 
HETATM   27  C1  UNL     1      -5.131   7.210  22.029  1.00  0.00     0.047 C 
HETATM   28  C3  UNL     1      -4.345   8.976  23.246  1.00  0.00     0.018 C 
ENDBRANCH  25  26
ENDBRANCH  23  24
BRANCH  22  29
HETATM   29  O1  UNL     1      -4.284   7.999  27.618  1.00  0.00    -0.362 OA
ATOM     30  H1  UNL     1      -4.970   7.457  27.989  1.00  0.00     0.217 HD
ENDBRANCH  22  29
ENDBRANCH  21  22
BRANCH  21  31
HETATM   31  O2  UNL     1      -1.610   8.655  27.069  1.00  0.00    -0.309 OA
BRANCH  31  32
HETATM   32  C9  UNL     1      -1.378   9.191  25.798  1.00  0.00     0.255 C 
HETATM   33  C10 UNL     1      -0.509   8.518  24.831  1.00  0.00     0.126 C 
HETATM   34  O3  UNL     1      -1.974  10.298  25.557  1.00  0.00    -0.266 OA
ENDBRANCH  31  32
ENDBRANCH  21  31
ENDBRANCH  19  21
ENDBRANCH   1  19
BRANCH  18  35
HETATM   35  O7  UNL     1      -0.096   3.574  28.209  1.00  0.00    -0.310 OA
BRANCH  35  36
HETATM   36  C31 UNL     1       1.090   4.241  28.239  1.00  0.00     0.289 C 
HETATM   37  O8  UNL     1       1.450   4.741  29.339  1.00  0.00    -0.263 OA
BRANCH  36  38
HETATM   38  C32 UNL     1       1.916   4.378  27.022  1.00  0.00     0.278 C 
HETATM   39  C33 UNL     1       1.335   5.316  26.019  1.00  0.00     0.050 C 
BRANCH  38  40
HETATM   40  N1  UNL     1       2.098   3.051  26.451  1.00  0.00    -0.066 N 
ATOM     41  H13 UNL     1       2.588   2.415  27.080  1.00  0.00     0.275 HD
ATOM     42  H12 UNL     1       1.225   2.527  26.382  1.00  0.00     0.275 HD
ATOM     43  H11 UNL     1       2.568   3.157  25.552  1.00  0.00     0.275 HD
ENDBRANCH  38  40
ENDBRANCH  36  38
ENDBRANCH  35  36
ENDBRANCH  18  35
BRANCH  17  44
HETATM   44  O6  UNL     1      -3.596   3.999  27.820  1.00  0.00    -0.386 OA
ATOM     45  H6  UNL     1      -3.442   4.505  27.031  1.00  0.00     0.210 HD
ENDBRANCH  17  44
BRANCH  10  46
HETATM   46  C23 UNL     1      -4.303  -0.978  27.388  1.00  0.00     0.240 C 
HETATM   47  O5  UNL     1      -5.349  -1.470  26.859  1.00  0.00    -0.306 OA
ENDBRANCH  10  46
TORSDOF 14
ENDMDL
MODEL 5
REMARK VINA RESULT: -6.098475379      1.762      2.240
REMARK  14 active torsions:
REMARK  status: ('A' for Active; 'I' for Inactive)
REMARK    1  A    between atoms: C2_2  and  C4_4 
REMARK    2  A    between atoms: C5_5  and  C6_6 
REMARK    3  A    between atoms: C7_7  and  O1_8 
REMARK    4  A    between atoms: C7_7  and  C8_10 
REMARK    5  A    between atoms: C8_10  and  O2_11 
REMARK    6  A    between atoms: C8_10  and  C11_15 
REMARK    7  A    between atoms: O2_11  and  C9_12 
REMARK    8  A    between atoms: C11_15  and  C13_17 
REMARK    9  A    between atoms: C21_26  and  C23_28 
REMARK   10  A    between atoms: C29_35  and  O6_36 
REMARK   11  A    between atoms: C30_38  and  O7_39 
REMARK   12  A    between atoms: O7_39  and  C31_40 
REMARK   13  A    between atoms: C31_40  and  C32_42 
REMARK   14  A    between atoms: C32_42  and  N1_44 
ROOT
HETATM    1  C13 UNL     1       0.489   4.189  28.329  1.00  0.00     0.095 C 
HETATM    2  C14 UNL     1       1.307   4.362  27.073  1.00  0.00     0.138 C 
HETATM    3  O4  UNL     1       2.237   3.564  26.823  1.00  0.00    -0.297 OA
HETATM    4  C15 UNL     1       1.068   5.425  26.115  1.00  0.00     0.059 C 
HETATM    5  C16 UNL     1       1.534   6.747  26.597  1.00  0.00     0.018 C 
HETATM    6  C17 UNL     1      -0.378   5.318  25.665  1.00  0.00     0.034 C 
HETATM    7  C18 UNL     1      -0.929   6.623  25.259  1.00  0.00     0.009 C 
HETATM    8  C19 UNL     1      -2.437   6.512  25.103  1.00  0.00     0.007 C 
HETATM    9  C20 UNL     1      -2.765   5.086  24.802  1.00  0.00     0.012 C 
HETATM   10  C21 UNL     1      -3.849   4.907  23.854  1.00  0.00     0.014 C 
HETATM   11  C22 UNL     1      -5.026   5.830  23.984  1.00  0.00     0.023 C 
HETATM   12  C24 UNL     1      -4.309   3.485  23.683  1.00  0.00     0.016 C 
HETATM   13  C25 UNL     1      -4.228   2.657  24.941  1.00  0.00     0.002 C 
HETATM   14  C26 UNL     1      -2.934   2.821  25.685  1.00  0.00     0.012 C 
HETATM   15  C27 UNL     1      -2.630   4.251  26.047  1.00  0.00    -0.005 C 
HETATM   16  C28 UNL     1      -3.663   4.597  27.083  1.00  0.00     0.019 C 
HETATM   17  C29 UNL     1      -1.198   4.360  26.485  1.00  0.00     0.097 C 
HETATM   18  C30 UNL     1      -0.960   4.420  27.951  1.00  0.00     0.179 C 
ENDROOT
BRANCH   1  19
HETATM   19  C11 UNL     1       0.939   2.997  28.986  1.00  0.00     0.031 C 
HETATM   20  C12 UNL     1       1.778   3.551  30.225  1.00  0.00     0.014 C 
BRANCH  19  21
HETATM   21  C8  UNL     1       0.175   1.899  29.538  1.00  0.00     0.192 C 
BRANCH  21  22
HETATM   22  C7  UNL     1      -0.050   0.869  28.435  1.00  0.00     0.073 C 
HETATM   23  C6  UNL     1      -0.958   0.081  28.087  1.00  0.00     0.035 C 
BRANCH  23  24
HETATM   24  C5  UNL     1      -2.291  -0.176  28.689  1.00  0.00     0.003 C 
HETATM   25  C4  UNL     1      -3.288  -0.577  27.885  1.00  0.00     0.006 C 
BRANCH  25  26
HETATM   26  C2  UNL     1      -3.071  -0.764  26.426  1.00  0.00    -0.071 C 
HETATM   27  C1  UNL     1      -4.568  -0.943  26.075  1.00  0.00     0.047 C 
HETATM   28  C3  UNL     1      -2.433  -0.890  25.265  1.00  0.00     0.018 C 
ENDBRANCH  25  26
ENDBRANCH  23  24
BRANCH  22  29
HETATM   29  O1  UNL     1       1.117   0.784  27.531  1.00  0.00    -0.362 OA
ATOM     30  H1  UNL     1       0.890   1.036  26.644  1.00  0.00     0.217 HD
ENDBRANCH  22  29
ENDBRANCH  21  22
BRANCH  21  31
HETATM   31  O2  UNL     1       0.702   1.102  30.611  1.00  0.00    -0.309 OA
BRANCH  31  32
HETATM   32  C9  UNL     1      -0.096   0.780  31.714  1.00  0.00     0.255 C 
HETATM   33  C10 UNL     1      -1.410   1.395  31.913  1.00  0.00     0.126 C 
HETATM   34  O3  UNL     1       0.408  -0.077  32.518  1.00  0.00    -0.266 OA
ENDBRANCH  31  32
ENDBRANCH  21  31
ENDBRANCH  19  21
ENDBRANCH   1  19
BRANCH  18  35
HETATM   35  O7  UNL     1      -1.210   5.759  28.388  1.00  0.00    -0.310 OA
BRANCH  35  36
HETATM   36  C31 UNL     1      -1.513   6.073  29.677  1.00  0.00     0.289 C 
HETATM   37  O8  UNL     1      -1.233   7.237  30.074  1.00  0.00    -0.263 OA
BRANCH  36  38
HETATM   38  C32 UNL     1      -2.139   5.082  30.575  1.00  0.00     0.278 C 
HETATM   39  C33 UNL     1      -3.565   5.386  30.885  1.00  0.00     0.050 C 
BRANCH  38  40
HETATM   40  N1  UNL     1      -1.343   5.014  31.792  1.00  0.00    -0.066 N 
ATOM     41  H13 UNL     1      -1.077   5.934  32.141  1.00  0.00     0.275 HD
ATOM     42  H12 UNL     1      -1.886   4.714  32.602  1.00  0.00     0.275 HD
ATOM     43  H11 UNL     1      -0.539   4.413  31.610  1.00  0.00     0.275 HD
ENDBRANCH  38  40
ENDBRANCH  36  38
ENDBRANCH  35  36
ENDBRANCH  18  35
BRANCH  17  44
HETATM   44  O6  UNL     1      -0.585   3.076  26.153  1.00  0.00    -0.386 OA
ATOM     45  H6  UNL     1       0.150   3.343  25.614  1.00  0.00     0.210 HD
ENDBRANCH  17  44
BRANCH  10  46
HETATM   46  C23 UNL     1      -3.256   5.302  22.497  1.00  0.00     0.240 C 
HETATM   47  O5  UNL     1      -3.605   4.554  21.530  1.00  0.00    -0.306 OA
ENDBRANCH  10  46
TORSDOF 14
ENDMDL
