MODEL 1
REMARK VINA RESULT: -6.922324814      0.000      0.000
REMARK  8 active torsions:
REMARK  status: ('A' for Active; 'I' for Inactive)
REMARK    1  A    between atoms: C2_2  and  O2_4 
REMARK    2  A    between atoms: O2_4  and  C3_5 
REMARK    3  A    between atoms: C3_5  and  N1_6 
REMARK       I    between atoms: N3_13  and  C8_15 
REMARK    4  A    between atoms: C8_15  and  C9_17 
REMARK    5  A    between atoms: C9_17  and  N4_18 
REMARK    6  A    between atoms: C9_17  and  C14_26 
REMARK       I    between atoms: N4_18  and  C10_20 
REMARK    7  A    between atoms: C10_20  and  O5_22 
REMARK    8  A    between atoms: O5_22  and  C11_23 
ROOT
HETATM    1  N1  UNL     1      -0.675   2.658  24.270  1.00  0.00    -0.228 N 
HETATM    2  N2  UNL     1       0.325   3.555  24.285  1.00  0.00    -0.296 N 
ATOM      3  H2  UNL     1       0.893   3.780  25.102  1.00  0.00     0.187 HD
HETATM    4  C4  UNL     1       0.472   4.109  23.081  1.00  0.00     0.026 A 
HETATM    5  C5  UNL     1       1.495   5.164  22.698  1.00  0.00     0.070 C 
HETATM    6  C6  UNL     1      -0.460   3.545  22.286  1.00  0.00     0.076 A 
HETATM    7  C7  UNL     1      -1.219   2.595  23.040  1.00  0.00     0.133 A 
HETATM    8  N3  UNL     1      -2.098   1.891  22.556  1.00  0.00    -0.310 N 
ATOM      9  H3  UNL     1      -2.124   2.249  21.601  1.00  0.00     0.170 HD
HETATM   10  C8  UNL     1      -3.030   0.962  22.496  1.00  0.00     0.247 C 
HETATM   11  O3  UNL     1      -3.708   0.592  23.524  1.00  0.00    -0.271 OA
ENDROOT
BRANCH  10  12
HETATM   12  C9  UNL     1      -3.455   0.192  21.266  1.00  0.00     0.197 C 
BRANCH  12  13
HETATM   13  N4  UNL     1      -3.298   0.963  20.068  1.00  0.00    -0.322 N 
HETATM   14  C10 UNL     1      -4.422   1.308  19.238  1.00  0.00     0.361 C 
HETATM   15  O4  UNL     1      -5.572   0.925  19.572  1.00  0.00    -0.238 OA
ATOM     16  H4  UNL     1      -2.365   1.274  19.795  1.00  0.00     0.165 HD
BRANCH  14  17
HETATM   17  O5  UNL     1      -4.282   2.047  18.087  1.00  0.00    -0.299 OA
BRANCH  17  18
HETATM   18  C11 UNL     1      -4.442   1.458  16.817  1.00  0.00     0.125 C 
HETATM   19  C12 UNL     1      -3.137   1.349  16.067  1.00  0.00     0.040 C 
HETATM   20  C13 UNL     1      -5.404   2.233  15.938  1.00  0.00     0.040 C 
ENDBRANCH  17  18
ENDBRANCH  14  17
ENDBRANCH  12  13
BRANCH  12  21
HETATM   21  C14 UNL     1      -2.742  -1.122  21.129  1.00  0.00     0.110 C 
HETATM   22  C15 UNL     1      -2.673  -1.611  19.726  1.00  0.00     0.029 C 
HETATM   23 CL1  UNL     1      -3.398  -2.335  22.251  1.00  0.00    -0.123 Cl
ENDBRANCH  12  21
ENDBRANCH  10  12
BRANCH   1  24
HETATM   24  C3  UNL     1      -1.088   1.964  25.478  1.00  0.00     0.263 C 
BRANCH  24  25
HETATM   25  O2  UNL     1      -1.053   0.587  25.424  1.00  0.00    -0.272 OA
BRANCH  25  26
HETATM   26  C2  UNL     1      -0.125  -0.335  25.117  1.00  0.00     0.260 C 
HETATM   27  C1  UNL     1      -0.015  -0.944  23.727  1.00  0.00     0.126 C 
HETATM   28  O1  UNL     1       0.675  -0.707  25.992  1.00  0.00    -0.265 OA
ENDBRANCH  25  26
ENDBRANCH  24  25
ENDBRANCH   1  24
TORSDOF 8
ENDMDL
MODEL 2
REMARK VINA RESULT: -6.864536960      1.144      1.215
REMARK  8 active torsions:
REMARK  status: ('A' for Active; 'I' for Inactive)
REMARK    1  A    between atoms: C2_2  and  O2_4 
REMARK    2  A    between atoms: O2_4  and  C3_5 
REMARK    3  A    between atoms: C3_5  and  N1_6 
REMARK       I    between atoms: N3_13  and  C8_15 
REMARK    4  A    between atoms: C8_15  and  C9_17 
REMARK    5  A    between atoms: C9_17  and  N4_18 
REMARK    6  A    between atoms: C9_17  and  C14_26 
REMARK       I    between atoms: N4_18  and  C10_20 
REMARK    7  A    between atoms: C10_20  and  O5_22 
REMARK    8  A    between atoms: O5_22  and  C11_23 
ROOT
HETATM    1  N1  UNL     1       0.143   2.519  24.458  1.00  0.00    -0.228 N 
HETATM    2  N2  UNL     1       1.042   3.512  24.358  1.00  0.00    -0.296 N 
ATOM      3  H2  UNL     1       1.760   3.719  25.053  1.00  0.00     0.187 HD
HETATM    4  C4  UNL     1       0.864   4.189  23.224  1.00  0.00     0.026 A 
HETATM    5  C5  UNL     1       1.681   5.378  22.751  1.00  0.00     0.070 C 
HETATM    6  C6  UNL     1      -0.175   3.605  22.590  1.00  0.00     0.076 A 
HETATM    7  C7  UNL     1      -0.660   2.513  23.377  1.00  0.00     0.133 A 
HETATM    8  N3  UNL     1      -1.564   1.767  23.018  1.00  0.00    -0.310 N 
ATOM      9  H3  UNL     1      -1.836   2.207  22.140  1.00  0.00     0.170 HD
HETATM   10  C8  UNL     1      -2.404   0.753  23.056  1.00  0.00     0.247 C 
HETATM   11  O3  UNL     1      -2.797   0.218  24.158  1.00  0.00    -0.271 OA
ENDROOT
BRANCH  10  12
HETATM   12  C9  UNL     1      -3.032   0.060  21.868  1.00  0.00     0.197 C 
BRANCH  12  13
HETATM   13  N4  UNL     1      -2.843   0.797  20.653  1.00  0.00    -0.322 N 
HETATM   14  C10 UNL     1      -3.935   1.075  19.759  1.00  0.00     0.361 C 
HETATM   15  O4  UNL     1      -5.087   0.662  20.050  1.00  0.00    -0.238 OA
ATOM     16  H4  UNL     1      -1.909   1.132  20.416  1.00  0.00     0.165 HD
BRANCH  14  17
HETATM   17  O5  UNL     1      -3.765   1.780  18.592  1.00  0.00    -0.299 OA
BRANCH  17  18
HETATM   18  C11 UNL     1      -4.086   1.214  17.342  1.00  0.00     0.125 C 
HETATM   19  C12 UNL     1      -2.867   0.697  16.618  1.00  0.00     0.040 C 
HETATM   20  C13 UNL     1      -4.772   2.202  16.420  1.00  0.00     0.040 C 
ENDBRANCH  17  18
ENDBRANCH  14  17
ENDBRANCH  12  13
BRANCH  12  21
HETATM   21  C14 UNL     1      -2.546  -1.350  21.695  1.00  0.00     0.110 C 
HETATM   22  C15 UNL     1      -3.443  -2.362  22.313  1.00  0.00     0.029 C 
HETATM   23 CL1  UNL     1      -0.853  -1.520  22.212  1.00  0.00    -0.123 Cl
ENDBRANCH  12  21
ENDBRANCH  10  12
BRANCH   1  24
HETATM   24  C3  UNL     1       0.075   1.674  25.640  1.00  0.00     0.263 C 
BRANCH  24  25
HETATM   25  O2  UNL     1       0.268   0.326  25.429  1.00  0.00    -0.272 OA
BRANCH  25  26
HETATM   26  C2  UNL     1       0.241  -0.776  26.197  1.00  0.00     0.260 C 
HETATM   27  C1  UNL     1      -0.391  -2.077  25.727  1.00  0.00     0.126 C 
HETATM   28  O1  UNL     1       0.748  -0.739  27.332  1.00  0.00    -0.265 OA
ENDBRANCH  25  26
ENDBRANCH  24  25
ENDBRANCH   1  24
TORSDOF 8
ENDMDL
MODEL 3
REMARK VINA RESULT: -6.719493448      1.702      2.057
REMARK  8 active torsions:
REMARK  status: ('A' for Active; 'I' for Inactive)
REMARK    1  A    between atoms: C2_2  and  O2_4 
REMARK    2  A    between atoms: O2_4  and  C3_5 
REMARK    3  A    between atoms: C3_5  and  N1_6 
REMARK       I    between atoms: N3_13  and  C8_15 
REMARK    4  A    between atoms: C8_15  and  C9_17 
REMARK    5  A    between atoms: C9_17  and  N4_18 
REMARK    6  A    between atoms: C9_17  and  C14_26 
REMARK       I    between atoms: N4_18  and  C10_20 
REMARK    7  A    between atoms: C10_20  and  O5_22 
REMARK    8  A    between atoms: O5_22  and  C11_23 
ROOT
HETATM    1  N1  UNL     1       0.243   2.872  23.672  1.00  0.00    -0.228 N 
HETATM    2  N2  UNL     1       1.244   3.749  23.854  1.00  0.00    -0.296 N 
ATOM      3  H2  UNL     1       1.986   3.650  24.548  1.00  0.00     0.187 HD
HETATM    4  C4  UNL     1       1.132   4.768  23.001  1.00  0.00     0.026 A 
HETATM    5  C5  UNL     1       2.070   5.957  22.896  1.00  0.00     0.070 C 
HETATM    6  C6  UNL     1       0.031   4.525  22.260  1.00  0.00     0.076 A 
HETATM    7  C7  UNL     1      -0.564   3.293  22.680  1.00  0.00     0.133 A 
HETATM    8  N3  UNL     1      -1.547   2.796  22.142  1.00  0.00    -0.310 N 
ATOM      9  H3  UNL     1      -1.777   3.520  21.461  1.00  0.00     0.170 HD
HETATM   10  C8  UNL     1      -2.492   1.914  21.892  1.00  0.00     0.247 C 
HETATM   11  O3  UNL     1      -2.933   1.097  22.782  1.00  0.00    -0.271 OA
ENDROOT
BRANCH  10  12
HETATM   12  C9  UNL     1      -3.202   1.704  20.573  1.00  0.00     0.197 C 
BRANCH  12  13
HETATM   13  N4  UNL     1      -2.291   1.692  19.467  1.00  0.00    -0.322 N 
HETATM   14  C10 UNL     1      -2.494   2.522  18.310  1.00  0.00     0.361 C 
HETATM   15  O4  UNL     1      -3.499   3.279  18.266  1.00  0.00    -0.238 OA
ATOM     16  H4  UNL     1      -1.476   1.079  19.501  1.00  0.00     0.165 HD
BRANCH  14  17
HETATM   17  O5  UNL     1      -1.627   2.518  17.244  1.00  0.00    -0.299 OA
BRANCH  17  18
HETATM   18  C11 UNL     1      -2.098   2.589  15.917  1.00  0.00     0.125 C 
HETATM   19  C12 UNL     1      -2.887   1.364  15.524  1.00  0.00     0.040 C 
HETATM   20  C13 UNL     1      -0.973   2.743  14.913  1.00  0.00     0.040 C 
ENDBRANCH  17  18
ENDBRANCH  14  17
ENDBRANCH  12  13
BRANCH  12  21
HETATM   21  C14 UNL     1      -4.044   0.461  20.558  1.00  0.00     0.110 C 
HETATM   22  C15 UNL     1      -3.285  -0.760  20.179  1.00  0.00     0.029 C 
HETATM   23 CL1  UNL     1      -5.517   0.688  19.588  1.00  0.00    -0.123 Cl
ENDBRANCH  12  21
ENDBRANCH  10  12
BRANCH   1  24
HETATM   24  C3  UNL     1       0.092   1.705  24.527  1.00  0.00     0.263 C 
BRANCH  24  25
HETATM   25  O2  UNL     1       0.099   0.484  23.886  1.00  0.00    -0.272 OA
BRANCH  25  26
HETATM   26  C2  UNL     1       0.109  -0.800  24.278  1.00  0.00     0.260 C 
HETATM   27  C1  UNL     1      -0.789  -1.850  23.640  1.00  0.00     0.126 C 
HETATM   28  O1  UNL     1       0.875  -1.152  25.191  1.00  0.00    -0.265 OA
ENDBRANCH  25  26
ENDBRANCH  24  25
ENDBRANCH   1  24
TORSDOF 8
ENDMDL
MODEL 4
REMARK VINA RESULT: -6.633602763      2.719      3.672
REMARK  8 active torsions:
REMARK  status: ('A' for Active; 'I' for Inactive)
REMARK    1  A    between atoms: C2_2  and  O2_4 
REMARK    2  A    between atoms: O2_4  and  C3_5 
REMARK    3  A    between atoms: C3_5  and  N1_6 
REMARK       I    between atoms: N3_13  and  C8_15 
REMARK    4  A    between atoms: C8_15  and  C9_17 
REMARK    5  A    between atoms: C9_17  and  N4_18 
REMARK    6  A    between atoms: C9_17  and  C14_26 
REMARK       I    between atoms: N4_18  and  C10_20 
REMARK    7  A    between atoms: C10_20  and  O5_22 
REMARK    8  A    between atoms: O5_22  and  C11_23 
ROOT
HETATM    1  N1  UNL     1      -3.110   0.005  25.149  1.00  0.00    -0.228 N 
HETATM    2  N2  UNL     1      -2.749   0.256  26.418  1.00  0.00    -0.296 N 
ATOM      3  H2  UNL     1      -2.800  -0.419  27.182  1.00  0.00     0.187 HD
HETATM    4  C4  UNL     1      -2.316   1.511  26.540  1.00  0.00     0.026 A 
HETATM    5  C5  UNL     1      -1.821   2.169  27.816  1.00  0.00     0.070 C 
HETATM    6  C6  UNL     1      -2.404   2.066  25.313  1.00  0.00     0.076 A 
HETATM    7  C7  UNL     1      -2.918   1.101  24.390  1.00  0.00     0.133 A 
HETATM    8  N3  UNL     1      -3.050   1.313  23.190  1.00  0.00    -0.310 N 
ATOM      9  H3  UNL     1      -2.779   2.295  23.139  1.00  0.00     0.170 HD
HETATM   10  C8  UNL     1      -3.323   1.068  21.925  1.00  0.00     0.247 C 
HETATM   11  O3  UNL     1      -4.161   0.165  21.558  1.00  0.00    -0.271 OA
ENDROOT
BRANCH  10  12
HETATM   12  C9  UNL     1      -2.729   1.769  20.724  1.00  0.00     0.197 C 
BRANCH  12  13
HETATM   13  N4  UNL     1      -3.615   1.754  19.598  1.00  0.00    -0.322 N 
HETATM   14  C10 UNL     1      -3.444   0.827  18.512  1.00  0.00     0.361 C 
HETATM   15  O4  UNL     1      -2.491   0.006  18.550  1.00  0.00    -0.238 OA
ATOM     16  H4  UNL     1      -4.389   2.419  19.566  1.00  0.00     0.165 HD
BRANCH  14  17
HETATM   17  O5  UNL     1      -4.289   0.804  17.428  1.00  0.00    -0.299 OA
BRANCH  17  18
HETATM   18  C11 UNL     1      -4.624   1.986  16.738  1.00  0.00     0.125 C 
HETATM   19  C12 UNL     1      -5.877   1.830  15.911  1.00  0.00     0.040 C 
HETATM   20  C13 UNL     1      -3.521   2.442  15.804  1.00  0.00     0.040 C 
ENDBRANCH  17  18
ENDBRANCH  14  17
ENDBRANCH  12  13
BRANCH  12  21
HETATM   21  C14 UNL     1      -2.305   3.178  21.025  1.00  0.00     0.110 C 
HETATM   22  C15 UNL     1      -2.271   4.053  19.823  1.00  0.00     0.029 C 
HETATM   23 CL1  UNL     1      -0.785   3.213  21.949  1.00  0.00    -0.123 Cl
ENDBRANCH  12  21
ENDBRANCH  10  12
BRANCH   1  24
HETATM   24  C3  UNL     1      -3.687  -1.272  24.763  1.00  0.00     0.263 C 
BRANCH  24  25
HETATM   25  O2  UNL     1      -2.821  -2.175  24.184  1.00  0.00    -0.272 OA
BRANCH  25  26
HETATM   26  C2  UNL     1      -2.239  -2.304  22.981  1.00  0.00     0.260 C 
HETATM   27  C1  UNL     1      -0.894  -1.671  22.659  1.00  0.00     0.126 C 
HETATM   28  O1  UNL     1      -2.811  -2.962  22.095  1.00  0.00    -0.265 OA
ENDBRANCH  25  26
ENDBRANCH  24  25
ENDBRANCH   1  24
TORSDOF 8
ENDMDL
MODEL 5
REMARK VINA RESULT: -6.564473350      1.192      1.930
REMARK  8 active torsions:
REMARK  status: ('A' for Active; 'I' for Inactive)
REMARK    1  A    between atoms: C2_2  and  O2_4 
REMARK    2  A    between atoms: O2_4  and  C3_5 
REMARK    3  A    between atoms: C3_5  and  N1_6 
REMARK       I    between atoms: N3_13  and  C8_15 
REMARK    4  A    between atoms: C8_15  and  C9_17 
REMARK    5  A    between atoms: C9_17  and  N4_18 
REMARK    6  A    between atoms: C9_17  and  C14_26 
REMARK       I    between atoms: N4_18  and  C10_20 
REMARK    7  A    between atoms: C10_20  and  O5_22 
REMARK    8  A    between atoms: O5_22  and  C11_23 
ROOT
HETATM    1  N1  UNL     1      -0.409   2.562  24.105  1.00  0.00    -0.228 N 
HETATM    2  N2  UNL     1       0.586   3.463  24.133  1.00  0.00    -0.296 N 
ATOM      3  H2  UNL     1       1.204   3.624  24.929  1.00  0.00     0.187 HD
HETATM    4  C4  UNL     1       0.654   4.119  22.974  1.00  0.00     0.026 A 
HETATM    5  C5  UNL     1       1.646   5.212  22.619  1.00  0.00     0.070 C 
HETATM    6  C6  UNL     1      -0.325   3.616  22.194  1.00  0.00     0.076 A 
HETATM    7  C7  UNL     1      -1.030   2.598  22.910  1.00  0.00     0.133 A 
HETATM    8  N3  UNL     1      -1.936   1.929  22.425  1.00  0.00    -0.310 N 
ATOM      9  H3  UNL     1      -2.024   2.367  21.508  1.00  0.00     0.170 HD
HETATM   10  C8  UNL     1      -2.866   1.000  22.345  1.00  0.00     0.247 C 
HETATM   11  O3  UNL     1      -3.476   0.538  23.378  1.00  0.00    -0.271 OA
ENDROOT
BRANCH  10  12
HETATM   12  C9  UNL     1      -3.365   0.334  21.083  1.00  0.00     0.197 C 
BRANCH  12  13
HETATM   13  N4  UNL     1      -3.285   1.203  19.947  1.00  0.00    -0.322 N 
HETATM   14  C10 UNL     1      -4.444   1.525  19.157  1.00  0.00     0.361 C 
HETATM   15  O4  UNL     1      -5.557   1.031  19.471  1.00  0.00    -0.238 OA
ATOM     16  H4  UNL     1      -2.382   1.604  19.691  1.00  0.00     0.165 HD
BRANCH  14  17
HETATM   17  O5  UNL     1      -4.378   2.357  18.065  1.00  0.00    -0.299 OA
BRANCH  17  18
HETATM   18  C11 UNL     1      -4.297   1.842  16.756  1.00  0.00     0.125 C 
HETATM   19  C12 UNL     1      -3.076   2.337  16.020  1.00  0.00     0.040 C 
HETATM   20  C13 UNL     1      -5.507   2.203  15.918  1.00  0.00     0.040 C 
ENDBRANCH  17  18
ENDBRANCH  14  17
ENDBRANCH  12  13
BRANCH  12  21
HETATM   21  C14 UNL     1      -2.660  -0.959  20.792  1.00  0.00     0.110 C 
HETATM   22  C15 UNL     1      -2.693  -1.337  19.354  1.00  0.00     0.029 C 
HETATM   23 CL1  UNL     1      -3.227  -2.262  21.861  1.00  0.00    -0.123 Cl
ENDBRANCH  12  21
ENDBRANCH  10  12
BRANCH   1  24
HETATM   24  C3  UNL     1      -0.742   1.763  25.273  1.00  0.00     0.263 C 
BRANCH  24  25
HETATM   25  O2  UNL     1      -1.979   2.003  25.834  1.00  0.00    -0.272 OA
BRANCH  25  26
HETATM   26  C2  UNL     1      -2.755   3.085  26.010  1.00  0.00     0.260 C 
HETATM   27  C1  UNL     1      -3.908   3.417  25.074  1.00  0.00     0.126 C 
HETATM   28  O1  UNL     1      -2.531   3.846  26.967  1.00  0.00    -0.265 OA
ENDBRANCH  25  26
ENDBRANCH  24  25
ENDBRANCH   1  24
TORSDOF 8
ENDMDL
