MODEL 1
REMARK VINA RESULT: -6.971346647      0.000      0.000
REMARK  6 active torsions:
REMARK  status: ('A' for Active; 'I' for Inactive)
REMARK       I    between atoms: C2_2  and  N1_4 
REMARK    1  A    between atoms: C3_6  and  C4_7 
REMARK    2  A    between atoms: C3_6  and  C8_11 
REMARK    3  A    between atoms: C4_7  and  C5_8 
REMARK    4  A    between atoms: C9_12  and  C10_13 
REMARK    5  A    between atoms: N3_21  and  C14_22 
REMARK    6  A    between atoms: C14_22  and  C15_23 
ROOT
HETATM    1  C8  UNL     1      -2.497   1.074  22.136  1.00  0.00     0.079 A 
HETATM    2  C9  UNL     1      -2.908  -0.198  21.920  1.00  0.00     0.054 A 
HETATM    3  N2  UNL     1      -3.605  -0.471  20.737  1.00  0.00    -0.309 N 
ATOM      4  H2  UNL     1      -3.913  -1.430  20.572  1.00  0.00     0.170 HD
HETATM    5  C13 UNL     1      -3.890   0.443  19.817  1.00  0.00     0.330 A 
HETATM    6  O2  UNL     1      -4.530   0.104  18.764  1.00  0.00    -0.246 OA
HETATM    7  N3  UNL     1      -3.507   1.699  20.001  1.00  0.00    -0.257 N 
HETATM    8  C16 UNL     1      -2.833   1.999  21.128  1.00  0.00     0.266 A 
HETATM    9  O4  UNL     1      -2.541   3.238  21.186  1.00  0.00    -0.267 OA
ENDROOT
BRANCH   1  10
HETATM   10  C3  UNL     1      -1.787   1.523  23.292  1.00  0.00     0.030 C 
HETATM   11  N1  UNL     1      -0.572   1.859  23.283  1.00  0.00    -0.330 N 
HETATM   12  C2  UNL     1       0.336   2.381  24.172  1.00  0.00     0.217 C 
ATOM     13  H1  UNL     1      -0.148   1.698  22.369  1.00  0.00     0.168 HD
HETATM   14  C1  UNL     1       0.923   1.466  25.229  1.00  0.00     0.117 C 
HETATM   15  O1  UNL     1       0.784   3.561  24.247  1.00  0.00    -0.274 OA
BRANCH  10  16
HETATM   16  C4  UNL     1      -2.381   1.782  24.652  1.00  0.00     0.062 C 
BRANCH  16  17
HETATM   17  C5  UNL     1      -2.675   3.185  25.003  1.00  0.00    -0.017 C 
HETATM   18  C6  UNL     1      -2.661   3.385  26.529  1.00  0.00     0.010 C 
HETATM   19  C7  UNL     1      -4.188   3.437  24.681  1.00  0.00     0.010 C 
ENDBRANCH  16  17
ENDBRANCH  10  16
ENDBRANCH   1  10
BRANCH   2  20
HETATM   20  C10 UNL     1      -2.801  -1.316  22.834  1.00  0.00     0.073 C 
HETATM   21  C11 UNL     1      -3.666  -1.395  24.038  1.00  0.00     0.039 C 
HETATM   22  C12 UNL     1      -3.200  -2.630  22.070  1.00  0.00     0.039 C 
HETATM   23 CL1  UNL     1      -1.063  -1.760  23.183  1.00  0.00    -0.113 Cl
ENDBRANCH   2  20
BRANCH   7  24
HETATM   24  C14 UNL     1      -3.813   2.721  19.000  1.00  0.00     0.236 C 
BRANCH  24  25
HETATM   25  C15 UNL     1      -2.883   2.621  17.860  1.00  0.00     0.249 C 
HETATM   26  N4  UNL     1      -3.334   2.900  16.557  1.00  0.00    -0.061 NA
HETATM   27  O3  UNL     1      -1.699   2.290  18.057  1.00  0.00    -0.275 OA
ENDBRANCH  24  25
ENDBRANCH   7  24
TORSDOF 6
ENDMDL
MODEL 2
REMARK VINA RESULT: -6.665690955      2.722      4.426
REMARK  6 active torsions:
REMARK  status: ('A' for Active; 'I' for Inactive)
REMARK       I    between atoms: C2_2  and  N1_4 
REMARK    1  A    between atoms: C3_6  and  C4_7 
REMARK    2  A    between atoms: C3_6  and  C8_11 
REMARK    3  A    between atoms: C4_7  and  C5_8 
REMARK    4  A    between atoms: C9_12  and  C10_13 
REMARK    5  A    between atoms: N3_21  and  C14_22 
REMARK    6  A    between atoms: C14_22  and  C15_23 
ROOT
HETATM    1  C8  UNL     1      -2.355   1.213  23.114  1.00  0.00     0.079 A 
HETATM    2  C9  UNL     1      -1.760   2.385  22.787  1.00  0.00     0.054 A 
HETATM    3  N2  UNL     1      -2.104   2.978  21.566  1.00  0.00    -0.309 N 
ATOM      4  H2  UNL     1      -1.659   3.862  21.320  1.00  0.00     0.170 HD
HETATM    5  C13 UNL     1      -2.976   2.458  20.709  1.00  0.00     0.330 A 
HETATM    6  O2  UNL     1      -3.232   3.070  19.616  1.00  0.00    -0.246 OA
HETATM    7  N3  UNL     1      -3.572   1.309  20.997  1.00  0.00    -0.257 N 
HETATM    8  C16 UNL     1      -3.266   0.710  22.164  1.00  0.00     0.266 A 
HETATM    9  O4  UNL     1      -3.893  -0.390  22.307  1.00  0.00    -0.267 OA
ENDROOT
BRANCH   1  10
HETATM   10  C3  UNL     1      -2.110   0.473  24.311  1.00  0.00     0.030 C 
HETATM   11  N1  UNL     1      -2.902   0.443  25.292  1.00  0.00    -0.330 N 
HETATM   12  C2  UNL     1      -2.983  -0.205  26.501  1.00  0.00     0.217 C 
ATOM     13  H1  UNL     1      -3.696   1.068  25.150  1.00  0.00     0.168 HD
HETATM   14  C1  UNL     1      -2.096   0.268  27.637  1.00  0.00     0.117 C 
HETATM   15  O1  UNL     1      -3.722  -1.176  26.833  1.00  0.00    -0.274 OA
BRANCH  10  16
HETATM   16  C4  UNL     1      -0.958  -0.467  24.552  1.00  0.00     0.062 C 
BRANCH  16  17
HETATM   17  C5  UNL     1      -1.126  -1.865  24.113  1.00  0.00    -0.017 C 
HETATM   18  C6  UNL     1      -0.090  -2.782  24.787  1.00  0.00     0.010 C 
HETATM   19  C7  UNL     1      -0.664  -1.941  22.617  1.00  0.00     0.010 C 
ENDBRANCH  16  17
ENDBRANCH  10  16
ENDBRANCH   1  10
BRANCH   2  20
HETATM   20  C10 UNL     1      -0.711   3.063  23.517  1.00  0.00     0.073 C 
HETATM   21  C11 UNL     1       0.667   2.510  23.551  1.00  0.00     0.039 C 
HETATM   22  C12 UNL     1      -0.471   4.471  22.861  1.00  0.00     0.039 C 
HETATM   23 CL1  UNL     1      -1.274   3.653  25.152  1.00  0.00    -0.113 Cl
ENDBRANCH   2  20
BRANCH   7  24
HETATM   24  C14 UNL     1      -4.533   0.719  20.065  1.00  0.00     0.236 C 
BRANCH  24  25
HETATM   25  C15 UNL     1      -3.830   0.035  18.965  1.00  0.00     0.249 C 
HETATM   26  N4  UNL     1      -2.965  -1.039  19.243  1.00  0.00    -0.061 NA
HETATM   27  O3  UNL     1      -4.006   0.411  17.792  1.00  0.00    -0.275 OA
ENDBRANCH  24  25
ENDBRANCH   7  24
TORSDOF 6
ENDMDL
MODEL 3
REMARK VINA RESULT: -6.663694379      1.418      2.253
REMARK  6 active torsions:
REMARK  status: ('A' for Active; 'I' for Inactive)
REMARK       I    between atoms: C2_2  and  N1_4 
REMARK    1  A    between atoms: C3_6  and  C4_7 
REMARK    2  A    between atoms: C3_6  and  C8_11 
REMARK    3  A    between atoms: C4_7  and  C5_8 
REMARK    4  A    between atoms: C9_12  and  C10_13 
REMARK    5  A    between atoms: N3_21  and  C14_22 
REMARK    6  A    between atoms: C14_22  and  C15_23 
ROOT
HETATM    1  C8  UNL     1      -2.660   1.100  21.933  1.00  0.00     0.079 A 
HETATM    2  C9  UNL     1      -2.704  -0.216  21.618  1.00  0.00     0.054 A 
HETATM    3  N2  UNL     1      -3.121  -0.571  20.330  1.00  0.00    -0.309 N 
ATOM      4  H2  UNL     1      -3.152  -1.562  20.092  1.00  0.00     0.170 HD
HETATM    5  C13 UNL     1      -3.480   0.307  19.400  1.00  0.00     0.330 A 
HETATM    6  O2  UNL     1      -3.847  -0.106  18.247  1.00  0.00    -0.246 OA
HETATM    7  N3  UNL     1      -3.454   1.603  19.677  1.00  0.00    -0.257 N 
HETATM    8  C16 UNL     1      -3.057   1.981  20.908  1.00  0.00     0.266 A 
HETATM    9  O4  UNL     1      -3.095   3.247  21.045  1.00  0.00    -0.267 OA
ENDROOT
BRANCH   1  10
HETATM   10  C3  UNL     1      -2.270   1.630  23.201  1.00  0.00     0.030 C 
HETATM   11  N1  UNL     1      -3.009   1.623  24.222  1.00  0.00    -0.330 N 
HETATM   12  C2  UNL     1      -2.901   1.973  25.546  1.00  0.00     0.217 C 
ATOM     13  H1  UNL     1      -3.938   1.261  24.008  1.00  0.00     0.168 HD
HETATM   14  C1  UNL     1      -2.946   3.444  25.913  1.00  0.00     0.117 C 
HETATM   15  O1  UNL     1      -2.768   1.224  26.557  1.00  0.00    -0.274 OA
BRANCH  10  16
HETATM   16  C4  UNL     1      -0.906   2.162  23.557  1.00  0.00     0.062 C 
BRANCH  16  17
HETATM   17  C5  UNL     1      -0.652   3.592  23.298  1.00  0.00    -0.017 C 
HETATM   18  C6  UNL     1       0.193   3.779  22.026  1.00  0.00     0.010 C 
HETATM   19  C7  UNL     1       0.346   4.094  24.397  1.00  0.00     0.010 C 
ENDBRANCH  16  17
ENDBRANCH  10  16
ENDBRANCH   1  10
BRANCH   2  20
HETATM   20  C10 UNL     1      -2.463  -1.333  22.507  1.00  0.00     0.073 C 
HETATM   21  C11 UNL     1      -3.409  -1.641  23.609  1.00  0.00     0.039 C 
HETATM   22  C12 UNL     1      -2.508  -2.662  21.669  1.00  0.00     0.039 C 
HETATM   23 CL1  UNL     1      -0.715  -1.439  23.029  1.00  0.00    -0.113 Cl
ENDBRANCH   2  20
BRANCH   7  24
HETATM   24  C14 UNL     1      -3.848   2.585  18.667  1.00  0.00     0.236 C 
BRANCH  24  25
HETATM   25  C15 UNL     1      -2.819   2.684  17.616  1.00  0.00     0.249 C 
HETATM   26  N4  UNL     1      -3.196   2.930  16.283  1.00  0.00    -0.061 NA
HETATM   27  O3  UNL     1      -1.618   2.549  17.914  1.00  0.00    -0.275 OA
ENDBRANCH  24  25
ENDBRANCH   7  24
TORSDOF 6
ENDMDL
MODEL 4
REMARK VINA RESULT: -6.609947819      1.395      2.391
REMARK  6 active torsions:
REMARK  status: ('A' for Active; 'I' for Inactive)
REMARK       I    between atoms: C2_2  and  N1_4 
REMARK    1  A    between atoms: C3_6  and  C4_7 
REMARK    2  A    between atoms: C3_6  and  C8_11 
REMARK    3  A    between atoms: C4_7  and  C5_8 
REMARK    4  A    between atoms: C9_12  and  C10_13 
REMARK    5  A    between atoms: N3_21  and  C14_22 
REMARK    6  A    between atoms: C14_22  and  C15_23 
ROOT
HETATM    1  C8  UNL     1      -2.660   1.018  22.437  1.00  0.00     0.079 A 
HETATM    2  C9  UNL     1      -2.889  -0.276  22.112  1.00  0.00     0.054 A 
HETATM    3  N2  UNL     1      -3.359  -0.557  20.824  1.00  0.00    -0.309 N 
ATOM      4  H2  UNL     1      -3.529  -1.532  20.577  1.00  0.00     0.170 HD
HETATM    5  C13 UNL     1      -3.598   0.371  19.904  1.00  0.00     0.330 A 
HETATM    6  O2  UNL     1      -4.026   0.024  18.750  1.00  0.00    -0.246 OA
HETATM    7  N3  UNL     1      -3.390   1.648  20.192  1.00  0.00    -0.257 N 
HETATM    8  C16 UNL     1      -2.937   1.956  21.423  1.00  0.00     0.266 A 
HETATM    9  O4  UNL     1      -2.797   3.213  21.572  1.00  0.00    -0.267 OA
ENDROOT
BRANCH   1  10
HETATM   10  C3  UNL     1      -2.193   1.477  23.707  1.00  0.00     0.030 C 
HETATM   11  N1  UNL     1      -2.951   1.760  24.674  1.00  0.00    -0.330 N 
HETATM   12  C2  UNL     1      -2.809   2.138  25.988  1.00  0.00     0.217 C 
ATOM     13  H1  UNL     1      -3.933   1.690  24.410  1.00  0.00     0.168 HD
HETATM   14  C1  UNL     1      -2.413   3.570  26.290  1.00  0.00     0.117 C 
HETATM   15  O1  UNL     1      -2.972   1.447  27.034  1.00  0.00    -0.274 OA
BRANCH  10  16
HETATM   16  C4  UNL     1      -0.752   1.582  24.136  1.00  0.00     0.062 C 
BRANCH  16  17
HETATM   17  C5  UNL     1      -0.087   0.340  24.573  1.00  0.00    -0.017 C 
HETATM   18  C6  UNL     1       0.230   0.386  26.078  1.00  0.00     0.010 C 
HETATM   19  C7  UNL     1       1.357   0.346  23.963  1.00  0.00     0.010 C 
ENDBRANCH  16  17
ENDBRANCH  10  16
ENDBRANCH   1  10
BRANCH   2  20
HETATM   20  C10 UNL     1      -2.801  -1.424  22.990  1.00  0.00     0.073 C 
HETATM   21  C11 UNL     1      -3.454  -1.410  24.323  1.00  0.00     0.039 C 
HETATM   22  C12 UNL     1      -3.516  -2.641  22.300  1.00  0.00     0.039 C 
HETATM   23 CL1  UNL     1      -1.116  -2.131  23.038  1.00  0.00    -0.113 Cl
ENDBRANCH   2  20
BRANCH   7  24
HETATM   24  C14 UNL     1      -3.650   2.685  19.193  1.00  0.00     0.236 C 
BRANCH  24  25
HETATM   25  C15 UNL     1      -2.569   2.716  18.191  1.00  0.00     0.249 C 
HETATM   26  N4  UNL     1      -2.844   3.119  16.871  1.00  0.00    -0.061 NA
HETATM   27  O3  UNL     1      -1.415   2.384  18.517  1.00  0.00    -0.275 OA
ENDBRANCH  24  25
ENDBRANCH   7  24
TORSDOF 6
ENDMDL
MODEL 5
REMARK VINA RESULT: -6.568375747      2.459      4.545
REMARK  6 active torsions:
REMARK  status: ('A' for Active; 'I' for Inactive)
REMARK       I    between atoms: C2_2  and  N1_4 
REMARK    1  A    between atoms: C3_6  and  C4_7 
REMARK    2  A    between atoms: C3_6  and  C8_11 
REMARK    3  A    between atoms: C4_7  and  C5_8 
REMARK    4  A    between atoms: C9_12  and  C10_13 
REMARK    5  A    between atoms: N3_21  and  C14_22 
REMARK    6  A    between atoms: C14_22  and  C15_23 
ROOT
HETATM    1  C8  UNL     1      -3.190   1.346  21.510  1.00  0.00     0.079 A 
HETATM    2  C9  UNL     1      -2.484   2.420  21.937  1.00  0.00     0.054 A 
HETATM    3  N2  UNL     1      -2.342   3.503  21.062  1.00  0.00    -0.309 N 
ATOM      4  H2  UNL     1      -1.813   4.314  21.384  1.00  0.00     0.170 HD
HETATM    5  C13 UNL     1      -2.854   3.539  19.837  1.00  0.00     0.330 A 
HETATM    6  O2  UNL     1      -2.676   4.571  19.105  1.00  0.00    -0.246 OA
HETATM    7  N3  UNL     1      -3.546   2.500  19.386  1.00  0.00    -0.257 N 
HETATM    8  C16 UNL     1      -3.703   1.440  20.201  1.00  0.00     0.266 A 
HETATM    9  O4  UNL     1      -4.370   0.511  19.640  1.00  0.00    -0.267 OA
ENDROOT
BRANCH   1  10
HETATM   10  C3  UNL     1      -3.420   0.158  22.270  1.00  0.00     0.030 C 
HETATM   11  N1  UNL     1      -4.005   0.141  23.387  1.00  0.00    -0.330 N 
HETATM   12  C2  UNL     1      -4.427  -0.805  24.289  1.00  0.00     0.217 C 
ATOM     13  H1  UNL     1      -4.224   1.085  23.707  1.00  0.00     0.168 HD
HETATM   14  C1  UNL     1      -3.393  -1.470  25.176  1.00  0.00     0.117 C 
HETATM   15  O1  UNL     1      -5.599  -1.225  24.509  1.00  0.00    -0.274 OA
BRANCH  10  16
HETATM   16  C4  UNL     1      -3.121  -1.250  21.825  1.00  0.00     0.062 C 
BRANCH  16  17
HETATM   17  C5  UNL     1      -1.779  -1.511  21.271  1.00  0.00    -0.017 C 
HETATM   18  C6  UNL     1      -1.771  -2.801  20.433  1.00  0.00     0.010 C 
HETATM   19  C7  UNL     1      -0.854  -1.924  22.468  1.00  0.00     0.010 C 
ENDBRANCH  16  17
ENDBRANCH  10  16
ENDBRANCH   1  10
BRANCH   2  20
HETATM   20  C10 UNL     1      -1.756   2.545  23.182  1.00  0.00     0.073 C 
HETATM   21  C11 UNL     1      -0.765   1.516  23.585  1.00  0.00     0.039 C 
HETATM   22  C12 UNL     1      -0.863   3.836  23.114  1.00  0.00     0.039 C 
HETATM   23 CL1  UNL     1      -2.831   3.070  24.563  1.00  0.00    -0.113 Cl
ENDBRANCH   2  20
BRANCH   7  24
HETATM   24  C14 UNL     1      -4.115   2.519  18.039  1.00  0.00     0.236 C 
BRANCH  24  25
HETATM   25  C15 UNL     1      -3.071   2.249  17.034  1.00  0.00     0.249 C 
HETATM   26  N4  UNL     1      -2.551   0.950  16.892  1.00  0.00    -0.061 NA
HETATM   27  O3  UNL     1      -2.654   3.174  16.314  1.00  0.00    -0.275 OA
ENDBRANCH  24  25
ENDBRANCH   7  24
TORSDOF 6
ENDMDL
