MODEL 1
REMARK VINA RESULT: -7.199556384      0.000      0.000
REMARK  6 active torsions:
REMARK  status: ('A' for Active; 'I' for Inactive)
REMARK    1  A    between atoms: C2_2  and  C3_3 
REMARK       I    between atoms: C3_3  and  N1_5 
REMARK    2  A    between atoms: N1_5  and  C4_7 
REMARK    3  A    between atoms: C5_10  and  C6_11 
REMARK    4  A    between atoms: C6_11  and  C7_12 
REMARK    5  A    between atoms: C8_13  and  S1_15 
REMARK    6  A    between atoms: S1_15  and  N3_16 
ROOT
HETATM    1  C4  UNL     1      -2.964   2.040  20.073  1.00  0.00     0.151 A 
HETATM    2  N2  UNL     1      -3.427   0.994  20.736  1.00  0.00    -0.339 N 
ATOM      3  H2  UNL     1      -3.842   0.213  20.227  1.00  0.00     0.168 HD
HETATM    4  C5  UNL     1      -3.356   0.958  22.028  1.00  0.00     0.021 A 
HETATM    5  C9  UNL     1      -2.789   2.035  22.661  1.00  0.00     0.078 A 
HETATM    6  S2  UNL     1      -2.391   3.041  21.333  1.00  0.00    -0.064 SA
ENDROOT
BRANCH   4   7
HETATM    7  C6  UNL     1      -3.876  -0.228  22.824  1.00  0.00     0.086 C 
BRANCH   7   8
HETATM    8  C7  UNL     1      -3.477   0.000  24.236  1.00  0.00     0.012 C 
HETATM    9  C8  UNL     1      -2.636  -0.698  24.944  1.00  0.00     0.122 C 
HETATM   10 BR1  UNL     1      -2.330  -0.135  26.771  1.00  0.00    -0.037 Br
BRANCH   9  11
HETATM   11  S1  UNL     1      -1.766  -2.074  24.383  1.00  0.00     0.263 S 
HETATM   12  O2  UNL     1      -2.745  -3.074  23.765  1.00  0.00    -0.200 OA
HETATM   13  O3  UNL     1      -0.775  -1.799  23.295  1.00  0.00    -0.200 OA
BRANCH  11  14
HETATM   14  N3  UNL     1      -1.048  -2.956  25.710  1.00  0.00    -0.324 N 
ATOM     15  H32 UNL     1      -1.109  -2.657  26.683  1.00  0.00     0.169 HD
ATOM     16  H31 UNL     1      -0.568  -3.794  25.382  1.00  0.00     0.169 HD
ENDBRANCH  11  14
ENDBRANCH   9  11
ENDBRANCH   7   8
ENDBRANCH   4   7
BRANCH   1  17
HETATM   17  N1  UNL     1      -2.934   2.297  18.670  1.00  0.00    -0.306 N 
HETATM   18  C3  UNL     1      -3.993   1.835  17.856  1.00  0.00     0.232 C 
HETATM   19  O1  UNL     1      -4.965   1.198  18.359  1.00  0.00    -0.272 OA
ATOM     20  H1  UNL     1      -2.155   2.810  18.257  1.00  0.00     0.171 HD
BRANCH  18  21
HETATM   21  C2  UNL     1      -4.029   2.065  16.394  1.00  0.00     0.038 A 
HETATM   22  C1  UNL     1      -5.374   2.400  15.774  1.00  0.00     0.025 C 
HETATM   23  C10 UNL     1      -2.818   2.573  15.712  1.00  0.00     0.020 A 
HETATM   24  C11 UNL     1      -3.167   1.142  15.542  1.00  0.00     0.020 A 
ENDBRANCH  18  21
ENDBRANCH   1  17
TORSDOF 6
ENDMDL
MODEL 2
REMARK VINA RESULT: -7.157336524      2.944      3.538
REMARK  6 active torsions:
REMARK  status: ('A' for Active; 'I' for Inactive)
REMARK    1  A    between atoms: C2_2  and  C3_3 
REMARK       I    between atoms: C3_3  and  N1_5 
REMARK    2  A    between atoms: N1_5  and  C4_7 
REMARK    3  A    between atoms: C5_10  and  C6_11 
REMARK    4  A    between atoms: C6_11  and  C7_12 
REMARK    5  A    between atoms: C8_13  and  S1_15 
REMARK    6  A    between atoms: S1_15  and  N3_16 
ROOT
HETATM    1  C4  UNL     1      -3.583  -0.412  19.807  1.00  0.00     0.151 A 
HETATM    2  N2  UNL     1      -3.741   0.118  21.008  1.00  0.00    -0.339 N 
ATOM      3  H2  UNL     1      -4.224   1.011  21.110  1.00  0.00     0.168 HD
HETATM    4  C5  UNL     1      -3.285  -0.492  22.055  1.00  0.00     0.021 A 
HETATM    5  C9  UNL     1      -2.643  -1.690  21.861  1.00  0.00     0.078 A 
HETATM    6  S2  UNL     1      -2.742  -1.857  20.159  1.00  0.00    -0.064 SA
ENDROOT
BRANCH   4   7
HETATM    7  C6  UNL     1      -3.450   0.085  23.452  1.00  0.00     0.086 C 
BRANCH   7   8
HETATM    8  C7  UNL     1      -2.088   0.413  23.940  1.00  0.00     0.012 C 
HETATM    9  C8  UNL     1      -1.474   1.559  23.865  1.00  0.00     0.122 C 
HETATM   10 BR1  UNL     1       0.313   1.660  24.603  1.00  0.00    -0.037 Br
BRANCH   9  11
HETATM   11  S1  UNL     1      -2.128   2.994  23.173  1.00  0.00     0.263 S 
HETATM   12  O2  UNL     1      -1.068   4.098  23.202  1.00  0.00    -0.200 OA
HETATM   13  O3  UNL     1      -2.515   2.884  21.731  1.00  0.00    -0.200 OA
BRANCH  11  14
HETATM   14  N3  UNL     1      -3.427   3.635  24.150  1.00  0.00    -0.324 N 
ATOM     15  H32 UNL     1      -3.830   3.141  24.946  1.00  0.00     0.169 HD
ATOM     16  H31 UNL     1      -3.721   4.554  23.818  1.00  0.00     0.169 HD
ENDBRANCH  11  14
ENDBRANCH   9  11
ENDBRANCH   7   8
ENDBRANCH   4   7
BRANCH   1  17
HETATM   17  N1  UNL     1      -3.995   0.071  18.530  1.00  0.00    -0.306 N 
HETATM   18  C3  UNL     1      -3.353   1.202  17.975  1.00  0.00     0.232 C 
HETATM   19  O1  UNL     1      -2.419   1.787  18.598  1.00  0.00    -0.272 OA
ATOM     20  H1  UNL     1      -4.745  -0.395  18.021  1.00  0.00     0.171 HD
BRANCH  18  21
HETATM   21  C2  UNL     1      -3.728   1.758  16.655  1.00  0.00     0.038 A 
HETATM   22  C1  UNL     1      -5.193   2.087  16.429  1.00  0.00     0.025 C 
HETATM   23  C10 UNL     1      -2.729   2.533  15.885  1.00  0.00     0.020 A 
HETATM   24  C11 UNL     1      -3.035   1.150  15.442  1.00  0.00     0.020 A 
ENDBRANCH  18  21
ENDBRANCH   1  17
TORSDOF 6
ENDMDL
MODEL 3
REMARK VINA RESULT: -7.039799253      2.791      3.306
REMARK  6 active torsions:
REMARK  status: ('A' for Active; 'I' for Inactive)
REMARK    1  A    between atoms: C2_2  and  C3_3 
REMARK       I    between atoms: C3_3  and  N1_5 
REMARK    2  A    between atoms: N1_5  and  C4_7 
REMARK    3  A    between atoms: C5_10  and  C6_11 
REMARK    4  A    between atoms: C6_11  and  C7_12 
REMARK    5  A    between atoms: C8_13  and  S1_15 
REMARK    6  A    between atoms: S1_15  and  N3_16 
ROOT
HETATM    1  C4  UNL     1      -3.105   0.146  19.921  1.00  0.00     0.151 A 
HETATM    2  N2  UNL     1      -3.369   0.565  21.147  1.00  0.00    -0.339 N 
ATOM      3  H2  UNL     1      -3.562   1.553  21.316  1.00  0.00     0.168 HD
HETATM    4  C5  UNL     1      -3.383  -0.273  22.134  1.00  0.00     0.021 A 
HETATM    5  C9  UNL     1      -3.116  -1.589  21.851  1.00  0.00     0.078 A 
HETATM    6  S2  UNL     1      -2.860  -1.528  20.158  1.00  0.00    -0.064 SA
ENDROOT
BRANCH   4   7
HETATM    7  C6  UNL     1      -3.684   0.172  23.556  1.00  0.00     0.086 C 
BRANCH   7   8
HETATM    8  C7  UNL     1      -2.375   0.345  24.233  1.00  0.00     0.012 C 
HETATM    9  C8  UNL     1      -1.687   1.444  24.358  1.00  0.00     0.122 C 
HETATM   10 BR1  UNL     1      -0.002   1.335  25.306  1.00  0.00    -0.037 Br
BRANCH   9  11
HETATM   11  S1  UNL     1      -2.160   2.987  23.758  1.00  0.00     0.263 S 
HETATM   12  O2  UNL     1      -2.135   2.965  22.228  1.00  0.00    -0.200 OA
HETATM   13  O3  UNL     1      -3.556   3.402  24.104  1.00  0.00    -0.200 OA
BRANCH  11  14
HETATM   14  N3  UNL     1      -0.992   4.217  24.178  1.00  0.00    -0.324 N 
ATOM     15  H32 UNL     1      -0.007   4.021  24.357  1.00  0.00     0.169 HD
ATOM     16  H31 UNL     1      -1.424   5.140  24.218  1.00  0.00     0.169 HD
ENDBRANCH  11  14
ENDBRANCH   9  11
ENDBRANCH   7   8
ENDBRANCH   4   7
BRANCH   1  17
HETATM   17  N1  UNL     1      -3.036   0.875  18.697  1.00  0.00    -0.306 N 
HETATM   18  C3  UNL     1      -4.170   0.929  17.855  1.00  0.00     0.232 C 
HETATM   19  O1  UNL     1      -5.243   0.339  18.177  1.00  0.00    -0.272 OA
ATOM     20  H1  UNL     1      -2.175   1.354  18.431  1.00  0.00     0.171 HD
BRANCH  18  21
HETATM   21  C2  UNL     1      -4.170   1.665  16.571  1.00  0.00     0.038 A 
HETATM   22  C1  UNL     1      -5.519   2.060  15.995  1.00  0.00     0.025 C 
HETATM   23  C10 UNL     1      -3.006   2.509  16.220  1.00  0.00     0.020 A 
HETATM   24  C11 UNL     1      -3.160   1.207  15.527  1.00  0.00     0.020 A 
ENDBRANCH  18  21
ENDBRANCH   1  17
TORSDOF 6
ENDMDL
MODEL 4
REMARK VINA RESULT: -7.036484550      2.673      3.006
REMARK  6 active torsions:
REMARK  status: ('A' for Active; 'I' for Inactive)
REMARK    1  A    between atoms: C2_2  and  C3_3 
REMARK       I    between atoms: C3_3  and  N1_5 
REMARK    2  A    between atoms: N1_5  and  C4_7 
REMARK    3  A    between atoms: C5_10  and  C6_11 
REMARK    4  A    between atoms: C6_11  and  C7_12 
REMARK    5  A    between atoms: C8_13  and  S1_15 
REMARK    6  A    between atoms: S1_15  and  N3_16 
ROOT
HETATM    1  C4  UNL     1      -3.571  -0.140  19.788  1.00  0.00     0.151 A 
HETATM    2  N2  UNL     1      -3.610   0.602  20.882  1.00  0.00    -0.339 N 
ATOM      3  H2  UNL     1      -3.938   1.566  20.830  1.00  0.00     0.168 HD
HETATM    4  C5  UNL     1      -3.232   0.108  22.018  1.00  0.00     0.021 A 
HETATM    5  C9  UNL     1      -2.799  -1.194  22.030  1.00  0.00     0.078 A 
HETATM    6  S2  UNL     1      -2.969  -1.625  20.381  1.00  0.00    -0.064 SA
ENDROOT
BRANCH   4   7
HETATM    7  C6  UNL     1      -3.264   0.930  23.297  1.00  0.00     0.086 C 
BRANCH   7   8
HETATM    8  C7  UNL     1      -2.425   2.129  23.052  1.00  0.00     0.012 C 
HETATM    9  C8  UNL     1      -1.214   2.349  23.478  1.00  0.00     0.122 C 
HETATM   10 BR1  UNL     1      -0.389   4.029  22.980  1.00  0.00    -0.037 Br
BRANCH   9  11
HETATM   11  S1  UNL     1      -0.285   1.264  24.438  1.00  0.00     0.263 S 
HETATM   12  O2  UNL     1      -1.011   1.009  25.760  1.00  0.00    -0.200 OA
HETATM   13  O3  UNL     1      -0.091  -0.099  23.848  1.00  0.00    -0.200 OA
BRANCH  11  14
HETATM   14  N3  UNL     1       1.231   1.984  24.924  1.00  0.00    -0.324 N 
ATOM     15  H32 UNL     1       1.422   2.985  24.871  1.00  0.00     0.169 HD
ATOM     16  H31 UNL     1       1.886   1.278  25.261  1.00  0.00     0.169 HD
ENDBRANCH  11  14
ENDBRANCH   9  11
ENDBRANCH   7   8
ENDBRANCH   4   7
BRANCH   1  17
HETATM   17  N1  UNL     1      -3.932   0.185  18.447  1.00  0.00    -0.306 N 
HETATM   18  C3  UNL     1      -3.527   1.423  17.898  1.00  0.00     0.232 C 
HETATM   19  O1  UNL     1      -2.848   2.242  18.583  1.00  0.00    -0.272 OA
ATOM     20  H1  UNL     1      -4.479  -0.471  17.888  1.00  0.00     0.171 HD
BRANCH  18  21
HETATM   21  C2  UNL     1      -3.865   1.825  16.515  1.00  0.00     0.038 A 
HETATM   22  C1  UNL     1      -5.329   2.084  16.203  1.00  0.00     0.025 C 
HETATM   23  C10 UNL     1      -2.858   2.545  15.703  1.00  0.00     0.020 A 
HETATM   24  C11 UNL     1      -3.110   1.115  15.398  1.00  0.00     0.020 A 
ENDBRANCH  18  21
ENDBRANCH   1  17
TORSDOF 6
ENDMDL
MODEL 5
REMARK VINA RESULT: -7.024251570      2.480      2.712
REMARK  6 active torsions:
REMARK  status: ('A' for Active; 'I' for Inactive)
REMARK    1  A    between atoms: C2_2  and  C3_3 
REMARK       I    between atoms: C3_3  and  N1_5 
REMARK    2  A    between atoms: N1_5  and  C4_7 
REMARK    3  A    between atoms: C5_10  and  C6_11 
REMARK    4  A    between atoms: C6_11  and  C7_12 
REMARK    5  A    between atoms: C8_13  and  S1_15 
REMARK    6  A    between atoms: S1_15  and  N3_16 
ROOT
HETATM    1  C4  UNL     1      -2.957  -0.479  20.040  1.00  0.00     0.151 A 
HETATM    2  N2  UNL     1      -2.544   0.229  21.077  1.00  0.00    -0.339 N 
ATOM      3  H2  UNL     1      -2.673   1.241  21.085  1.00  0.00     0.168 HD
HETATM    4  C5  UNL     1      -1.976  -0.357  22.082  1.00  0.00     0.021 A 
HETATM    5  C9  UNL     1      -1.827  -1.720  22.019  1.00  0.00     0.078 A 
HETATM    6  S2  UNL     1      -2.526  -2.069  20.495  1.00  0.00    -0.064 SA
ENDROOT
BRANCH   4   7
HETATM    7  C6  UNL     1      -1.490   0.424  23.293  1.00  0.00     0.086 C 
BRANCH   7   8
HETATM    8  C7  UNL     1      -2.096  -0.221  24.485  1.00  0.00     0.012 C 
HETATM    9  C8  UNL     1      -1.487  -0.614  25.567  1.00  0.00     0.122 C 
HETATM   10 BR1  UNL     1      -2.572  -1.426  26.951  1.00  0.00    -0.037 Br
BRANCH   9  11
HETATM   11  S1  UNL     1       0.200  -0.461  25.872  1.00  0.00     0.263 S 
HETATM   12  O2  UNL     1       0.508  -0.967  27.283  1.00  0.00    -0.200 OA
HETATM   13  O3  UNL     1       1.083  -1.278  24.980  1.00  0.00    -0.200 OA
BRANCH  11  14
HETATM   14  N3  UNL     1       0.689   1.216  25.912  1.00  0.00    -0.324 N 
ATOM     15  H32 UNL     1       1.608   1.528  26.227  1.00  0.00     0.169 HD
ATOM     16  H31 UNL     1      -0.058   1.828  25.585  1.00  0.00     0.169 HD
ENDBRANCH  11  14
ENDBRANCH   9  11
ENDBRANCH   7   8
ENDBRANCH   4   7
BRANCH   1  17
HETATM   17  N1  UNL     1      -3.600  -0.058  18.838  1.00  0.00    -0.306 N 
HETATM   18  C3  UNL     1      -3.111   1.076  18.149  1.00  0.00     0.232 C 
HETATM   19  O1  UNL     1      -2.111   1.717  18.587  1.00  0.00    -0.272 OA
ATOM     20  H1  UNL     1      -4.406  -0.569  18.479  1.00  0.00     0.171 HD
BRANCH  18  21
HETATM   21  C2  UNL     1      -3.727   1.570  16.898  1.00  0.00     0.038 A 
HETATM   22  C1  UNL     1      -5.242   1.671  16.860  1.00  0.00     0.025 C 
HETATM   23  C10 UNL     1      -2.962   2.490  16.028  1.00  0.00     0.020 A 
HETATM   24  C11 UNL     1      -3.107   1.078  15.597  1.00  0.00     0.020 A 
ENDBRANCH  18  21
ENDBRANCH   1  17
TORSDOF 6
ENDMDL
