MODEL 1
REMARK VINA RESULT: -7.384490286      0.000      0.000
REMARK  7 active torsions:
REMARK  status: ('A' for Active; 'I' for Inactive)
REMARK    1  A    between atoms: C2_2  and  C4_4 
REMARK    2  A    between atoms: C4_4  and  C5_5 
REMARK    3  A    between atoms: C5_5  and  C11_16 
REMARK       I    between atoms: N1_6  and  C6_8 
REMARK       I    between atoms: C6_8  and  N2_10 
REMARK    4  A    between atoms: N2_10  and  C7_12 
REMARK       I    between atoms: C11_16  and  N3_18 
REMARK    5  A    between atoms: N3_18  and  N4_20 
REMARK    6  A    between atoms: C12_22  and  C13_23 
REMARK    7  A    between atoms: N5_29  and  O3_30 
ROOT
HETATM    1  C11 UNL     1      -2.567   3.209  19.661  1.00  0.00     0.282 C 
HETATM    2  O2  UNL     1      -2.538   4.363  19.102  1.00  0.00    -0.265 OA
HETATM    3  N3  UNL     1      -1.651   3.006  20.705  1.00  0.00    -0.265 N 
ATOM      4  H3  UNL     1      -1.624   2.109  21.190  1.00  0.00     0.190 HD
ENDROOT
BRANCH   1   5
HETATM    5  C5  UNL     1      -3.536   2.270  19.145  1.00  0.00     0.083 C 
HETATM    6  N1  UNL     1      -3.725   1.074  19.507  1.00  0.00    -0.307 N 
HETATM    7  C6  UNL     1      -3.188   0.228  20.446  1.00  0.00     0.321 C 
ATOM      8  H1  UNL     1      -4.463   0.624  18.965  1.00  0.00     0.170 HD
HETATM    9  O1  UNL     1      -2.185  -0.529  20.224  1.00  0.00    -0.247 OA
HETATM   10  N2  UNL     1      -3.729   0.133  21.769  1.00  0.00    -0.335 N 
ATOM     11  H2  UNL     1      -4.533   0.716  22.003  1.00  0.00     0.165 HD
BRANCH   5  12
HETATM   12  C4  UNL     1      -4.440   2.721  18.017  1.00  0.00     0.067 C 
BRANCH  12  13
HETATM   13  C2  UNL     1      -4.347   1.790  16.857  1.00  0.00    -0.017 C 
HETATM   14  C1  UNL     1      -3.115   2.166  16.019  1.00  0.00     0.010 C 
HETATM   15  C3  UNL     1      -5.547   1.926  15.922  1.00  0.00     0.010 C 
ENDBRANCH  12  13
ENDBRANCH   5  12
BRANCH  10  16
HETATM   16  C7  UNL     1      -3.203  -0.739  22.787  1.00  0.00     0.023 C 
HETATM   17  C8  UNL     1      -4.038  -0.647  24.065  1.00  0.00     0.037 C 
HETATM   18  C9  UNL     1      -1.798  -0.304  23.136  1.00  0.00     0.037 C 
HETATM   19  C10 UNL     1      -3.223  -2.194  22.368  1.00  0.00     0.037 C 
ENDBRANCH  10  16
ENDBRANCH   1   5
BRANCH   3  20
HETATM   20  N4  UNL     1      -0.780   4.024  21.080  1.00  0.00    -0.307 N 
HETATM   21  C12 UNL     1      -0.448   4.241  22.298  1.00  0.00     0.139 C 
ATOM     22  H4  UNL     1      -0.390   4.625  20.354  1.00  0.00     0.186 HD
BRANCH  21  23
HETATM   23  C13 UNL     1       0.467   5.321  22.637  1.00  0.00     0.079 A 
HETATM   24  C14 UNL     1       0.052   6.468  23.277  1.00  0.00     0.035 A 
HETATM   25  C15 UNL     1       0.959   7.467  23.579  1.00  0.00     0.028 A 
HETATM   26  C16 UNL     1       2.289   7.325  23.241  1.00  0.00     0.052 A 
HETATM   27 CL1  UNL     1       3.482   8.572  23.605  1.00  0.00    -0.083 Cl
HETATM   28  C17 UNL     1       2.672   6.168  22.602  1.00  0.00     0.147 A 
HETATM   29  N5  UNL     1       1.758   5.208  22.322  1.00  0.00    -0.233 N 
BRANCH  29  30
HETATM   30  O3  UNL     1       2.239   4.088  21.681  1.00  0.00    -0.283 OA
ATOM     31  H3  UNL     1       3.168   3.890  21.669  1.00  0.00     0.245 HD
ENDBRANCH  29  30
ENDBRANCH  21  23
ENDBRANCH   3  20
TORSDOF 7
ENDMDL
MODEL 2
REMARK VINA RESULT: -7.272731548      3.703      7.332
REMARK  7 active torsions:
REMARK  status: ('A' for Active; 'I' for Inactive)
REMARK    1  A    between atoms: C2_2  and  C4_4 
REMARK    2  A    between atoms: C4_4  and  C5_5 
REMARK    3  A    between atoms: C5_5  and  C11_16 
REMARK       I    between atoms: N1_6  and  C6_8 
REMARK       I    between atoms: C6_8  and  N2_10 
REMARK    4  A    between atoms: N2_10  and  C7_12 
REMARK       I    between atoms: C11_16  and  N3_18 
REMARK    5  A    between atoms: N3_18  and  N4_20 
REMARK    6  A    between atoms: C12_22  and  C13_23 
REMARK    7  A    between atoms: N5_29  and  O3_30 
ROOT
HETATM    1  C11 UNL     1      -0.343   3.984  22.239  1.00  0.00     0.282 C 
HETATM    2  O2  UNL     1      -1.534   3.698  22.619  1.00  0.00    -0.265 OA
HETATM    3  N3  UNL     1      -0.134   4.037  20.851  1.00  0.00    -0.265 N 
ATOM      4  H3  UNL     1       0.792   4.259  20.485  1.00  0.00     0.190 HD
ENDROOT
BRANCH   1   5
HETATM    5  C5  UNL     1       0.626   4.215  23.285  1.00  0.00     0.083 C 
HETATM    6  N1  UNL     1       0.784   3.558  24.353  1.00  0.00    -0.307 N 
HETATM    7  C6  UNL     1       0.204   2.456  24.932  1.00  0.00     0.321 C 
ATOM      8  H1  UNL     1       1.530   3.944  24.931  1.00  0.00     0.170 HD
HETATM    9  O1  UNL     1      -0.805   2.517  25.712  1.00  0.00    -0.247 OA
HETATM   10  N2  UNL     1       0.701   1.134  24.696  1.00  0.00    -0.335 N 
ATOM     11  H2  UNL     1       1.506   1.026  24.080  1.00  0.00     0.165 HD
BRANCH   5  12
HETATM   12  C4  UNL     1       1.572   5.388  23.139  1.00  0.00     0.067 C 
BRANCH  12  13
HETATM   13  C2  UNL     1       0.914   6.656  23.559  1.00  0.00    -0.017 C 
HETATM   14  C1  UNL     1       0.600   7.488  22.306  1.00  0.00     0.010 C 
HETATM   15  C3  UNL     1       1.840   7.521  24.414  1.00  0.00     0.010 C 
ENDBRANCH  12  13
ENDBRANCH   5  12
BRANCH  10  16
HETATM   16  C7  UNL     1       0.128  -0.052  25.281  1.00  0.00     0.023 C 
HETATM   17  C8  UNL     1       0.789  -1.309  24.715  1.00  0.00     0.037 C 
HETATM   18  C9  UNL     1      -1.341  -0.118  24.929  1.00  0.00     0.037 C 
HETATM   19  C10 UNL     1       0.321  -0.106  26.782  1.00  0.00     0.037 C 
ENDBRANCH  10  16
ENDBRANCH   1   5
BRANCH   3  20
HETATM   20  N4  UNL     1      -1.185   3.787  19.975  1.00  0.00    -0.307 N 
HETATM   21  C12 UNL     1      -1.321   2.676  19.353  1.00  0.00     0.139 C 
ATOM     22  H4  UNL     1      -1.878   4.520  19.821  1.00  0.00     0.186 HD
BRANCH  21  23
HETATM   23  C13 UNL     1      -2.441   2.465  18.445  1.00  0.00     0.079 A 
HETATM   24  C14 UNL     1      -3.735   2.315  18.892  1.00  0.00     0.035 A 
HETATM   25  C15 UNL     1      -4.766   2.118  17.991  1.00  0.00     0.028 A 
HETATM   26  C16 UNL     1      -4.507   2.068  16.638  1.00  0.00     0.052 A 
HETATM   27 CL1  UNL     1      -5.789   1.819  15.451  1.00  0.00    -0.083 Cl
HETATM   28  C17 UNL     1      -3.204   2.222  16.224  1.00  0.00     0.147 A 
HETATM   29  N5  UNL     1      -2.217   2.414  17.131  1.00  0.00    -0.233 N 
BRANCH  29  30
HETATM   30  O3  UNL     1      -0.947   2.557  16.619  1.00  0.00    -0.283 OA
ATOM     31  H3  UNL     1      -0.806   2.880  15.737  1.00  0.00     0.245 HD
ENDBRANCH  29  30
ENDBRANCH  21  23
ENDBRANCH   3  20
TORSDOF 7
ENDMDL
MODEL 3
REMARK VINA RESULT: -7.149574725      1.750      4.552
REMARK  7 active torsions:
REMARK  status: ('A' for Active; 'I' for Inactive)
REMARK    1  A    between atoms: C2_2  and  C4_4 
REMARK    2  A    between atoms: C4_4  and  C5_5 
REMARK    3  A    between atoms: C5_5  and  C11_16 
REMARK       I    between atoms: N1_6  and  C6_8 
REMARK       I    between atoms: C6_8  and  N2_10 
REMARK    4  A    between atoms: N2_10  and  C7_12 
REMARK       I    between atoms: C11_16  and  N3_18 
REMARK    5  A    between atoms: N3_18  and  N4_20 
REMARK    6  A    between atoms: C12_22  and  C13_23 
REMARK    7  A    between atoms: N5_29  and  O3_30 
ROOT
HETATM    1  C11 UNL     1      -2.686   1.653  21.576  1.00  0.00     0.282 C 
HETATM    2  O2  UNL     1      -2.037   2.216  20.624  1.00  0.00    -0.265 OA
HETATM    3  N3  UNL     1      -2.493   2.192  22.858  1.00  0.00    -0.265 N 
ATOM      4  H3  UNL     1      -2.981   1.789  23.658  1.00  0.00     0.190 HD
ENDROOT
BRANCH   1   5
HETATM    5  C5  UNL     1      -3.530   0.540  21.207  1.00  0.00     0.083 C 
HETATM    6  N1  UNL     1      -4.189   0.389  20.139  1.00  0.00    -0.307 N 
HETATM    7  C6  UNL     1      -4.372   1.101  18.979  1.00  0.00     0.321 C 
ATOM      8  H1  UNL     1      -4.720  -0.482  20.139  1.00  0.00     0.170 HD
HETATM    9  O1  UNL     1      -5.286   1.978  18.825  1.00  0.00    -0.247 OA
HETATM   10  N2  UNL     1      -3.531   0.905  17.837  1.00  0.00    -0.335 N 
ATOM     11  H2  UNL     1      -2.782   0.215  17.903  1.00  0.00     0.165 HD
BRANCH   5  12
HETATM   12  C4  UNL     1      -3.694  -0.593  22.196  1.00  0.00     0.067 C 
BRANCH  12  13
HETATM   13  C2  UNL     1      -2.421  -1.350  22.354  1.00  0.00    -0.017 C 
HETATM   14  C1  UNL     1      -2.261  -2.302  21.159  1.00  0.00     0.010 C 
HETATM   15  C3  UNL     1      -2.438  -2.238  23.597  1.00  0.00     0.010 C 
ENDBRANCH  12  13
ENDBRANCH   5  12
BRANCH  10  16
HETATM   16  C7  UNL     1      -3.683   1.625  16.598  1.00  0.00     0.023 C 
HETATM   17  C8  UNL     1      -3.061   0.847  15.438  1.00  0.00     0.037 C 
HETATM   18  C9  UNL     1      -2.950   2.944  16.699  1.00  0.00     0.037 C 
HETATM   19  C10 UNL     1      -5.135   1.847  16.234  1.00  0.00     0.037 C 
ENDBRANCH  10  16
ENDBRANCH   1   5
BRANCH   3  20
HETATM   20  N4  UNL     1      -1.638   3.275  23.040  1.00  0.00    -0.307 N 
HETATM   21  C12 UNL     1      -0.433   3.146  23.454  1.00  0.00     0.139 C 
ATOM     22  H4  UNL     1      -1.986   4.212  22.836  1.00  0.00     0.186 HD
BRANCH  21  23
HETATM   23  C13 UNL     1       0.421   4.312  23.628  1.00  0.00     0.079 A 
HETATM   24  C14 UNL     1       1.115   4.552  24.794  1.00  0.00     0.035 A 
HETATM   25  C15 UNL     1       1.915   5.674  24.912  1.00  0.00     0.028 A 
HETATM   26  C16 UNL     1       2.023   6.565  23.864  1.00  0.00     0.052 A 
HETATM   27 CL1  UNL     1       3.031   8.010  23.969  1.00  0.00    -0.083 Cl
HETATM   28  C17 UNL     1       1.317   6.297  22.714  1.00  0.00     0.147 A 
HETATM   29  N5  UNL     1       0.544   5.188  22.630  1.00  0.00    -0.233 N 
BRANCH  29  30
HETATM   30  O3  UNL     1      -0.123   5.008  21.439  1.00  0.00    -0.283 OA
ATOM     31  H3  UNL     1      -0.468   4.157  21.192  1.00  0.00     0.245 HD
ENDBRANCH  29  30
ENDBRANCH  21  23
ENDBRANCH   3  20
TORSDOF 7
ENDMDL
MODEL 4
REMARK VINA RESULT: -7.042218648      1.844      4.630
REMARK  7 active torsions:
REMARK  status: ('A' for Active; 'I' for Inactive)
REMARK    1  A    between atoms: C2_2  and  C4_4 
REMARK    2  A    between atoms: C4_4  and  C5_5 
REMARK    3  A    between atoms: C5_5  and  C11_16 
REMARK       I    between atoms: N1_6  and  C6_8 
REMARK       I    between atoms: C6_8  and  N2_10 
REMARK    4  A    between atoms: N2_10  and  C7_12 
REMARK       I    between atoms: C11_16  and  N3_18 
REMARK    5  A    between atoms: N3_18  and  N4_20 
REMARK    6  A    between atoms: C12_22  and  C13_23 
REMARK    7  A    between atoms: N5_29  and  O3_30 
ROOT
HETATM    1  C11 UNL     1      -2.561   1.696  21.501  1.00  0.00     0.282 C 
HETATM    2  O2  UNL     1      -2.011   2.311  20.519  1.00  0.00    -0.265 OA
HETATM    3  N3  UNL     1      -2.260   2.185  22.782  1.00  0.00    -0.265 N 
ATOM      4  H3  UNL     1      -2.665   1.739  23.605  1.00  0.00     0.190 HD
ENDROOT
BRANCH   1   5
HETATM    5  C5  UNL     1      -3.417   0.583  21.162  1.00  0.00     0.083 C 
HETATM    6  N1  UNL     1      -4.100   0.423  20.111  1.00  0.00    -0.307 N 
HETATM    7  C6  UNL     1      -4.305   1.123  18.948  1.00  0.00     0.321 C 
ATOM      8  H1  UNL     1      -4.635  -0.446  20.132  1.00  0.00     0.170 HD
HETATM    9  O1  UNL     1      -5.219   2.003  18.804  1.00  0.00    -0.247 OA
HETATM   10  N2  UNL     1      -3.490   0.911  17.789  1.00  0.00    -0.335 N 
ATOM     11  H2  UNL     1      -2.742   0.219  17.847  1.00  0.00     0.165 HD
BRANCH   5  12
HETATM   12  C4  UNL     1      -3.565  -0.539  22.168  1.00  0.00     0.067 C 
BRANCH  12  13
HETATM   13  C2  UNL     1      -2.317  -1.348  22.249  1.00  0.00    -0.017 C 
HETATM   14  C1  UNL     1      -2.282  -2.323  21.062  1.00  0.00     0.010 C 
HETATM   15  C3  UNL     1      -2.282  -2.216  23.505  1.00  0.00     0.010 C 
ENDBRANCH  12  13
ENDBRANCH   5  12
BRANCH  10  16
HETATM   16  C7  UNL     1      -3.666   1.619  16.547  1.00  0.00     0.023 C 
HETATM   17  C8  UNL     1      -3.079   0.822  15.381  1.00  0.00     0.037 C 
HETATM   18  C9  UNL     1      -2.920   2.932  16.615  1.00  0.00     0.037 C 
HETATM   19  C10 UNL     1      -5.125   1.850  16.216  1.00  0.00     0.037 C 
ENDBRANCH  10  16
ENDBRANCH   1   5
BRANCH   3  20
HETATM   20  N4  UNL     1      -1.409   3.276  22.932  1.00  0.00    -0.307 N 
HETATM   21  C12 UNL     1      -0.169   3.154  23.230  1.00  0.00     0.139 C 
ATOM     22  H4  UNL     1      -1.790   4.213  22.800  1.00  0.00     0.186 HD
BRANCH  21  23
HETATM   23  C13 UNL     1       0.678   4.329  23.376  1.00  0.00     0.079 A 
HETATM   24  C14 UNL     1       1.603   4.697  22.423  1.00  0.00     0.035 A 
HETATM   25  C15 UNL     1       2.384   5.822  22.607  1.00  0.00     0.028 A 
HETATM   26  C16 UNL     1       2.247   6.588  23.746  1.00  0.00     0.052 A 
HETATM   27 CL1  UNL     1       3.222   8.031  24.024  1.00  0.00    -0.083 Cl
HETATM   28  C17 UNL     1       1.314   6.194  24.679  1.00  0.00     0.147 A 
HETATM   29  N5  UNL     1       0.564   5.086  24.469  1.00  0.00    -0.233 N 
BRANCH  29  30
HETATM   30  O3  UNL     1      -0.341   4.775  25.459  1.00  0.00    -0.283 OA
ATOM     31  H3  UNL     1      -0.884   5.445  25.857  1.00  0.00     0.245 HD
ENDBRANCH  29  30
ENDBRANCH  21  23
ENDBRANCH   3  20
TORSDOF 7
ENDMDL
MODEL 5
REMARK VINA RESULT: -7.040185661      4.048      7.320
REMARK  7 active torsions:
REMARK  status: ('A' for Active; 'I' for Inactive)
REMARK    1  A    between atoms: C2_2  and  C4_4 
REMARK    2  A    between atoms: C4_4  and  C5_5 
REMARK    3  A    between atoms: C5_5  and  C11_16 
REMARK       I    between atoms: N1_6  and  C6_8 
REMARK       I    between atoms: C6_8  and  N2_10 
REMARK    4  A    between atoms: N2_10  and  C7_12 
REMARK       I    between atoms: C11_16  and  N3_18 
REMARK    5  A    between atoms: N3_18  and  N4_20 
REMARK    6  A    between atoms: C12_22  and  C13_23 
REMARK    7  A    between atoms: N5_29  and  O3_30 
ROOT
HETATM    1  C11 UNL     1      -1.940   2.771  23.873  1.00  0.00     0.282 C 
HETATM    2  O2  UNL     1      -3.086   3.343  23.816  1.00  0.00    -0.265 OA
HETATM    3  N3  UNL     1      -1.447   2.255  22.663  1.00  0.00    -0.265 N 
ATOM      4  H3  UNL     1      -0.541   1.788  22.641  1.00  0.00     0.190 HD
ENDROOT
BRANCH   1   5
HETATM    5  C5  UNL     1      -1.306   2.731  25.170  1.00  0.00     0.083 C 
HETATM    6  N1  UNL     1      -1.258   1.761  25.979  1.00  0.00    -0.307 N 
HETATM    7  C6  UNL     1      -1.705   0.463  25.995  1.00  0.00     0.321 C 
ATOM      8  H1  UNL     1      -0.763   2.004  26.837  1.00  0.00     0.170 HD
HETATM    9  O1  UNL     1      -2.854   0.116  26.432  1.00  0.00    -0.247 OA
HETATM   10  N2  UNL     1      -0.897  -0.617  25.514  1.00  0.00    -0.335 N 
ATOM     11  H2  UNL     1       0.032  -0.398  25.152  1.00  0.00     0.165 HD
BRANCH   5  12
HETATM   12  C4  UNL     1      -0.625   3.985  25.674  1.00  0.00     0.067 C 
BRANCH  12  13
HETATM   13  C2  UNL     1       0.738   4.122  25.089  1.00  0.00    -0.017 C 
HETATM   14  C1  UNL     1       1.720   4.505  26.207  1.00  0.00     0.010 C 
HETATM   15  C3  UNL     1       0.807   5.255  24.065  1.00  0.00     0.010 C 
ENDBRANCH  12  13
ENDBRANCH   5  12
BRANCH  10  16
HETATM   16  C7  UNL     1      -1.320  -1.994  25.511  1.00  0.00     0.023 C 
HETATM   17  C8  UNL     1      -0.235  -2.894  24.918  1.00  0.00     0.037 C 
HETATM   18  C9  UNL     1      -2.547  -2.134  24.638  1.00  0.00     0.037 C 
HETATM   19  C10 UNL     1      -1.594  -2.516  26.905  1.00  0.00     0.037 C 
ENDBRANCH  10  16
ENDBRANCH   1   5
BRANCH   3  20
HETATM   20  N4  UNL     1      -2.192   2.381  21.495  1.00  0.00    -0.307 N 
HETATM   21  C12 UNL     1      -2.531   1.375  20.777  1.00  0.00     0.139 C 
ATOM     22  H4  UNL     1      -2.480   3.313  21.196  1.00  0.00     0.186 HD
BRANCH  21  23
HETATM   23  C13 UNL     1      -3.311   1.561  19.561  1.00  0.00     0.079 A 
HETATM   24  C14 UNL     1      -4.603   1.101  19.435  1.00  0.00     0.035 A 
HETATM   25  C15 UNL     1      -5.305   1.302  18.260  1.00  0.00     0.028 A 
HETATM   26  C16 UNL     1      -4.716   1.965  17.203  1.00  0.00     0.052 A 
HETATM   27 CL1  UNL     1      -5.571   2.244  15.685  1.00  0.00    -0.083 Cl
HETATM   28  C17 UNL     1      -3.424   2.412  17.361  1.00  0.00     0.147 A 
HETATM   29  N5  UNL     1      -2.765   2.199  18.525  1.00  0.00    -0.233 N 
BRANCH  29  30
HETATM   30  O3  UNL     1      -1.478   2.684  18.585  1.00  0.00    -0.283 OA
ATOM     31  H3  UNL     1      -0.771   2.157  18.941  1.00  0.00     0.245 HD
ENDBRANCH  29  30
ENDBRANCH  21  23
ENDBRANCH   3  20
TORSDOF 7
ENDMDL
