MODEL 1
REMARK VINA RESULT: -6.858213762      0.000      0.000
REMARK  5 active torsions:
REMARK  status: ('A' for Active; 'I' for Inactive)
REMARK    1  A    between atoms: C4_4  and  C5_5 
REMARK    2  A    between atoms: C4_4  and  C10_13 
REMARK    3  A    between atoms: C10_13  and  S2_16 
REMARK    4  A    between atoms: S2_16  and  C12_17 
REMARK    5  A    between atoms: C12_17  and  C13_18 
ROOT
HETATM    1  C1  UNL     1      -0.667   3.037  24.571  1.00  0.00     0.040 C 
HETATM    2  C2  UNL     1      -1.303   1.636  24.478  1.00  0.00     0.182 C 
HETATM    3  C3  UNL     1      -1.141   1.066  23.123  1.00  0.00     0.045 C 
HETATM    4  C4  UNL     1      -2.295   0.303  22.537  1.00  0.00    -0.003 C 
HETATM    5  C15 UNL     1      -3.585   0.450  23.332  1.00  0.00     0.040 C 
HETATM    6  C16 UNL     1      -3.650   1.822  24.005  1.00  0.00     0.233 C 
HETATM    7  N1  UNL     1      -2.614   1.768  25.004  1.00  0.00    -0.071 N 
ATOM      8  H11 UNL     1      -2.671   2.578  25.621  1.00  0.00     0.277 HD
ATOM      9  H12 UNL     1      -2.805   1.025  25.676  1.00  0.00     0.277 HD
ENDROOT
BRANCH   4  10
HETATM   10  C5  UNL     1      -2.569   0.949  21.208  1.00  0.00    -0.002 C 
HETATM   11  C6  UNL     1      -3.985   0.660  20.703  1.00  0.00     0.020 C 
HETATM   12  C7  UNL     1      -3.952   0.391  19.185  1.00  0.00     0.140 C 
HETATM   13  S1  UNL     1      -3.182   1.859  18.504  1.00  0.00     0.144 S 
HETATM   14  O1  UNL     1      -1.873   1.457  17.924  1.00  0.00    -0.228 OA
HETATM   15  O2  UNL     1      -4.089   2.524  17.531  1.00  0.00    -0.228 OA
HETATM   16  C8  UNL     1      -2.952   2.964  19.870  1.00  0.00     0.140 C 
HETATM   17  C9  UNL     1      -2.112   2.329  20.990  1.00  0.00     0.020 C 
ENDBRANCH   4  10
BRANCH   4  18
HETATM   18  C10 UNL     1      -2.012  -1.139  22.547  1.00  0.00     0.089 C 
HETATM   19  C11 UNL     1      -1.748  -1.871  21.292  1.00  0.00     0.045 C 
HETATM   20 CL1  UNL     1      -0.434  -1.289  23.451  1.00  0.00    -0.107 Cl
BRANCH  18  21
HETATM   21  S2  UNL     1      -3.126  -2.131  23.592  1.00  0.00    -0.140 SA
BRANCH  21  22
HETATM   22  C12 UNL     1      -2.527  -2.220  25.293  1.00  0.00     0.110 C 
BRANCH  22  23
HETATM   23  C13 UNL     1      -3.492  -1.689  26.287  1.00  0.00     0.154 A 
HETATM   24  C14 UNL     1      -3.284  -1.586  27.699  1.00  0.00     0.201 A 
HETATM   25  O3  UNL     1      -2.983  -0.443  26.904  1.00  0.00    -0.380 OA
ENDBRANCH  22  23
ENDBRANCH  21  22
ENDBRANCH  18  21
ENDBRANCH   4  18
TORSDOF 5
ENDMDL
MODEL 2
REMARK VINA RESULT: -6.787267687      2.546      6.837
REMARK  5 active torsions:
REMARK  status: ('A' for Active; 'I' for Inactive)
REMARK    1  A    between atoms: C4_4  and  C5_5 
REMARK    2  A    between atoms: C4_4  and  C10_13 
REMARK    3  A    between atoms: C10_13  and  S2_16 
REMARK    4  A    between atoms: S2_16  and  C12_17 
REMARK    5  A    between atoms: C12_17  and  C13_18 
ROOT
HETATM    1  C1  UNL     1      -1.792  -1.924  21.205  1.00  0.00     0.040 C 
HETATM    2  C2  UNL     1      -2.359  -0.611  21.782  1.00  0.00     0.182 C 
HETATM    3  C3  UNL     1      -1.496  -0.088  22.862  1.00  0.00     0.045 C 
HETATM    4  C4  UNL     1      -2.163   0.510  24.068  1.00  0.00    -0.003 C 
HETATM    5  C15 UNL     1      -3.662   0.249  24.125  1.00  0.00     0.040 C 
HETATM    6  C16 UNL     1      -4.001  -1.090  23.468  1.00  0.00     0.233 C 
HETATM    7  N1  UNL     1      -3.724  -0.872  22.071  1.00  0.00    -0.071 N 
ATOM      8  H11 UNL     1      -4.064  -1.655  21.514  1.00  0.00     0.277 HD
ATOM      9  H12 UNL     1      -4.315  -0.127  21.703  1.00  0.00     0.277 HD
ENDROOT
BRANCH   4  10
HETATM   10  C5  UNL     1      -1.586  -0.222  25.248  1.00  0.00    -0.002 C 
HETATM   11  C6  UNL     1      -2.564  -0.290  26.425  1.00  0.00     0.020 C 
HETATM   12  C7  UNL     1      -1.804  -0.066  27.747  1.00  0.00     0.140 C 
HETATM   13  S1  UNL     1      -0.535  -1.331  27.734  1.00  0.00     0.144 S 
HETATM   14  O1  UNL     1       0.784  -0.651  27.642  1.00  0.00    -0.228 OA
HETATM   15  O2  UNL     1      -0.668  -2.220  28.919  1.00  0.00    -0.228 OA
HETATM   16  C8  UNL     1      -0.840  -2.310  26.289  1.00  0.00     0.140 C 
HETATM   17  C9  UNL     1      -0.834  -1.462  25.007  1.00  0.00     0.020 C 
ENDBRANCH   4  10
BRANCH   4  18
HETATM   18  C10 UNL     1      -2.038   1.973  24.050  1.00  0.00     0.089 C 
HETATM   19  C11 UNL     1      -3.144   2.837  24.515  1.00  0.00     0.045 C 
HETATM   20 CL1  UNL     1      -0.705   2.335  25.243  1.00  0.00    -0.107 Cl
BRANCH  18  21
HETATM   21  S2  UNL     1      -1.349   2.665  22.513  1.00  0.00    -0.140 SA
BRANCH  21  22
HETATM   22  C12 UNL     1      -2.650   3.041  21.319  1.00  0.00     0.110 C 
BRANCH  22  23
HETATM   23  C13 UNL     1      -2.155   3.159  19.925  1.00  0.00     0.154 A 
HETATM   24  C14 UNL     1      -2.954   3.152  18.738  1.00  0.00     0.201 A 
HETATM   25  O3  UNL     1      -2.625   4.418  19.302  1.00  0.00    -0.380 OA
ENDBRANCH  22  23
ENDBRANCH  21  22
ENDBRANCH  18  21
ENDBRANCH   4  18
TORSDOF 5
ENDMDL
MODEL 3
REMARK VINA RESULT: -6.712498953      1.685      1.825
REMARK  5 active torsions:
REMARK  status: ('A' for Active; 'I' for Inactive)
REMARK    1  A    between atoms: C4_4  and  C5_5 
REMARK    2  A    between atoms: C4_4  and  C10_13 
REMARK    3  A    between atoms: C10_13  and  S2_16 
REMARK    4  A    between atoms: S2_16  and  C12_17 
REMARK    5  A    between atoms: C12_17  and  C13_18 
ROOT
HETATM    1  C1  UNL     1      -0.418   3.701  24.237  1.00  0.00     0.040 C 
HETATM    2  C2  UNL     1      -1.055   2.310  24.428  1.00  0.00     0.182 C 
HETATM    3  C3  UNL     1      -0.999   1.522  23.177  1.00  0.00     0.045 C 
HETATM    4  C4  UNL     1      -2.193   0.684  22.820  1.00  0.00    -0.003 C 
HETATM    5  C15 UNL     1      -3.417   0.974  23.679  1.00  0.00     0.040 C 
HETATM    6  C16 UNL     1      -3.432   2.439  24.118  1.00  0.00     0.233 C 
HETATM    7  N1  UNL     1      -2.320   2.541  25.027  1.00  0.00    -0.071 N 
ATOM      8  H11 UNL     1      -2.331   3.442  25.503  1.00  0.00     0.277 HD
ATOM      9  H12 UNL     1      -2.455   1.921  25.826  1.00  0.00     0.277 HD
ENDROOT
BRANCH   4  10
HETATM   10  C5  UNL     1      -2.575   1.104  21.428  1.00  0.00    -0.002 C 
HETATM   11  C6  UNL     1      -4.049   0.824  21.120  1.00  0.00     0.020 C 
HETATM   12  C7  UNL     1      -4.189   0.291  19.680  1.00  0.00     0.140 C 
HETATM   13  S1  UNL     1      -3.426   1.564  18.675  1.00  0.00     0.144 S 
HETATM   14  O1  UNL     1      -2.205   0.982  18.055  1.00  0.00    -0.228 OA
HETATM   15  O2  UNL     1      -4.397   2.107  17.688  1.00  0.00    -0.228 OA
HETATM   16  C8  UNL     1      -3.000   2.874  19.790  1.00  0.00     0.140 C 
HETATM   17  C9  UNL     1      -2.079   2.391  20.921  1.00  0.00     0.020 C 
ENDBRANCH   4  10
BRANCH   4  18
HETATM   18  C10 UNL     1      -1.906  -0.739  23.046  1.00  0.00     0.089 C 
HETATM   19  C11 UNL     1      -2.915  -1.632  23.654  1.00  0.00     0.045 C 
HETATM   20 CL1  UNL     1      -1.696  -1.435  21.372  1.00  0.00    -0.107 Cl
BRANCH  18  21
HETATM   21  S2  UNL     1      -0.281  -1.084  23.791  1.00  0.00    -0.140 SA
BRANCH  21  22
HETATM   22  C12 UNL     1      -0.416  -1.354  25.571  1.00  0.00     0.110 C 
BRANCH  22  23
HETATM   23  C13 UNL     1       0.328  -0.356  26.377  1.00  0.00     0.154 A 
HETATM   24  C14 UNL     1      -0.119   0.261  27.589  1.00  0.00     0.201 A 
HETATM   25  O3  UNL     1       0.687  -0.909  27.704  1.00  0.00    -0.380 OA
ENDBRANCH  22  23
ENDBRANCH  21  22
ENDBRANCH  18  21
ENDBRANCH   4  18
TORSDOF 5
ENDMDL
MODEL 4
REMARK VINA RESULT: -6.678481048      2.221      6.335
REMARK  5 active torsions:
REMARK  status: ('A' for Active; 'I' for Inactive)
REMARK    1  A    between atoms: C4_4  and  C5_5 
REMARK    2  A    between atoms: C4_4  and  C10_13 
REMARK    3  A    between atoms: C10_13  and  S2_16 
REMARK    4  A    between atoms: S2_16  and  C12_17 
REMARK    5  A    between atoms: C12_17  and  C13_18 
ROOT
HETATM    1  C1  UNL     1      -3.923   3.432  25.182  1.00  0.00     0.040 C 
HETATM    2  C2  UNL     1      -3.296   2.728  23.962  1.00  0.00     0.182 C 
HETATM    3  C3  UNL     1      -3.238   1.264  24.164  1.00  0.00     0.045 C 
HETATM    4  C4  UNL     1      -2.012   0.536  23.691  1.00  0.00    -0.003 C 
HETATM    5  C15 UNL     1      -0.869   1.464  23.300  1.00  0.00     0.040 C 
HETATM    6  C16 UNL     1      -0.902   2.742  24.139  1.00  0.00     0.233 C 
HETATM    7  N1  UNL     1      -2.089   3.422  23.691  1.00  0.00    -0.071 N 
ATOM      8  H11 UNL     1      -2.126   4.366  24.075  1.00  0.00     0.277 HD
ATOM      9  H12 UNL     1      -2.020   3.642  22.697  1.00  0.00     0.277 HD
ENDROOT
BRANCH   4  10
HETATM   10  C5  UNL     1      -1.514  -0.228  24.886  1.00  0.00    -0.002 C 
HETATM   11  C6  UNL     1      -2.568  -0.328  25.992  1.00  0.00     0.020 C 
HETATM   12  C7  UNL     1      -1.898  -0.140  27.368  1.00  0.00     0.140 C 
HETATM   13  S1  UNL     1      -0.629  -1.405  27.405  1.00  0.00     0.144 S 
HETATM   14  O1  UNL     1       0.693  -0.722  27.419  1.00  0.00    -0.228 OA
HETATM   15  O2  UNL     1      -0.839  -2.326  28.554  1.00  0.00    -0.228 OA
HETATM   16  C8  UNL     1      -0.836  -2.344  25.916  1.00  0.00     0.140 C 
HETATM   17  C9  UNL     1      -0.746  -1.461  24.661  1.00  0.00     0.020 C 
ENDBRANCH   4  10
BRANCH   4  18
HETATM   18  C10 UNL     1      -2.309  -0.226  22.471  1.00  0.00     0.089 C 
HETATM   19  C11 UNL     1      -1.463  -1.368  22.062  1.00  0.00     0.045 C 
HETATM   20 CL1  UNL     1      -3.924  -1.009  22.802  1.00  0.00    -0.107 Cl
BRANCH  18  21
HETATM   21  S2  UNL     1      -2.689   0.787  21.007  1.00  0.00    -0.140 SA
BRANCH  21  22
HETATM   22  C12 UNL     1      -3.845  -0.056  19.905  1.00  0.00     0.110 C 
BRANCH  22  23
HETATM   23  C13 UNL     1      -4.925   0.824  19.397  1.00  0.00     0.154 A 
HETATM   24  C14 UNL     1      -5.000   1.409  18.093  1.00  0.00     0.201 A 
HETATM   25  O3  UNL     1      -5.669   0.168  18.298  1.00  0.00    -0.380 OA
ENDBRANCH  22  23
ENDBRANCH  21  22
ENDBRANCH  18  21
ENDBRANCH   4  18
TORSDOF 5
ENDMDL
MODEL 5
REMARK VINA RESULT: -6.678394271      1.392      1.414
REMARK  5 active torsions:
REMARK  status: ('A' for Active; 'I' for Inactive)
REMARK    1  A    between atoms: C4_4  and  C5_5 
REMARK    2  A    between atoms: C4_4  and  C10_13 
REMARK    3  A    between atoms: C10_13  and  S2_16 
REMARK    4  A    between atoms: S2_16  and  C12_17 
REMARK    5  A    between atoms: C12_17  and  C13_18 
ROOT
HETATM    1  C1  UNL     1      -0.523   3.315  25.251  1.00  0.00     0.040 C 
HETATM    2  C2  UNL     1      -0.932   1.831  25.163  1.00  0.00     0.182 C 
HETATM    3  C3  UNL     1      -0.751   1.309  23.791  1.00  0.00     0.045 C 
HETATM    4  C4  UNL     1      -1.797   0.377  23.249  1.00  0.00    -0.003 C 
HETATM    5  C15 UNL     1      -3.052   0.308  24.108  1.00  0.00     0.040 C 
HETATM    6  C16 UNL     1      -3.300   1.645  24.809  1.00  0.00     0.233 C 
HETATM    7  N1  UNL     1      -2.219   1.746  25.755  1.00  0.00    -0.071 N 
ATOM      8  H11 UNL     1      -2.373   2.530  26.389  1.00  0.00     0.277 HD
ATOM      9  H12 UNL     1      -2.255   0.975  26.421  1.00  0.00     0.277 HD
ENDROOT
BRANCH   4  10
HETATM   10  C5  UNL     1      -2.238   0.985  21.946  1.00  0.00    -0.002 C 
HETATM   11  C6  UNL     1      -3.690   0.638  21.605  1.00  0.00     0.020 C 
HETATM   12  C7  UNL     1      -3.813   0.337  20.098  1.00  0.00     0.140 C 
HETATM   13  S1  UNL     1      -3.176   1.816  19.311  1.00  0.00     0.144 S 
HETATM   14  O1  UNL     1      -1.924   1.447  18.597  1.00  0.00    -0.228 OA
HETATM   15  O2  UNL     1      -4.207   2.430  18.433  1.00  0.00    -0.228 OA
HETATM   16  C8  UNL     1      -2.837   2.957  20.624  1.00  0.00     0.140 C 
HETATM   17  C9  UNL     1      -1.858   2.375  21.655  1.00  0.00     0.020 C 
ENDBRANCH   4  10
BRANCH   4  18
HETATM   18  C10 UNL     1      -1.288  -1.000  23.218  1.00  0.00     0.089 C 
HETATM   19  C11 UNL     1      -1.212  -1.756  21.950  1.00  0.00     0.045 C 
HETATM   20 CL1  UNL     1       0.462  -0.853  23.714  1.00  0.00    -0.107 Cl
BRANCH  18  21
HETATM   21  S2  UNL     1      -1.946  -2.090  24.520  1.00  0.00    -0.140 SA
BRANCH  21  22
HETATM   22  C12 UNL     1      -0.739  -2.341  25.839  1.00  0.00     0.110 C 
BRANCH  22  23
HETATM   23  C13 UNL     1      -0.902  -1.401  26.975  1.00  0.00     0.154 A 
HETATM   24  C14 UNL     1      -0.669  -1.692  28.357  1.00  0.00     0.201 A 
HETATM   25  O3  UNL     1       0.402  -1.114  27.616  1.00  0.00    -0.380 OA
ENDBRANCH  22  23
ENDBRANCH  21  22
ENDBRANCH  18  21
ENDBRANCH   4  18
TORSDOF 5
ENDMDL
