MODEL 1
REMARK VINA RESULT: -6.934800338      0.000      0.000
REMARK  8 active torsions:
REMARK  status: ('A' for Active; 'I' for Inactive)
REMARK    1  A    between atoms: C2_3  and  O1_4 
REMARK    2  A    between atoms: O1_4  and  C3_5 
REMARK    3  A    between atoms: C3_5  and  C4_6 
REMARK    4  A    between atoms: C5_7  and  C6_8 
REMARK    5  A    between atoms: C11_16  and  N4_17 
REMARK    6  A    between atoms: N5_20  and  C12_21 
REMARK    7  A    between atoms: C12_21  and  C13_22 
REMARK    8  A    between atoms: C13_22  and  C14_23 
ROOT
HETATM    1  N1  UNL     1      -0.940   2.928  15.176  1.00  0.00    -0.195 NA
HETATM    2  C1  UNL     1      -1.945   2.403  15.372  1.00  0.00     0.085 C 
HETATM    3  C2  UNL     1      -3.213   1.717  15.626  1.00  0.00     0.292 C 
ENDROOT
BRANCH   3   4
HETATM    4  O1  UNL     1      -4.246   2.584  15.901  1.00  0.00    -0.366 OA
BRANCH   4   5
HETATM    5  C3  UNL     1      -5.062   2.046  16.893  1.00  0.00     0.263 C 
BRANCH   5   6
HETATM    6  C4  UNL     1      -4.405   2.070  18.195  1.00  0.00    -0.075 C 
HETATM    7  C5  UNL     1      -3.845   2.080  19.262  1.00  0.00    -0.065 C 
BRANCH   7   8
HETATM    8  C6  UNL     1      -3.159   2.081  20.523  1.00  0.00     0.021 A 
HETATM    9  C7  UNL     1      -2.223   3.083  20.734  1.00  0.00     0.045 A 
HETATM   10  C8  UNL     1      -1.558   3.099  21.935  1.00  0.00     0.075 A 
HETATM   11  C9  UNL     1      -0.582   4.113  22.199  1.00  0.00     0.102 C 
HETATM   12  C10 UNL     1      -1.783   2.164  22.930  1.00  0.00     0.097 A 
HETATM   13  N2  UNL     1       0.190   4.940  22.409  1.00  0.00    -0.191 NA
HETATM   14  N3  UNL     1      -1.264   1.988  24.153  1.00  0.00    -0.188 N 
HETATM   15  C15 UNL     1      -2.722   1.154  22.726  1.00  0.00     0.082 A 
HETATM   16  C11 UNL     1      -1.853   0.910  24.695  1.00  0.00     0.679 A 
ATOM     17  H3  UNL     1      -0.549   2.569  24.593  1.00  0.00     0.184 HD
HETATM   18  N5  UNL     1      -2.747   0.388  23.836  1.00  0.00    -0.181 N 
HETATM   19  C16 UNL     1      -3.387   1.148  21.511  1.00  0.00     0.053 A 
BRANCH  16  20
HETATM   20  N4  UNL     1      -1.580   0.451  25.888  1.00  0.00    -0.234 N 
ATOM     21  H42 UNL     1      -0.647   0.335  26.286  1.00  0.00     0.174 HD
ATOM     22  H41 UNL     1      -2.288   0.157  26.562  1.00  0.00     0.174 HD
ENDBRANCH  16  20
BRANCH  18  23
HETATM   23  C12 UNL     1      -3.587  -0.755  24.014  1.00  0.00     0.148 C 
BRANCH  23  24
HETATM   24  C13 UNL     1      -2.904  -2.055  23.648  1.00  0.00     0.032 C 
BRANCH  24  25
HETATM   25  C14 UNL     1      -3.431  -2.469  22.289  1.00  0.00     0.086 C 
HETATM   26 BR1  UNL     1      -2.099  -2.190  20.920  1.00  0.00    -0.096 Br
ENDBRANCH  24  25
ENDBRANCH  23  24
ENDBRANCH  18  23
ENDBRANCH   7   8
ENDBRANCH   5   6
ENDBRANCH   4   5
ENDBRANCH   3   4
TORSDOF 8
ENDMDL
MODEL 2
REMARK VINA RESULT: -6.729055917      2.363      4.240
REMARK  8 active torsions:
REMARK  status: ('A' for Active; 'I' for Inactive)
REMARK    1  A    between atoms: C2_3  and  O1_4 
REMARK    2  A    between atoms: O1_4  and  C3_5 
REMARK    3  A    between atoms: C3_5  and  C4_6 
REMARK    4  A    between atoms: C5_7  and  C6_8 
REMARK    5  A    between atoms: C11_16  and  N4_17 
REMARK    6  A    between atoms: N5_20  and  C12_21 
REMARK    7  A    between atoms: C12_21  and  C13_22 
REMARK    8  A    between atoms: C13_22  and  C14_23 
ROOT
HETATM    1  N1  UNL     1      -1.038   2.926  15.226  1.00  0.00    -0.195 NA
HETATM    2  C1  UNL     1      -2.036   2.381  15.403  1.00  0.00     0.085 C 
HETATM    3  C2  UNL     1      -3.295   1.670  15.631  1.00  0.00     0.292 C 
ENDROOT
BRANCH   3   4
HETATM    4  O1  UNL     1      -4.318   2.502  16.025  1.00  0.00    -0.366 OA
BRANCH   4   5
HETATM    5  C3  UNL     1      -5.165   1.827  16.899  1.00  0.00     0.263 C 
BRANCH   5   6
HETATM    6  C4  UNL     1      -4.522   1.580  18.184  1.00  0.00    -0.075 C 
HETATM    7  C5  UNL     1      -3.973   1.365  19.235  1.00  0.00    -0.065 C 
BRANCH   7   8
HETATM    8  C6  UNL     1      -3.303   1.099  20.476  1.00  0.00     0.021 A 
HETATM    9  C7  UNL     1      -3.397  -0.189  20.983  1.00  0.00     0.045 A 
HETATM   10  C8  UNL     1      -2.762  -0.462  22.169  1.00  0.00     0.075 A 
HETATM   11  C9  UNL     1      -2.831  -1.777  22.732  1.00  0.00     0.102 C 
HETATM   12  C10 UNL     1      -2.040   0.489  22.869  1.00  0.00     0.097 A 
HETATM   13  N2  UNL     1      -2.880  -2.839  23.171  1.00  0.00    -0.191 NA
HETATM   14  N3  UNL     1      -1.353   0.450  24.019  1.00  0.00    -0.188 N 
HETATM   15  C15 UNL     1      -1.940   1.785  22.366  1.00  0.00     0.082 A 
HETATM   16  C11 UNL     1      -0.842   1.674  24.230  1.00  0.00     0.679 A 
ATOM     17  H3  UNL     1      -1.238  -0.364  24.624  1.00  0.00     0.184 HD
HETATM   18  N5  UNL     1      -1.191   2.501  23.230  1.00  0.00    -0.181 N 
HETATM   19  C16 UNL     1      -2.585   2.048  21.170  1.00  0.00     0.053 A 
BRANCH  16  20
HETATM   20  N4  UNL     1      -0.113   1.991  25.268  1.00  0.00    -0.234 N 
ATOM     21  H42 UNL     1       0.659   1.443  25.647  1.00  0.00     0.174 HD
ATOM     22  H41 UNL     1      -0.244   2.841  25.818  1.00  0.00     0.174 HD
ENDBRANCH  16  20
BRANCH  18  23
HETATM   23  C12 UNL     1      -0.860   3.882  23.064  1.00  0.00     0.148 C 
BRANCH  23  24
HETATM   24  C13 UNL     1       0.531   4.095  22.506  1.00  0.00     0.032 C 
BRANCH  24  25
HETATM   25  C14 UNL     1       1.244   5.054  23.439  1.00  0.00     0.086 C 
HETATM   26 BR1  UNL     1       2.646   6.003  22.510  1.00  0.00    -0.096 Br
ENDBRANCH  24  25
ENDBRANCH  23  24
ENDBRANCH  18  23
ENDBRANCH   7   8
ENDBRANCH   5   6
ENDBRANCH   4   5
ENDBRANCH   3   4
TORSDOF 8
ENDMDL
MODEL 3
REMARK VINA RESULT: -6.699615638      3.541      7.050
REMARK  8 active torsions:
REMARK  status: ('A' for Active; 'I' for Inactive)
REMARK    1  A    between atoms: C2_3  and  O1_4 
REMARK    2  A    between atoms: O1_4  and  C3_5 
REMARK    3  A    between atoms: C3_5  and  C4_6 
REMARK    4  A    between atoms: C5_7  and  C6_8 
REMARK    5  A    between atoms: C11_16  and  N4_17 
REMARK    6  A    between atoms: N5_20  and  C12_21 
REMARK    7  A    between atoms: C12_21  and  C13_22 
REMARK    8  A    between atoms: C13_22  and  C14_23 
ROOT
HETATM    1  N1  UNL     1       0.551  -0.801  27.321  1.00  0.00    -0.195 NA
HETATM    2  C1  UNL     1      -0.563  -1.071  27.418  1.00  0.00     0.085 C 
HETATM    3  C2  UNL     1      -1.983  -1.398  27.555  1.00  0.00     0.292 C 
ENDROOT
BRANCH   3   4
HETATM    4  O1  UNL     1      -2.469  -2.128  26.494  1.00  0.00    -0.366 OA
BRANCH   4   5
HETATM    5  C3  UNL     1      -3.618  -1.523  25.992  1.00  0.00     0.263 C 
BRANCH   5   6
HETATM    6  C4  UNL     1      -3.305  -0.606  24.902  1.00  0.00    -0.075 C 
HETATM    7  C5  UNL     1      -3.027   0.143  23.999  1.00  0.00    -0.065 C 
BRANCH   7   8
HETATM    8  C6  UNL     1      -2.673   1.026  22.924  1.00  0.00     0.021 A 
HETATM    9  C7  UNL     1      -1.830   2.085  23.226  1.00  0.00     0.045 A 
HETATM   10  C8  UNL     1      -1.481   2.939  22.210  1.00  0.00     0.075 A 
HETATM   11  C9  UNL     1      -0.614   4.048  22.472  1.00  0.00     0.102 C 
HETATM   12  C10 UNL     1      -1.935   2.785  20.911  1.00  0.00     0.097 A 
HETATM   13  N2  UNL     1       0.095   4.928  22.688  1.00  0.00    -0.191 NA
HETATM   14  N3  UNL     1      -1.730   3.479  19.784  1.00  0.00    -0.188 N 
HETATM   15  C15 UNL     1      -2.783   1.723  20.600  1.00  0.00     0.082 A 
HETATM   16  C11 UNL     1      -2.423   2.877  18.802  1.00  0.00     0.679 A 
ATOM     17  H3  UNL     1      -1.152   4.315  19.688  1.00  0.00     0.184 HD
HETATM   18  N5  UNL     1      -3.071   1.802  19.284  1.00  0.00    -0.181 N 
HETATM   19  C16 UNL     1      -3.127   0.868  21.633  1.00  0.00     0.053 A 
BRANCH  16  20
HETATM   20  N4  UNL     1      -2.448   3.295  17.564  1.00  0.00    -0.234 N 
ATOM     21  H42 UNL     1      -1.724   3.849  17.105  1.00  0.00     0.174 HD
ATOM     22  H41 UNL     1      -3.211   3.106  16.914  1.00  0.00     0.174 HD
ENDBRANCH  16  20
BRANCH  18  23
HETATM   23  C12 UNL     1      -3.915   0.886  18.583  1.00  0.00     0.148 C 
BRANCH  23  24
HETATM   24  C13 UNL     1      -5.389   1.169  18.781  1.00  0.00     0.032 C 
BRANCH  24  25
HETATM   25  C14 UNL     1      -6.090   0.817  17.485  1.00  0.00     0.086 C 
HETATM   26 BR1  UNL     1      -5.473   1.941  16.041  1.00  0.00    -0.096 Br
ENDBRANCH  24  25
ENDBRANCH  23  24
ENDBRANCH  18  23
ENDBRANCH   7   8
ENDBRANCH   5   6
ENDBRANCH   4   5
ENDBRANCH   3   4
TORSDOF 8
ENDMDL
MODEL 4
REMARK VINA RESULT: -6.684860848      2.866      4.778
REMARK  8 active torsions:
REMARK  status: ('A' for Active; 'I' for Inactive)
REMARK    1  A    between atoms: C2_3  and  O1_4 
REMARK    2  A    between atoms: O1_4  and  C3_5 
REMARK    3  A    between atoms: C3_5  and  C4_6 
REMARK    4  A    between atoms: C5_7  and  C6_8 
REMARK    5  A    between atoms: C11_16  and  N4_17 
REMARK    6  A    between atoms: N5_20  and  C12_21 
REMARK    7  A    between atoms: C12_21  and  C13_22 
REMARK    8  A    between atoms: C13_22  and  C14_23 
ROOT
HETATM    1  N1  UNL     1      -2.972   3.018  16.575  1.00  0.00    -0.195 NA
HETATM    2  C1  UNL     1      -3.930   2.408  16.755  1.00  0.00     0.085 C 
HETATM    3  C2  UNL     1      -5.158   1.639  16.966  1.00  0.00     0.292 C 
ENDROOT
BRANCH   3   4
HETATM    4  O1  UNL     1      -4.972   0.545  17.781  1.00  0.00    -0.366 OA
BRANCH   4   5
HETATM    5  C3  UNL     1      -5.484   0.809  19.049  1.00  0.00     0.263 C 
BRANCH   5   6
HETATM    6  C4  UNL     1      -4.429   0.836  20.056  1.00  0.00    -0.075 C 
HETATM    7  C5  UNL     1      -3.572   0.851  20.903  1.00  0.00    -0.065 C 
BRANCH   7   8
HETATM    8  C6  UNL     1      -2.567   0.862  21.928  1.00  0.00     0.021 A 
HETATM    9  C7  UNL     1      -2.292  -0.343  22.558  1.00  0.00     0.045 A 
HETATM   10  C8  UNL     1      -1.334  -0.351  23.541  1.00  0.00     0.075 A 
HETATM   11  C9  UNL     1      -1.016  -1.570  24.221  1.00  0.00     0.102 C 
HETATM   12  C10 UNL     1      -0.641   0.785  23.922  1.00  0.00     0.097 A 
HETATM   13  N2  UNL     1      -0.756  -2.556  24.753  1.00  0.00    -0.191 NA
HETATM   14  N3  UNL     1       0.315   1.009  24.833  1.00  0.00    -0.188 N 
HETATM   15  C15 UNL     1      -0.911   2.000  23.293  1.00  0.00     0.082 A 
HETATM   16  C11 UNL     1       0.633   2.313  24.780  1.00  0.00     0.679 A 
ATOM     17  H3  UNL     1       0.728   0.314  25.456  1.00  0.00     0.184 HD
HETATM   18  N5  UNL     1      -0.107   2.932  23.843  1.00  0.00    -0.181 N 
HETATM   19  C16 UNL     1      -1.879   1.995  22.303  1.00  0.00     0.053 A 
BRANCH  16  20
HETATM   20  N4  UNL     1       1.535   2.876  25.540  1.00  0.00    -0.234 N 
ATOM     21  H42 UNL     1       1.847   2.537  26.450  1.00  0.00     0.174 HD
ATOM     22  H41 UNL     1       2.032   3.733  25.296  1.00  0.00     0.174 HD
ENDBRANCH  16  20
BRANCH  18  23
HETATM   23  C12 UNL     1      -0.086   4.311  23.464  1.00  0.00     0.148 C 
BRANCH  23  24
HETATM   24  C13 UNL     1       1.036   4.644  22.504  1.00  0.00     0.032 C 
BRANCH  24  25
HETATM   25  C14 UNL     1       1.903   5.689  23.177  1.00  0.00     0.086 C 
HETATM   26 BR1  UNL     1       3.312   6.279  21.996  1.00  0.00    -0.096 Br
ENDBRANCH  24  25
ENDBRANCH  23  24
ENDBRANCH  18  23
ENDBRANCH   7   8
ENDBRANCH   5   6
ENDBRANCH   4   5
ENDBRANCH   3   4
TORSDOF 8
ENDMDL
MODEL 5
REMARK VINA RESULT: -6.645556116      1.077      1.263
REMARK  8 active torsions:
REMARK  status: ('A' for Active; 'I' for Inactive)
REMARK    1  A    between atoms: C2_3  and  O1_4 
REMARK    2  A    between atoms: O1_4  and  C3_5 
REMARK    3  A    between atoms: C3_5  and  C4_6 
REMARK    4  A    between atoms: C5_7  and  C6_8 
REMARK    5  A    between atoms: C11_16  and  N4_17 
REMARK    6  A    between atoms: N5_20  and  C12_21 
REMARK    7  A    between atoms: C12_21  and  C13_22 
REMARK    8  A    between atoms: C13_22  and  C14_23 
ROOT
HETATM    1  N1  UNL     1      -0.987   2.635  15.217  1.00  0.00    -0.195 NA
HETATM    2  C1  UNL     1      -1.967   2.181  15.614  1.00  0.00     0.085 C 
HETATM    3  C2  UNL     1      -3.204   1.586  16.123  1.00  0.00     0.292 C 
ENDROOT
BRANCH   3   4
HETATM    4  O1  UNL     1      -4.103   2.524  16.578  1.00  0.00    -0.366 OA
BRANCH   4   5
HETATM    5  C3  UNL     1      -4.750   2.045  17.714  1.00  0.00     0.263 C 
BRANCH   5   6
HETATM    6  C4  UNL     1      -3.917   2.186  18.903  1.00  0.00    -0.075 C 
HETATM    7  C5  UNL     1      -3.211   2.302  19.872  1.00  0.00    -0.065 C 
BRANCH   7   8
HETATM    8  C6  UNL     1      -2.351   2.441  21.013  1.00  0.00     0.021 A 
HETATM    9  C7  UNL     1      -1.626   3.618  21.121  1.00  0.00     0.045 A 
HETATM   10  C8  UNL     1      -0.799   3.768  22.206  1.00  0.00     0.075 A 
HETATM   11  C9  UNL     1      -0.029   4.966  22.360  1.00  0.00     0.102 C 
HETATM   12  C10 UNL     1      -0.662   2.799  23.184  1.00  0.00     0.097 A 
HETATM   13  N2  UNL     1       0.575   5.937  22.483  1.00  0.00    -0.191 NA
HETATM   14  N3  UNL     1       0.068   2.729  24.305  1.00  0.00    -0.188 N 
HETATM   15  C15 UNL     1      -1.388   1.612  23.084  1.00  0.00     0.082 A 
HETATM   16  C11 UNL     1      -0.188   1.545  24.887  1.00  0.00     0.679 A 
ATOM     17  H3  UNL     1       0.704   3.447  24.655  1.00  0.00     0.184 HD
HETATM   18  N5  UNL     1      -1.076   0.851  24.153  1.00  0.00    -0.181 N 
HETATM   19  C16 UNL     1      -2.219   1.473  21.985  1.00  0.00     0.053 A 
BRANCH  16  20
HETATM   20  N4  UNL     1       0.360   1.147  26.004  1.00  0.00    -0.234 N 
ATOM     21  H42 UNL     1       1.278   0.712  26.099  1.00  0.00     0.174 HD
ATOM     22  H41 UNL     1      -0.083   1.234  26.919  1.00  0.00     0.174 HD
ENDBRANCH  16  20
BRANCH  18  23
HETATM   23  C12 UNL     1      -1.618  -0.447  24.410  1.00  0.00     0.148 C 
BRANCH  23  24
HETATM   24  C13 UNL     1      -1.039  -1.519  23.510  1.00  0.00     0.032 C 
BRANCH  24  25
HETATM   25  C14 UNL     1      -2.207  -2.271  22.905  1.00  0.00     0.086 C 
HETATM   26 BR1  UNL     1      -2.155  -2.185  20.976  1.00  0.00    -0.096 Br
ENDBRANCH  24  25
ENDBRANCH  23  24
ENDBRANCH  18  23
ENDBRANCH   7   8
ENDBRANCH   5   6
ENDBRANCH   4   5
ENDBRANCH   3   4
TORSDOF 8
ENDMDL
