MODEL 1
REMARK VINA RESULT: -7.103656006      0.000      0.000
REMARK  9 active torsions:
REMARK  status: ('A' for Active; 'I' for Inactive)
REMARK    1  A    between atoms: C2_2  and  N1_5 
REMARK       I    between atoms: N1_5  and  C5_7 
REMARK    2  A    between atoms: C5_7  and  C6_9 
REMARK    3  A    between atoms: C6_9  and  O2_10 
REMARK    4  A    between atoms: O2_10  and  C7_11 
REMARK    5  A    between atoms: C7_11  and  C8_13 
REMARK    6  A    between atoms: C12_20  and  C13_21 
REMARK    7  A    between atoms: C13_21  and  O5_22 
REMARK    8  A    between atoms: O5_22  and  C14_23 
REMARK    9  A    between atoms: C14_23  and  C15_25 
ROOT
HETATM    1  C8  UNL     1      -0.713   1.908  23.963  1.00  0.00     0.063 A 
HETATM    2  C9  UNL     1       0.613   1.753  24.363  1.00  0.00     0.109 A 
HETATM    3  N2  UNL     1       1.022   0.849  25.249  1.00  0.00    -0.333 N 
ATOM      4  H2  UNL     1       2.008   0.783  25.502  1.00  0.00     0.168 HD
HETATM    5  C10 UNL     1       0.125   0.029  25.802  1.00  0.00     0.245 A 
HETATM    6  O4  UNL     1       0.515  -0.839  26.653  1.00  0.00    -0.268 OA
HETATM    7  C11 UNL     1      -1.211   0.094  25.480  1.00  0.00     0.084 A 
HETATM    8  C12 UNL     1      -1.629   1.049  24.545  1.00  0.00    -0.011 A 
ENDROOT
BRANCH   1   9
HETATM    9  C7  UNL     1      -1.049   2.942  23.011  1.00  0.00     0.295 C 
HETATM   10  O3  UNL     1      -1.028   4.159  23.431  1.00  0.00    -0.259 OA
BRANCH   9  11
HETATM   11  O2  UNL     1      -1.397   2.814  21.702  1.00  0.00    -0.308 OA
BRANCH  11  12
HETATM   12  C6  UNL     1      -1.216   3.695  20.650  1.00  0.00     0.281 C 
BRANCH  12  13
HETATM   13  C5  UNL     1      -2.062   3.482  19.469  1.00  0.00     0.242 C 
HETATM   14  N1  UNL     1      -2.157   2.227  18.839  1.00  0.00    -0.351 N 
ATOM     15  H1  UNL     1      -1.624   1.443  19.214  1.00  0.00     0.163 HD
HETATM   16  O1  UNL     1      -2.741   4.439  18.978  1.00  0.00    -0.271 OA
BRANCH  14  17
HETATM   17  C2  UNL     1      -2.992   2.015  17.672  1.00  0.00     0.022 C 
HETATM   18  C1  UNL     1      -4.449   2.215  17.981  1.00  0.00     0.037 C 
HETATM   19  C3  UNL     1      -2.848   0.564  17.193  1.00  0.00     0.037 C 
HETATM   20  C4  UNL     1      -2.516   2.886  16.534  1.00  0.00     0.037 C 
ENDBRANCH  14  17
ENDBRANCH  12  13
ENDBRANCH  11  12
ENDBRANCH   9  11
ENDBRANCH   1   9
BRANCH   8  21
HETATM   21  C13 UNL     1      -3.038   1.222  24.135  1.00  0.00     0.218 C 
BRANCH  21  22
HETATM   22  O5  UNL     1      -3.601   0.171  23.403  1.00  0.00    -0.315 OA
BRANCH  22  23
HETATM   23  C14 UNL     1      -3.339  -0.103  22.092  1.00  0.00     0.282 C 
HETATM   24  O6  UNL     1      -3.662   0.735  21.202  1.00  0.00    -0.263 OA
BRANCH  23  25
HETATM   25  C15 UNL     1      -2.682  -1.352  21.620  1.00  0.00     0.117 C 
HETATM   26  C16 UNL     1      -2.856  -1.559  20.139  1.00  0.00     0.043 C 
HETATM   27  C17 UNL     1      -1.241  -1.443  22.016  1.00  0.00     0.043 C 
HETATM   28 CL1  UNL     1      -3.539  -2.701  22.443  1.00  0.00    -0.109 Cl
ENDBRANCH  23  25
ENDBRANCH  22  23
ENDBRANCH  21  22
ENDBRANCH   8  21
TORSDOF 9
ENDMDL
MODEL 2
REMARK VINA RESULT: -6.980169462      2.267      3.952
REMARK  9 active torsions:
REMARK  status: ('A' for Active; 'I' for Inactive)
REMARK    1  A    between atoms: C2_2  and  N1_5 
REMARK       I    between atoms: N1_5  and  C5_7 
REMARK    2  A    between atoms: C5_7  and  C6_9 
REMARK    3  A    between atoms: C6_9  and  O2_10 
REMARK    4  A    between atoms: O2_10  and  C7_11 
REMARK    5  A    between atoms: C7_11  and  C8_13 
REMARK    6  A    between atoms: C12_20  and  C13_21 
REMARK    7  A    between atoms: C13_21  and  O5_22 
REMARK    8  A    between atoms: O5_22  and  C14_23 
REMARK    9  A    between atoms: C14_23  and  C15_25 
ROOT
HETATM    1  C8  UNL     1      -1.434  -1.558  23.894  1.00  0.00     0.063 A 
HETATM    2  C9  UNL     1      -0.286  -2.253  24.270  1.00  0.00     0.109 A 
HETATM    3  N2  UNL     1       0.406  -2.002  25.378  1.00  0.00    -0.333 N 
ATOM      4  H2  UNL     1       1.240  -2.546  25.600  1.00  0.00     0.168 HD
HETATM    5  C10 UNL     1      -0.006  -1.029  26.195  1.00  0.00     0.245 A 
HETATM    6  O4  UNL     1       0.656  -0.786  27.258  1.00  0.00    -0.268 OA
HETATM    7  C11 UNL     1      -1.127  -0.280  25.921  1.00  0.00     0.084 A 
HETATM    8  C12 UNL     1      -1.848  -0.554  24.753  1.00  0.00    -0.011 A 
ENDROOT
BRANCH   1   9
HETATM    9  C7  UNL     1      -2.093  -1.898  22.653  1.00  0.00     0.295 C 
HETATM   10  O3  UNL     1      -2.982  -2.829  22.694  1.00  0.00    -0.259 OA
BRANCH   9  11
HETATM   11  O2  UNL     1      -1.905  -1.367  21.415  1.00  0.00    -0.308 OA
BRANCH  11  12
HETATM   12  C6  UNL     1      -2.661  -1.516  20.265  1.00  0.00     0.281 C 
BRANCH  12  13
HETATM   13  C5  UNL     1      -3.566  -0.410  19.931  1.00  0.00     0.242 C 
HETATM   14  N1  UNL     1      -3.763   0.015  18.603  1.00  0.00    -0.351 N 
ATOM     15  H1  UNL     1      -3.262  -0.459  17.853  1.00  0.00     0.163 HD
HETATM   16  O1  UNL     1      -4.205   0.201  20.845  1.00  0.00    -0.271 OA
BRANCH  14  17
HETATM   17  C2  UNL     1      -4.657   1.109  18.272  1.00  0.00     0.022 C 
HETATM   18  C1  UNL     1      -6.088   0.775  18.580  1.00  0.00     0.037 C 
HETATM   19  C3  UNL     1      -4.593   1.385  16.764  1.00  0.00     0.037 C 
HETATM   20  C4  UNL     1      -4.196   2.374  18.955  1.00  0.00     0.037 C 
ENDBRANCH  14  17
ENDBRANCH  12  13
ENDBRANCH  11  12
ENDBRANCH   9  11
ENDBRANCH   1   9
BRANCH   8  21
HETATM   21  C13 UNL     1      -3.055   0.195  24.348  1.00  0.00     0.218 C 
BRANCH  21  22
HETATM   22  O5  UNL     1      -2.880   1.562  24.105  1.00  0.00    -0.315 OA
BRANCH  22  23
HETATM   23  C14 UNL     1      -1.883   2.106  23.349  1.00  0.00     0.282 C 
HETATM   24  O6  UNL     1      -1.848   1.880  22.105  1.00  0.00    -0.263 OA
BRANCH  23  25
HETATM   25  C15 UNL     1      -0.803   2.970  23.897  1.00  0.00     0.117 C 
HETATM   26  C16 UNL     1      -0.502   4.140  22.997  1.00  0.00     0.043 C 
HETATM   27  C17 UNL     1      -1.064   3.418  25.301  1.00  0.00     0.043 C 
HETATM   28 CL1  UNL     1       0.674   1.946  23.939  1.00  0.00    -0.109 Cl
ENDBRANCH  23  25
ENDBRANCH  22  23
ENDBRANCH  21  22
ENDBRANCH   8  21
TORSDOF 9
ENDMDL
MODEL 3
REMARK VINA RESULT: -6.916382665      2.312      3.735
REMARK  9 active torsions:
REMARK  status: ('A' for Active; 'I' for Inactive)
REMARK    1  A    between atoms: C2_2  and  N1_5 
REMARK       I    between atoms: N1_5  and  C5_7 
REMARK    2  A    between atoms: C5_7  and  C6_9 
REMARK    3  A    between atoms: C6_9  and  O2_10 
REMARK    4  A    between atoms: O2_10  and  C7_11 
REMARK    5  A    between atoms: C7_11  and  C8_13 
REMARK    6  A    between atoms: C12_20  and  C13_21 
REMARK    7  A    between atoms: C13_21  and  O5_22 
REMARK    8  A    between atoms: O5_22  and  C14_23 
REMARK    9  A    between atoms: C14_23  and  C15_25 
ROOT
HETATM    1  C8  UNL     1      -2.615   1.006  21.891  1.00  0.00     0.063 A 
HETATM    2  C9  UNL     1      -2.371   0.085  20.874  1.00  0.00     0.109 A 
HETATM    3  N2  UNL     1      -2.668  -1.209  20.955  1.00  0.00    -0.333 N 
ATOM      4  H2  UNL     1      -2.465  -1.836  20.176  1.00  0.00     0.168 HD
HETATM    5  C10 UNL     1      -3.237  -1.676  22.069  1.00  0.00     0.245 A 
HETATM    6  O4  UNL     1      -3.524  -2.918  22.149  1.00  0.00    -0.268 OA
HETATM    7  C11 UNL     1      -3.524  -0.856  23.135  1.00  0.00     0.084 A 
HETATM    8  C12 UNL     1      -3.207   0.505  23.038  1.00  0.00    -0.011 A 
ENDROOT
BRANCH   1   9
HETATM    9  C7  UNL     1      -2.227   2.385  21.705  1.00  0.00     0.295 C 
HETATM   10  O3  UNL     1      -1.076   2.740  22.163  1.00  0.00    -0.259 OA
BRANCH   9  11
HETATM   11  O2  UNL     1      -2.917   3.392  21.104  1.00  0.00    -0.308 OA
BRANCH  11  12
HETATM   12  C6  UNL     1      -2.787   3.914  19.829  1.00  0.00     0.281 C 
BRANCH  12  13
HETATM   13  C5  UNL     1      -3.201   3.044  18.722  1.00  0.00     0.242 C 
HETATM   14  N1  UNL     1      -2.465   2.961  17.525  1.00  0.00    -0.351 N 
ATOM     15  H1  UNL     1      -1.620   3.522  17.424  1.00  0.00     0.163 HD
HETATM   16  O1  UNL     1      -4.250   2.331  18.817  1.00  0.00    -0.271 OA
BRANCH  14  17
HETATM   17  C2  UNL     1      -2.873   2.102  16.430  1.00  0.00     0.022 C 
HETATM   18  C1  UNL     1      -2.809   0.649  16.804  1.00  0.00     0.037 C 
HETATM   19  C3  UNL     1      -1.914   2.286  15.247  1.00  0.00     0.037 C 
HETATM   20  C4  UNL     1      -4.240   2.513  15.936  1.00  0.00     0.037 C 
ENDBRANCH  14  17
ENDBRANCH  12  13
ENDBRANCH  11  12
ENDBRANCH   9  11
ENDBRANCH   1   9
BRANCH   8  21
HETATM   21  C13 UNL     1      -3.452   1.476  24.123  1.00  0.00     0.218 C 
BRANCH  21  22
HETATM   22  O5  UNL     1      -2.408   1.656  25.038  1.00  0.00    -0.315 OA
BRANCH  22  23
HETATM   23  C14 UNL     1      -1.663   0.654  25.588  1.00  0.00     0.282 C 
HETATM   24  O6  UNL     1      -2.211  -0.174  26.372  1.00  0.00    -0.263 OA
BRANCH  23  25
HETATM   25  C15 UNL     1      -0.212   0.458  25.326  1.00  0.00     0.117 C 
HETATM   26  C16 UNL     1       0.033  -0.491  24.182  1.00  0.00     0.043 C 
HETATM   27  C17 UNL     1       0.530   1.743  25.134  1.00  0.00     0.043 C 
HETATM   28 CL1  UNL     1       0.456  -0.318  26.803  1.00  0.00    -0.109 Cl
ENDBRANCH  23  25
ENDBRANCH  22  23
ENDBRANCH  21  22
ENDBRANCH   8  21
TORSDOF 9
ENDMDL
MODEL 4
REMARK VINA RESULT: -6.839736518      2.316      3.765
REMARK  9 active torsions:
REMARK  status: ('A' for Active; 'I' for Inactive)
REMARK    1  A    between atoms: C2_2  and  N1_5 
REMARK       I    between atoms: N1_5  and  C5_7 
REMARK    2  A    between atoms: C5_7  and  C6_9 
REMARK    3  A    between atoms: C6_9  and  O2_10 
REMARK    4  A    between atoms: O2_10  and  C7_11 
REMARK    5  A    between atoms: C7_11  and  C8_13 
REMARK    6  A    between atoms: C12_20  and  C13_21 
REMARK    7  A    between atoms: C13_21  and  O5_22 
REMARK    8  A    between atoms: O5_22  and  C14_23 
REMARK    9  A    between atoms: C14_23  and  C15_25 
ROOT
HETATM    1  C8  UNL     1      -2.633   0.975  21.869  1.00  0.00     0.063 A 
HETATM    2  C9  UNL     1      -2.413   0.029  20.870  1.00  0.00     0.109 A 
HETATM    3  N2  UNL     1      -2.720  -1.260  20.986  1.00  0.00    -0.333 N 
ATOM      4  H2  UNL     1      -2.535  -1.907  20.218  1.00  0.00     0.168 HD
HETATM    5  C10 UNL     1      -3.275  -1.697  22.119  1.00  0.00     0.245 A 
HETATM    6  O4  UNL     1      -3.570  -2.934  22.233  1.00  0.00    -0.268 OA
HETATM    7  C11 UNL     1      -3.537  -0.850  23.171  1.00  0.00     0.084 A 
HETATM    8  C12 UNL     1      -3.210   0.505  23.037  1.00  0.00    -0.011 A 
ENDROOT
BRANCH   1   9
HETATM    9  C7  UNL     1      -2.236   2.346  21.646  1.00  0.00     0.295 C 
HETATM   10  O3  UNL     1      -1.145   2.742  22.204  1.00  0.00    -0.259 OA
BRANCH   9  11
HETATM   11  O2  UNL     1      -2.863   3.306  20.914  1.00  0.00    -0.308 OA
BRANCH  11  12
HETATM   12  C6  UNL     1      -2.513   3.856  19.693  1.00  0.00     0.281 C 
BRANCH  12  13
HETATM   13  C5  UNL     1      -2.472   2.935  18.551  1.00  0.00     0.242 C 
HETATM   14  N1  UNL     1      -3.580   2.753  17.701  1.00  0.00    -0.351 N 
ATOM     15  H1  UNL     1      -4.435   3.277  17.884  1.00  0.00     0.163 HD
HETATM   16  O1  UNL     1      -1.419   2.268  18.295  1.00  0.00    -0.271 OA
BRANCH  14  17
HETATM   17  C2  UNL     1      -3.541   1.843  16.572  1.00  0.00     0.022 C 
HETATM   18  C1  UNL     1      -2.566   2.295  15.522  1.00  0.00     0.037 C 
HETATM   19  C3  UNL     1      -4.917   1.804  15.896  1.00  0.00     0.037 C 
HETATM   20  C4  UNL     1      -3.263   0.439  17.054  1.00  0.00     0.037 C 
ENDBRANCH  14  17
ENDBRANCH  12  13
ENDBRANCH  11  12
ENDBRANCH   9  11
ENDBRANCH   1   9
BRANCH   8  21
HETATM   21  C13 UNL     1      -3.429   1.503  24.104  1.00  0.00     0.218 C 
BRANCH  21  22
HETATM   22  O5  UNL     1      -2.383   1.668  25.019  1.00  0.00    -0.315 OA
BRANCH  22  23
HETATM   23  C14 UNL     1      -1.655   0.655  25.573  1.00  0.00     0.282 C 
HETATM   24  O6  UNL     1      -2.217  -0.158  26.362  1.00  0.00    -0.263 OA
BRANCH  23  25
HETATM   25  C15 UNL     1      -0.209   0.431  25.308  1.00  0.00     0.117 C 
HETATM   26  C16 UNL     1       0.016  -0.549  24.186  1.00  0.00     0.043 C 
HETATM   27  C17 UNL     1       0.551   1.700  25.080  1.00  0.00     0.043 C 
HETATM   28 CL1  UNL     1       0.456  -0.318  26.801  1.00  0.00    -0.109 Cl
ENDBRANCH  23  25
ENDBRANCH  22  23
ENDBRANCH  21  22
ENDBRANCH   8  21
TORSDOF 9
ENDMDL
MODEL 5
REMARK VINA RESULT: -6.804235984      2.682      6.740
REMARK  9 active torsions:
REMARK  status: ('A' for Active; 'I' for Inactive)
REMARK    1  A    between atoms: C2_2  and  N1_5 
REMARK       I    between atoms: N1_5  and  C5_7 
REMARK    2  A    between atoms: C5_7  and  C6_9 
REMARK    3  A    between atoms: C6_9  and  O2_10 
REMARK    4  A    between atoms: O2_10  and  C7_11 
REMARK    5  A    between atoms: C7_11  and  C8_13 
REMARK    6  A    between atoms: C12_20  and  C13_21 
REMARK    7  A    between atoms: C13_21  and  O5_22 
REMARK    8  A    between atoms: O5_22  and  C14_23 
REMARK    9  A    between atoms: C14_23  and  C15_25 
ROOT
HETATM    1  C8  UNL     1      -1.785  -0.186  22.682  1.00  0.00     0.063 A 
HETATM    2  C9  UNL     1      -0.899   0.477  23.529  1.00  0.00     0.109 A 
HETATM    3  N2  UNL     1      -0.895   1.794  23.716  1.00  0.00    -0.333 N 
ATOM      4  H2  UNL     1      -0.221   2.224  24.350  1.00  0.00     0.168 HD
HETATM    5  C10 UNL     1      -1.785   2.547  23.064  1.00  0.00     0.245 A 
HETATM    6  O4  UNL     1      -1.783   3.811  23.242  1.00  0.00    -0.268 OA
HETATM    7  C11 UNL     1      -2.706   1.996  22.204  1.00  0.00     0.084 A 
HETATM    8  C12 UNL     1      -2.702   0.609  22.015  1.00  0.00    -0.011 A 
ENDROOT
BRANCH   1   9
HETATM    9  C7  UNL     1      -1.684  -1.620  22.534  1.00  0.00     0.295 C 
HETATM   10  O3  UNL     1      -0.942  -2.063  21.578  1.00  0.00    -0.259 OA
BRANCH   9  11
HETATM   11  O2  UNL     1      -2.273  -2.597  23.275  1.00  0.00    -0.308 OA
BRANCH  11  12
HETATM   12  C6  UNL     1      -2.783  -2.546  24.560  1.00  0.00     0.281 C 
BRANCH  12  13
HETATM   13  C5  UNL     1      -1.818  -2.276  25.633  1.00  0.00     0.242 C 
HETATM   14  N1  UNL     1      -1.994  -1.215  26.543  1.00  0.00    -0.351 N 
ATOM     15  H1  UNL     1      -2.815  -0.617  26.452  1.00  0.00     0.163 HD
HETATM   16  O1  UNL     1      -0.785  -3.004  25.773  1.00  0.00    -0.271 OA
BRANCH  14  17
HETATM   17  C2  UNL     1      -1.042  -0.947  27.603  1.00  0.00     0.022 C 
HETATM   18  C1  UNL     1      -0.914  -2.107  28.548  1.00  0.00     0.037 C 
HETATM   19  C3  UNL     1      -1.529   0.242  28.443  1.00  0.00     0.037 C 
HETATM   20  C4  UNL     1       0.284  -0.533  27.011  1.00  0.00     0.037 C 
ENDBRANCH  14  17
ENDBRANCH  12  13
ENDBRANCH  11  12
ENDBRANCH   9  11
ENDBRANCH   1   9
BRANCH   8  21
HETATM   21  C13 UNL     1      -3.631  -0.090  21.105  1.00  0.00     0.218 C 
BRANCH  21  22
HETATM   22  O5  UNL     1      -4.501   0.722  20.367  1.00  0.00    -0.315 OA
BRANCH  22  23
HETATM   23  C14 UNL     1      -4.624   0.712  19.009  1.00  0.00     0.282 C 
HETATM   24  O6  UNL     1      -5.526   0.009  18.468  1.00  0.00    -0.263 OA
BRANCH  23  25
HETATM   25  C15 UNL     1      -3.751   1.490  18.090  1.00  0.00     0.117 C 
HETATM   26  C16 UNL     1      -3.318   2.801  18.695  1.00  0.00     0.043 C 
HETATM   27  C17 UNL     1      -2.576   0.709  17.592  1.00  0.00     0.043 C 
HETATM   28 CL1  UNL     1      -4.766   1.882  16.659  1.00  0.00    -0.109 Cl
ENDBRANCH  23  25
ENDBRANCH  22  23
ENDBRANCH  21  22
ENDBRANCH   8  21
TORSDOF 9
ENDMDL
