MODEL 1
REMARK VINA RESULT: -6.207380806      0.000      0.000
REMARK  9 active torsions:
REMARK  status: ('A' for Active; 'I' for Inactive)
REMARK    1  A    between atoms: N1_1  and  C1_4 
REMARK    2  A    between atoms: N3_8  and  C3_9 
REMARK    3  A    between atoms: C3_9  and  C4_10 
REMARK    4  A    between atoms: C4_10  and  C5_11 
REMARK    5  A    between atoms: C5_11  and  C6_12 
REMARK    6  A    between atoms: C6_12  and  N4_13 
REMARK    7  A    between atoms: C7_17  and  N5_18 
REMARK    8  A    between atoms: N5_18  and  N6_20 
REMARK    9  A    between atoms: C8_26  and  N9_27 
ROOT
HETATM    1  C1  UNL     1      22.529  -8.413  16.324  1.00  0.00     0.705 A 
HETATM    2  N2  UNL     1      23.754  -7.949  16.019  1.00  0.00    -0.019 N 
ATOM      3  H2  UNL     1      23.989  -6.987  16.265  1.00  0.00     0.203 HD
HETATM    4  C2  UNL     1      24.683  -8.702  15.402  1.00  0.00     0.750 A 
HETATM    5  N3  UNL     1      25.946  -8.476  15.000  1.00  0.00    -0.009 N 
HETATM    6  C7  UNL     1      26.396  -9.607  14.433  1.00  0.00     0.729 A 
HETATM    7  N7  UNL     1      25.395 -10.501  14.501  1.00  0.00    -0.094 N 
ATOM      8  H7  UNL     1      25.444 -11.457  14.147  1.00  0.00     0.207 HD
HETATM    9  N8  UNL     1      24.331  -9.965  15.094  1.00  0.00     0.106 N 
HETATM   10  C8  UNL     1      23.118 -10.472  15.379  1.00  0.00     0.727 A 
HETATM   11  N10 UNL     1      22.222  -9.684  15.995  1.00  0.00    -0.020 N 
ATOM     12  H10 UNL     1      21.298 -10.052  16.217  1.00  0.00     0.203 HD
ENDROOT
BRANCH   5  13
HETATM   13  C3  UNL     1      26.717  -7.256  15.133  1.00  0.00     0.167 C 
BRANCH  13  14
HETATM   14  C4  UNL     1      27.537  -7.242  16.398  1.00  0.00     0.023 C 
BRANCH  14  15
HETATM   15  C5  UNL     1      27.035  -6.096  17.251  1.00  0.00     0.029 C 
BRANCH  15  16
HETATM   16  C6  UNL     1      28.170  -5.355  17.919  1.00  0.00     0.229 C 
BRANCH  16  17
HETATM   17  N4  UNL     1      27.647  -4.149  18.508  1.00  0.00    -0.079 N 
ATOM     18  H43 UNL     1      27.435  -4.258  19.499  1.00  0.00     0.274 HD
ATOM     19  H42 UNL     1      28.355  -3.418  18.596  1.00  0.00     0.274 HD
ATOM     20  H41 UNL     1      26.838  -3.846  17.966  1.00  0.00     0.274 HD
ENDBRANCH  16  17
ENDBRANCH  15  16
ENDBRANCH  14  15
ENDBRANCH  13  14
ENDBRANCH   5  13
BRANCH   6  21
HETATM   21  N5  UNL     1      27.565  -9.831  13.909  1.00  0.00    -0.137 N 
ATOM     22  H5  UNL     1      27.688  -9.707  12.904  1.00  0.00     0.205 HD
BRANCH  21  23
HETATM   23  N6  UNL     1      28.648 -10.230  14.670  1.00  0.00    -0.331 N 
ATOM     24  H62 UNL     1      28.468 -10.575  15.613  1.00  0.00     0.177 HD
ATOM     25  H61 UNL     1      29.605 -10.189  14.318  1.00  0.00     0.177 HD
ENDBRANCH  21  23
ENDBRANCH   6  21
BRANCH   1  26
HETATM   26  N1  UNL     1      21.711  -7.629  16.910  1.00  0.00    -0.234 N 
ATOM     27  H12 UNL     1      22.006  -6.910  17.570  1.00  0.00     0.174 HD
ATOM     28  H11 UNL     1      20.716  -7.726  16.709  1.00  0.00     0.174 HD
ENDBRANCH   1  26
BRANCH  10  29
HETATM   29  N9  UNL     1      22.767 -11.676  15.091  1.00  0.00    -0.232 N 
ATOM     30  H92 UNL     1      22.854 -11.981  14.122  1.00  0.00     0.174 HD
ATOM     31  H91 UNL     1      22.410 -12.337  15.781  1.00  0.00     0.174 HD
ENDBRANCH  10  29
TORSDOF 9
ENDMDL
MODEL 2
REMARK VINA RESULT: -5.112559259      2.012      4.082
REMARK  9 active torsions:
REMARK  status: ('A' for Active; 'I' for Inactive)
REMARK    1  A    between atoms: N1_1  and  C1_4 
REMARK    2  A    between atoms: N3_8  and  C3_9 
REMARK    3  A    between atoms: C3_9  and  C4_10 
REMARK    4  A    between atoms: C4_10  and  C5_11 
REMARK    5  A    between atoms: C5_11  and  C6_12 
REMARK    6  A    between atoms: C6_12  and  N4_13 
REMARK    7  A    between atoms: C7_17  and  N5_18 
REMARK    8  A    between atoms: N5_18  and  N6_20 
REMARK    9  A    between atoms: C8_26  and  N9_27 
ROOT
HETATM    1  C1  UNL     1      22.787 -11.018  15.316  1.00  0.00     0.705 A 
HETATM    2  N2  UNL     1      24.084 -10.913  14.978  1.00  0.00    -0.019 N 
ATOM      3  H2  UNL     1      24.543 -11.713  14.541  1.00  0.00     0.203 HD
HETATM    4  C2  UNL     1      24.802  -9.795  15.192  1.00  0.00     0.750 A 
HETATM    5  N3  UNL     1      26.078  -9.449  14.951  1.00  0.00    -0.009 N 
HETATM    6  C7  UNL     1      26.242  -8.188  15.381  1.00  0.00     0.729 A 
HETATM    7  N7  UNL     1      25.059  -7.790  15.878  1.00  0.00    -0.094 N 
ATOM      8  H7  UNL     1      24.877  -6.871  16.281  1.00  0.00     0.207 HD
HETATM    9  N8  UNL     1      24.157  -8.764  15.771  1.00  0.00     0.106 N 
HETATM   10  C8  UNL     1      22.862  -8.824  16.126  1.00  0.00     0.727 A 
HETATM   11  N10 UNL     1      22.184  -9.959  15.894  1.00  0.00    -0.020 N 
ATOM     12  H10 UNL     1      21.202 -10.022  16.158  1.00  0.00     0.203 HD
ENDROOT
BRANCH   5  13
HETATM   13  C3  UNL     1      27.118 -10.255  14.342  1.00  0.00     0.167 C 
BRANCH  13  14
HETATM   14  C4  UNL     1      28.256 -10.522  15.294  1.00  0.00     0.023 C 
BRANCH  14  15
HETATM   15  C5  UNL     1      27.735 -11.443  16.377  1.00  0.00     0.029 C 
BRANCH  15  16
HETATM   16  C6  UNL     1      28.631 -12.643  16.573  1.00  0.00     0.229 C 
BRANCH  16  17
HETATM   17  N4  UNL     1      27.873 -13.682  17.223  1.00  0.00    -0.079 N 
ATOM     18  H43 UNL     1      26.889 -13.673  16.956  1.00  0.00     0.274 HD
ATOM     19  H42 UNL     1      28.105 -14.612  16.874  1.00  0.00     0.274 HD
ATOM     20  H41 UNL     1      28.005 -13.599  18.231  1.00  0.00     0.274 HD
ENDBRANCH  16  17
ENDBRANCH  15  16
ENDBRANCH  14  15
ENDBRANCH  13  14
ENDBRANCH   5  13
BRANCH   6  21
HETATM   21  N5  UNL     1      27.321  -7.461  15.343  1.00  0.00    -0.137 N 
ATOM     22  H5  UNL     1      27.669  -7.143  14.439  1.00  0.00     0.205 HD
BRANCH  21  23
HETATM   23  N6  UNL     1      28.010  -7.106  16.488  1.00  0.00    -0.331 N 
ATOM     24  H62 UNL     1      28.131  -7.815  17.212  1.00  0.00     0.177 HD
ATOM     25  H61 UNL     1      28.392  -6.170  16.623  1.00  0.00     0.177 HD
ENDBRANCH  21  23
ENDBRANCH   6  21
BRANCH   1  26
HETATM   26  N1  UNL     1      22.184 -12.116  15.075  1.00  0.00    -0.234 N 
ATOM     27  H12 UNL     1      21.898 -12.400  14.139  1.00  0.00     0.174 HD
ATOM     28  H11 UNL     1      21.976 -12.737  15.856  1.00  0.00     0.174 HD
ENDBRANCH   1  26
BRANCH  10  29
HETATM   29  N9  UNL     1      22.233  -7.847  16.681  1.00  0.00    -0.232 N 
ATOM     30  H92 UNL     1      22.602  -6.906  16.552  1.00  0.00     0.174 HD
ATOM     31  H91 UNL     1      21.388  -7.968  17.238  1.00  0.00     0.174 HD
ENDBRANCH  10  29
TORSDOF 9
ENDMDL
MODEL 3
REMARK VINA RESULT: -5.055670453      2.676      4.614
REMARK  9 active torsions:
REMARK  status: ('A' for Active; 'I' for Inactive)
REMARK    1  A    between atoms: N1_1  and  C1_4 
REMARK    2  A    between atoms: N3_8  and  C3_9 
REMARK    3  A    between atoms: C3_9  and  C4_10 
REMARK    4  A    between atoms: C4_10  and  C5_11 
REMARK    5  A    between atoms: C5_11  and  C6_12 
REMARK    6  A    between atoms: C6_12  and  N4_13 
REMARK    7  A    between atoms: C7_17  and  N5_18 
REMARK    8  A    between atoms: N5_18  and  N6_20 
REMARK    9  A    between atoms: C8_26  and  N9_27 
ROOT
HETATM    1  C1  UNL     1      23.782  -9.694  15.087  1.00  0.00     0.705 A 
HETATM    2  N2  UNL     1      24.977 -10.304  15.176  1.00  0.00    -0.019 N 
ATOM      3  H2  UNL     1      25.005 -11.288  15.447  1.00  0.00     0.203 HD
HETATM    4  C2  UNL     1      26.136  -9.670  14.923  1.00  0.00     0.750 A 
HETATM    5  N3  UNL     1      27.426 -10.050  14.941  1.00  0.00    -0.009 N 
HETATM    6  C7  UNL     1      28.165  -8.983  14.596  1.00  0.00     0.729 A 
HETATM    7  N7  UNL     1      27.307  -7.972  14.375  1.00  0.00    -0.094 N 
ATOM      8  H7  UNL     1      27.579  -7.029  14.096  1.00  0.00     0.207 HD
HETATM    9  N8  UNL     1      26.053  -8.374  14.570  1.00  0.00     0.106 N 
HETATM   10  C8  UNL     1      24.881  -7.722  14.468  1.00  0.00     0.727 A 
HETATM   11  N10 UNL     1      23.749  -8.393  14.731  1.00  0.00    -0.020 N 
ATOM     12  H10 UNL     1      22.852  -7.914  14.660  1.00  0.00     0.203 HD
ENDROOT
BRANCH   5  13
HETATM   13  C3  UNL     1      27.965 -11.356  15.266  1.00  0.00     0.167 C 
BRANCH  13  14
HETATM   14  C4  UNL     1      28.079 -11.565  16.755  1.00  0.00     0.023 C 
BRANCH  14  15
HETATM   15  C5  UNL     1      28.191 -13.056  16.996  1.00  0.00     0.029 C 
BRANCH  15  16
HETATM   16  C6  UNL     1      29.515 -13.604  16.518  1.00  0.00     0.229 C 
BRANCH  16  17
HETATM   17  N4  UNL     1      30.121 -14.347  17.593  1.00  0.00    -0.079 N 
ATOM     18  H43 UNL     1      29.770 -15.302  17.654  1.00  0.00     0.274 HD
ATOM     19  H42 UNL     1      31.101 -14.568  17.412  1.00  0.00     0.274 HD
ATOM     20  H41 UNL     1      29.992 -13.827  18.461  1.00  0.00     0.274 HD
ENDBRANCH  16  17
ENDBRANCH  15  16
ENDBRANCH  14  15
ENDBRANCH  13  14
ENDBRANCH   5  13
BRANCH   6  21
HETATM   21  N5  UNL     1      29.459  -8.904  14.487  1.00  0.00    -0.137 N 
ATOM     22  H5  UNL     1      30.032  -9.658  14.867  1.00  0.00     0.205 HD
BRANCH  21  23
HETATM   23  N6  UNL     1      30.082  -7.833  13.874  1.00  0.00    -0.331 N 
ATOM     24  H62 UNL     1      30.937  -8.014  13.349  1.00  0.00     0.177 HD
ATOM     25  H61 UNL     1      29.712  -6.884  13.933  1.00  0.00     0.177 HD
ENDBRANCH  21  23
ENDBRANCH   6  21
BRANCH   1  26
HETATM   26  N1  UNL     1      22.733 -10.371  15.346  1.00  0.00    -0.234 N 
ATOM     27  H12 UNL     1      22.668 -11.019  16.131  1.00  0.00     0.174 HD
ATOM     28  H11 UNL     1      21.922 -10.261  14.738  1.00  0.00     0.174 HD
ENDBRANCH   1  26
BRANCH  10  29
HETATM   29  N9  UNL     1      24.786  -6.484  14.133  1.00  0.00    -0.232 N 
ATOM     30  H92 UNL     1      24.718  -6.260  13.140  1.00  0.00     0.174 HD
ATOM     31  H91 UNL     1      24.773  -5.719  14.807  1.00  0.00     0.174 HD
ENDBRANCH  10  29
TORSDOF 9
ENDMDL
MODEL 4
REMARK VINA RESULT: -4.843926968      2.756      6.049
REMARK  9 active torsions:
REMARK  status: ('A' for Active; 'I' for Inactive)
REMARK    1  A    between atoms: N1_1  and  C1_4 
REMARK    2  A    between atoms: N3_8  and  C3_9 
REMARK    3  A    between atoms: C3_9  and  C4_10 
REMARK    4  A    between atoms: C4_10  and  C5_11 
REMARK    5  A    between atoms: C5_11  and  C6_12 
REMARK    6  A    between atoms: C6_12  and  N4_13 
REMARK    7  A    between atoms: C7_17  and  N5_18 
REMARK    8  A    between atoms: N5_18  and  N6_20 
REMARK    9  A    between atoms: C8_26  and  N9_27 
ROOT
HETATM    1  C1  UNL     1      27.795 -10.973  16.166  1.00  0.00     0.705 A 
HETATM    2  N2  UNL     1      26.487 -10.751  15.946  1.00  0.00    -0.019 N 
ATOM      3  H2  UNL     1      25.806 -11.373  16.382  1.00  0.00     0.203 HD
HETATM    4  C2  UNL     1      26.042  -9.744  15.173  1.00  0.00     0.750 A 
HETATM    5  N3  UNL     1      24.818  -9.324  14.808  1.00  0.00    -0.009 N 
HETATM    6  C7  UNL     1      24.980  -8.254  14.014  1.00  0.00     0.729 A 
HETATM    7  N7  UNL     1      26.303  -8.043  13.910  1.00  0.00    -0.094 N 
ATOM      8  H7  UNL     1      26.732  -7.294  13.367  1.00  0.00     0.207 HD
HETATM    9  N8  UNL     1      26.976  -8.949  14.617  1.00  0.00     0.106 N 
HETATM   10  C8  UNL     1      28.294  -9.132  14.809  1.00  0.00     0.727 A 
HETATM   11  N10 UNL     1      28.694 -10.150  15.587  1.00  0.00    -0.020 N 
ATOM     12  H10 UNL     1      29.690 -10.304  15.742  1.00  0.00     0.203 HD
ENDROOT
BRANCH   5  13
HETATM   13  C3  UNL     1      23.536  -9.890  15.179  1.00  0.00     0.167 C 
BRANCH  13  14
HETATM   14  C4  UNL     1      23.565 -11.398  15.184  1.00  0.00     0.023 C 
BRANCH  14  15
HETATM   15  C5  UNL     1      22.129 -11.879  15.188  1.00  0.00     0.029 C 
BRANCH  15  16
HETATM   16  C6  UNL     1      22.039 -13.374  15.387  1.00  0.00     0.229 C 
BRANCH  16  17
HETATM   17  N4  UNL     1      22.698 -13.714  16.622  1.00  0.00    -0.079 N 
ATOM     18  H43 UNL     1      22.649 -14.711  16.829  1.00  0.00     0.274 HD
ATOM     19  H42 UNL     1      23.713 -13.633  16.559  1.00  0.00     0.274 HD
ATOM     20  H41 UNL     1      22.306 -13.140  17.369  1.00  0.00     0.274 HD
ENDBRANCH  16  17
ENDBRANCH  15  16
ENDBRANCH  14  15
ENDBRANCH  13  14
ENDBRANCH   5  13
BRANCH   6  21
HETATM   21  N5  UNL     1      24.060  -7.536  13.438  1.00  0.00    -0.137 N 
ATOM     22  H5  UNL     1      23.790  -7.756  12.480  1.00  0.00     0.205 HD
BRANCH  21  23
HETATM   23  N6  UNL     1      23.436  -6.484  14.084  1.00  0.00    -0.331 N 
ATOM     24  H62 UNL     1      23.057  -5.729  13.512  1.00  0.00     0.177 HD
ATOM     25  H61 UNL     1      23.348  -6.446  15.100  1.00  0.00     0.177 HD
ENDBRANCH  21  23
ENDBRANCH   6  21
BRANCH   1  26
HETATM   26  N1  UNL     1      28.129 -11.952  16.913  1.00  0.00    -0.234 N 
ATOM     27  H12 UNL     1      27.490 -12.385  17.579  1.00  0.00     0.174 HD
ATOM     28  H11 UNL     1      29.078 -12.317  16.840  1.00  0.00     0.174 HD
ENDBRANCH   1  26
BRANCH  10  29
HETATM   29  N9  UNL     1      29.197  -8.382  14.284  1.00  0.00    -0.232 N 
ATOM     30  H92 UNL     1      29.197  -8.269  13.271  1.00  0.00     0.174 HD
ATOM     31  H91 UNL     1      29.909  -7.895  14.829  1.00  0.00     0.174 HD
ENDBRANCH  10  29
TORSDOF 9
ENDMDL
MODEL 5
REMARK VINA RESULT: -4.757877269      1.907      6.354
REMARK  9 active torsions:
REMARK  status: ('A' for Active; 'I' for Inactive)
REMARK    1  A    between atoms: N1_1  and  C1_4 
REMARK    2  A    between atoms: N3_8  and  C3_9 
REMARK    3  A    between atoms: C3_9  and  C4_10 
REMARK    4  A    between atoms: C4_10  and  C5_11 
REMARK    5  A    between atoms: C5_11  and  C6_12 
REMARK    6  A    between atoms: C6_12  and  N4_13 
REMARK    7  A    between atoms: C7_17  and  N5_18 
REMARK    8  A    between atoms: N5_18  and  N6_20 
REMARK    9  A    between atoms: C8_26  and  N9_27 
ROOT
HETATM    1  C1  UNL     1      27.782 -10.578  15.087  1.00  0.00     0.705 A 
HETATM    2  N2  UNL     1      26.447 -10.633  14.939  1.00  0.00    -0.019 N 
ATOM      3  H2  UNL     1      26.030 -11.490  14.575  1.00  0.00     0.203 HD
HETATM    4  C2  UNL     1      25.639  -9.604  15.251  1.00  0.00     0.750 A 
HETATM    5  N3  UNL     1      24.309  -9.417  15.195  1.00  0.00    -0.009 N 
HETATM    6  C7  UNL     1      24.058  -8.175  15.640  1.00  0.00     0.729 A 
HETATM    7  N7  UNL     1      25.244  -7.629  15.958  1.00  0.00    -0.094 N 
ATOM      8  H7  UNL     1      25.370  -6.686  16.326  1.00  0.00     0.207 HD
HETATM    9  N8  UNL     1      26.231  -8.492  15.727  1.00  0.00     0.106 N 
HETATM   10  C8  UNL     1      27.562  -8.391  15.892  1.00  0.00     0.727 A 
HETATM   11  N10 UNL     1      28.330  -9.442  15.567  1.00  0.00    -0.020 N 
ATOM     12  H10 UNL     1      29.341  -9.382  15.685  1.00  0.00     0.203 HD
ENDROOT
BRANCH   5  13
HETATM   13  C3  UNL     1      23.297 -10.352  14.745  1.00  0.00     0.167 C 
BRANCH  13  14
HETATM   14  C4  UNL     1      22.754 -11.185  15.880  1.00  0.00     0.023 C 
BRANCH  14  15
HETATM   15  C5  UNL     1      22.305 -12.508  15.297  1.00  0.00     0.029 C 
BRANCH  15  16
HETATM   16  C6  UNL     1      22.524 -13.650  16.262  1.00  0.00     0.229 C 
BRANCH  16  17
HETATM   17  N4  UNL     1      21.535 -14.665  16.004  1.00  0.00    -0.079 N 
ATOM     18  H43 UNL     1      20.582 -14.321  16.121  1.00  0.00     0.274 HD
ATOM     19  H42 UNL     1      21.476 -14.912  15.016  1.00  0.00     0.274 HD
ATOM     20  H41 UNL     1      21.734 -15.471  16.597  1.00  0.00     0.274 HD
ENDBRANCH  16  17
ENDBRANCH  15  16
ENDBRANCH  14  15
ENDBRANCH  13  14
ENDBRANCH   5  13
BRANCH   6  21
HETATM   21  N5  UNL     1      22.906  -7.582  15.754  1.00  0.00    -0.137 N 
ATOM     22  H5  UNL     1      22.586  -6.975  14.999  1.00  0.00     0.205 HD
BRANCH  21  23
HETATM   23  N6  UNL     1      22.100  -7.747  16.866  1.00  0.00    -0.331 N 
ATOM     24  H62 UNL     1      22.521  -7.612  17.785  1.00  0.00     0.177 HD
ATOM     25  H61 UNL     1      21.114  -7.997  16.789  1.00  0.00     0.177 HD
ENDBRANCH  21  23
ENDBRANCH   6  21
BRANCH   1  26
HETATM   26  N1  UNL     1      28.473 -11.601  14.766  1.00  0.00    -0.234 N 
ATOM     27  H12 UNL     1      28.357 -12.512  15.211  1.00  0.00     0.174 HD
ATOM     28  H11 UNL     1      29.173 -11.504  14.032  1.00  0.00     0.174 HD
ENDBRANCH   1  26
BRANCH  10  29
HETATM   29  N9  UNL     1      28.141  -7.336  16.345  1.00  0.00    -0.232 N 
ATOM     30  H92 UNL     1      27.562  -6.625  16.790  1.00  0.00     0.174 HD
ATOM     31  H91 UNL     1      29.147  -7.176  16.282  1.00  0.00     0.174 HD
ENDBRANCH  10  29
TORSDOF 9
ENDMDL
