MODEL 1
REMARK VINA RESULT: -6.233147820      0.000      0.000
REMARK  8 active torsions:
REMARK  status: ('A' for Active; 'I' for Inactive)
REMARK    1  A    between atoms: N1_1  and  C1_4 
REMARK    2  A    between atoms: C2_7  and  N3_8 
REMARK    3  A    between atoms: N3_8  and  C3_10 
REMARK    4  A    between atoms: C3_10  and  N4_11 
REMARK    5  A    between atoms: C4_17  and  N6_18 
REMARK    6  A    between atoms: N6_18  and  C5_20 
REMARK    7  A    between atoms: C7_22  and  O1_23 
REMARK    8  A    between atoms: C8_25  and  O2_26 
ROOT
HETATM    1  C1  UNL     1      22.728  -8.522  16.177  1.00  0.00     0.705 A 
HETATM    2  N2  UNL     1      22.287  -9.773  16.096  1.00  0.00    -0.022 N 
ATOM      3  H2  UNL     1      21.433 -10.051  16.580  1.00  0.00     0.203 HD
HETATM    4  C2  UNL     1      22.972 -10.662  15.377  1.00  0.00     0.708 A 
HETATM    5  N5  UNL     1      24.085 -10.269  14.753  1.00  0.00    -0.021 N 
ATOM      6  H5  UNL     1      24.599 -10.959  14.205  1.00  0.00     0.203 HD
HETATM    7  C4  UNL     1      24.566  -9.014  14.808  1.00  0.00     0.707 A 
HETATM    8  N7  UNL     1      23.843  -8.152  15.547  1.00  0.00    -0.022 N 
ATOM      9  H7  UNL     1      24.157  -7.185  15.628  1.00  0.00     0.203 HD
ENDROOT
BRANCH   7  10
HETATM   10  N6  UNL     1      25.748  -8.580  14.152  1.00  0.00    -0.220 N 
ATOM     11  H6  UNL     1      25.669  -8.289  13.178  1.00  0.00     0.178 HD
BRANCH  10  12
HETATM   12  C5  UNL     1      27.042  -8.520  14.760  1.00  0.00     0.104 C 
HETATM   13  C6  UNL     1      27.057  -9.002  16.179  1.00  0.00     0.060 C 
HETATM   14  C7  UNL     1      27.427 -10.470  16.157  1.00  0.00     0.148 C 
HETATM   15  C8  UNL     1      28.330 -10.565  14.971  1.00  0.00     0.148 C 
HETATM   16  C9  UNL     1      28.024  -9.416  14.067  1.00  0.00     0.060 C 
BRANCH  14  17
HETATM   17  O1  UNL     1      26.323 -11.301  16.083  1.00  0.00    -0.393 OA
ATOM     18  H1  UNL     1      26.551 -12.222  16.125  1.00  0.00     0.210 HD
ENDBRANCH  14  17
BRANCH  15  19
HETATM   19  O2  UNL     1      29.670 -10.493  15.374  1.00  0.00    -0.393 OA
ATOM     20  H2  UNL     1      29.800 -10.988  16.175  1.00  0.00     0.210 HD
ENDBRANCH  15  19
ENDBRANCH  10  12
ENDBRANCH   7  10
BRANCH   4  21
HETATM   21  N3  UNL     1      22.542 -12.000  15.263  1.00  0.00    -0.201 N 
ATOM     22  H3  UNL     1      22.073 -12.271  14.399  1.00  0.00     0.179 HD
BRANCH  21  23
HETATM   23  C3  UNL     1      22.713 -13.004  16.263  1.00  0.00     0.368 C 
BRANCH  23  24
HETATM   24  N4  UNL     1      22.006 -14.229  15.990  1.00  0.00    -0.063 N 
ATOM     25  H43 UNL     1      22.379 -14.991  16.555  1.00  0.00     0.276 HD
ATOM     26  H42 UNL     1      21.057 -14.185  16.364  1.00  0.00     0.276 HD
ATOM     27  H41 UNL     1      21.990 -14.488  15.004  1.00  0.00     0.276 HD
ENDBRANCH  23  24
ENDBRANCH  21  23
ENDBRANCH   4  21
BRANCH   1  28
HETATM   28  N1  UNL     1      22.076  -7.659  16.869  1.00  0.00    -0.234 N 
ATOM     29  H12 UNL     1      21.105  -7.845  17.119  1.00  0.00     0.174 HD
ATOM     30  H11 UNL     1      22.532  -6.795  17.163  1.00  0.00     0.174 HD
ENDBRANCH   1  28
TORSDOF 8
ENDMDL
MODEL 2
REMARK VINA RESULT: -6.173436008      1.033      1.248
REMARK  8 active torsions:
REMARK  status: ('A' for Active; 'I' for Inactive)
REMARK    1  A    between atoms: N1_1  and  C1_4 
REMARK    2  A    between atoms: C2_7  and  N3_8 
REMARK    3  A    between atoms: N3_8  and  C3_10 
REMARK    4  A    between atoms: C3_10  and  N4_11 
REMARK    5  A    between atoms: C4_17  and  N6_18 
REMARK    6  A    between atoms: N6_18  and  C5_20 
REMARK    7  A    between atoms: C7_22  and  O1_23 
REMARK    8  A    between atoms: C8_25  and  O2_26 
ROOT
HETATM    1  C1  UNL     1      22.745  -8.596  16.163  1.00  0.00     0.705 A 
HETATM    2  N2  UNL     1      22.325  -9.857  16.141  1.00  0.00    -0.022 N 
ATOM      3  H2  UNL     1      21.527 -10.144  16.707  1.00  0.00     0.203 HD
HETATM    4  C2  UNL     1      22.956 -10.743  15.370  1.00  0.00     0.708 A 
HETATM    5  N5  UNL     1      23.996 -10.338  14.637  1.00  0.00    -0.021 N 
ATOM      6  H5  UNL     1      24.470 -11.025  14.051  1.00  0.00     0.203 HD
HETATM    7  C4  UNL     1      24.453  -9.072  14.630  1.00  0.00     0.707 A 
HETATM    8  N7  UNL     1      23.786  -8.213  15.424  1.00  0.00    -0.022 N 
ATOM      9  H7  UNL     1      24.087  -7.240  15.461  1.00  0.00     0.203 HD
ENDROOT
BRANCH   7  10
HETATM   10  N6  UNL     1      25.558  -8.625  13.858  1.00  0.00    -0.220 N 
ATOM     11  H6  UNL     1      25.371  -7.966  13.101  1.00  0.00     0.178 HD
BRANCH  10  12
HETATM   12  C5  UNL     1      26.914  -9.030  14.064  1.00  0.00     0.104 C 
HETATM   13  C6  UNL     1      27.721  -8.037  14.843  1.00  0.00     0.060 C 
HETATM   14  C7  UNL     1      27.657  -8.442  16.301  1.00  0.00     0.148 C 
HETATM   15  C8  UNL     1      27.550  -9.930  16.226  1.00  0.00     0.148 C 
HETATM   16  C9  UNL     1      27.002 -10.284  14.881  1.00  0.00     0.060 C 
BRANCH  14  17
HETATM   17  O1  UNL     1      26.610  -7.843  16.979  1.00  0.00    -0.393 OA
ATOM     18  H1  UNL     1      26.903  -7.288  17.692  1.00  0.00     0.210 HD
ENDBRANCH  14  17
BRANCH  15  19
HETATM   19  O2  UNL     1      28.814 -10.516  16.379  1.00  0.00    -0.393 OA
ATOM     20  H2  UNL     1      28.953 -10.766  17.285  1.00  0.00     0.210 HD
ENDBRANCH  15  19
ENDBRANCH  10  12
ENDBRANCH   7  10
BRANCH   4  21
HETATM   21  N3  UNL     1      22.546 -12.090  15.315  1.00  0.00    -0.201 N 
ATOM     22  H3  UNL     1      22.059 -12.399  14.474  1.00  0.00     0.179 HD
BRANCH  21  23
HETATM   23  C3  UNL     1      22.759 -13.055  16.345  1.00  0.00     0.368 C 
BRANCH  23  24
HETATM   24  N4  UNL     1      22.066 -14.300  16.134  1.00  0.00    -0.063 N 
ATOM     25  H43 UNL     1      21.222 -14.342  16.707  1.00  0.00     0.276 HD
ATOM     26  H42 UNL     1      21.645 -14.322  15.205  1.00  0.00     0.276 HD
ATOM     27  H41 UNL     1      22.642 -15.127  16.285  1.00  0.00     0.276 HD
ENDBRANCH  23  24
ENDBRANCH  21  23
ENDBRANCH   4  21
BRANCH   1  28
HETATM   28  N1  UNL     1      22.144  -7.736  16.903  1.00  0.00    -0.234 N 
ATOM     29  H12 UNL     1      21.325  -7.247  16.541  1.00  0.00     0.174 HD
ATOM     30  H11 UNL     1      22.489  -7.548  17.844  1.00  0.00     0.174 HD
ENDBRANCH   1  28
TORSDOF 8
ENDMDL
MODEL 3
REMARK VINA RESULT: -5.778067352      1.480      2.040
REMARK  8 active torsions:
REMARK  status: ('A' for Active; 'I' for Inactive)
REMARK    1  A    between atoms: N1_1  and  C1_4 
REMARK    2  A    between atoms: C2_7  and  N3_8 
REMARK    3  A    between atoms: N3_8  and  C3_10 
REMARK    4  A    between atoms: C3_10  and  N4_11 
REMARK    5  A    between atoms: C4_17  and  N6_18 
REMARK    6  A    between atoms: N6_18  and  C5_20 
REMARK    7  A    between atoms: C7_22  and  O1_23 
REMARK    8  A    between atoms: C8_25  and  O2_26 
ROOT
HETATM    1  C1  UNL     1      24.357  -7.659  14.216  1.00  0.00     0.705 A 
HETATM    2  N2  UNL     1      23.504  -8.458  14.848  1.00  0.00    -0.022 N 
ATOM      3  H2  UNL     1      22.615  -8.094  15.192  1.00  0.00     0.203 HD
HETATM    4  C2  UNL     1      23.820  -9.741  15.029  1.00  0.00     0.708 A 
HETATM    5  N5  UNL     1      24.989 -10.189  14.566  1.00  0.00    -0.021 N 
ATOM      6  H5  UNL     1      25.218 -11.173  14.710  1.00  0.00     0.203 HD
HETATM    7  C4  UNL     1      25.881  -9.416  13.921  1.00  0.00     0.707 A 
HETATM    8  N7  UNL     1      25.520  -8.128  13.763  1.00  0.00    -0.022 N 
ATOM      9  H7  UNL     1      26.155  -7.492  13.283  1.00  0.00     0.203 HD
ENDROOT
BRANCH   7  10
HETATM   10  N6  UNL     1      27.128  -9.877  13.424  1.00  0.00    -0.220 N 
ATOM     11  H6  UNL     1      27.202 -10.053  12.422  1.00  0.00     0.178 HD
BRANCH  10  12
HETATM   12  C5  UNL     1      28.289 -10.111  14.227  1.00  0.00     0.104 C 
HETATM   13  C6  UNL     1      28.584  -9.000  15.188  1.00  0.00     0.060 C 
HETATM   14  C7  UNL     1      27.927  -9.352  16.506  1.00  0.00     0.148 C 
HETATM   15  C8  UNL     1      27.997 -10.844  16.521  1.00  0.00     0.148 C 
HETATM   16  C9  UNL     1      28.123 -11.312  15.108  1.00  0.00     0.060 C 
BRANCH  14  17
HETATM   17  O1  UNL     1      26.641  -8.854  16.615  1.00  0.00    -0.393 OA
ATOM     18  H1  UNL     1      26.312  -8.873  17.505  1.00  0.00     0.210 HD
ENDBRANCH  14  17
BRANCH  15  19
HETATM   19  O2  UNL     1      29.113 -11.271  17.252  1.00  0.00    -0.393 OA
ATOM     20  H2  UNL     1      29.360 -12.151  16.993  1.00  0.00     0.210 HD
ENDBRANCH  15  19
ENDBRANCH  10  12
ENDBRANCH   7  10
BRANCH   4  21
HETATM   21  N3  UNL     1      22.946 -10.624  15.694  1.00  0.00    -0.201 N 
ATOM     22  H3  UNL     1      22.588 -10.335  16.604  1.00  0.00     0.179 HD
BRANCH  21  23
HETATM   23  C3  UNL     1      22.523 -11.892  15.193  1.00  0.00     0.368 C 
BRANCH  23  24
HETATM   24  N4  UNL     1      22.642 -12.967  16.143  1.00  0.00    -0.063 N 
ATOM     25  H43 UNL     1      21.738 -13.168  16.571  1.00  0.00     0.276 HD
ATOM     26  H42 UNL     1      22.806 -13.852  15.663  1.00  0.00     0.276 HD
ATOM     27  H41 UNL     1      23.351 -12.812  16.859  1.00  0.00     0.276 HD
ENDBRANCH  23  24
ENDBRANCH  21  23
ENDBRANCH   4  21
BRANCH   1  28
HETATM   28  N1  UNL     1      24.062  -6.422  14.039  1.00  0.00    -0.234 N 
ATOM     29  H12 UNL     1      23.084  -6.132  14.051  1.00  0.00     0.174 HD
ATOM     30  H11 UNL     1      24.805  -5.741  13.887  1.00  0.00     0.174 HD
ENDBRANCH   1  28
TORSDOF 8
ENDMDL
MODEL 4
REMARK VINA RESULT: -5.700667999      1.343      1.848
REMARK  8 active torsions:
REMARK  status: ('A' for Active; 'I' for Inactive)
REMARK    1  A    between atoms: N1_1  and  C1_4 
REMARK    2  A    between atoms: C2_7  and  N3_8 
REMARK    3  A    between atoms: N3_8  and  C3_10 
REMARK    4  A    between atoms: C3_10  and  N4_11 
REMARK    5  A    between atoms: C4_17  and  N6_18 
REMARK    6  A    between atoms: N6_18  and  C5_20 
REMARK    7  A    between atoms: C7_22  and  O1_23 
REMARK    8  A    between atoms: C8_25  and  O2_26 
ROOT
HETATM    1  C1  UNL     1      24.277  -7.594  14.252  1.00  0.00     0.705 A 
HETATM    2  N2  UNL     1      23.378  -8.412  14.791  1.00  0.00    -0.022 N 
ATOM      3  H2  UNL     1      22.434  -8.080  14.991  1.00  0.00     0.203 HD
HETATM    4  C2  UNL     1      23.721  -9.670  15.067  1.00  0.00     0.708 A 
HETATM    5  N5  UNL     1      24.962 -10.076  14.791  1.00  0.00    -0.021 N 
ATOM      6  H5  UNL     1      25.212 -11.042  15.006  1.00  0.00     0.203 HD
HETATM    7  C4  UNL     1      25.902  -9.283  14.246  1.00  0.00     0.707 A 
HETATM    8  N7  UNL     1      25.511  -8.021  13.987  1.00  0.00    -0.022 N 
ATOM      9  H7  UNL     1      26.180  -7.371  13.574  1.00  0.00     0.203 HD
ENDROOT
BRANCH   7  10
HETATM   10  N6  UNL     1      27.226  -9.698  13.949  1.00  0.00    -0.220 N 
ATOM     11  H6  UNL     1      27.411 -10.054  13.011  1.00  0.00     0.178 HD
BRANCH  10  12
HETATM   12  C5  UNL     1      28.321  -9.654  14.869  1.00  0.00     0.104 C 
HETATM   13  C6  UNL     1      27.896  -9.719  16.305  1.00  0.00     0.060 C 
HETATM   14  C7  UNL     1      27.944 -11.172  16.729  1.00  0.00     0.148 C 
HETATM   15  C8  UNL     1      29.064 -11.719  15.904  1.00  0.00     0.148 C 
HETATM   16  C9  UNL     1      29.230 -10.835  14.711  1.00  0.00     0.060 C 
BRANCH  14  17
HETATM   17  O1  UNL     1      26.740 -11.827  16.536  1.00  0.00    -0.393 OA
ATOM     18  H1  UNL     1      26.840 -12.651  16.075  1.00  0.00     0.210 HD
ENDBRANCH  14  17
BRANCH  15  19
HETATM   19  O2  UNL     1      30.253 -11.725  16.645  1.00  0.00    -0.393 OA
ATOM     20  H2  UNL     1      30.343 -10.913  17.130  1.00  0.00     0.210 HD
ENDBRANCH  15  19
ENDBRANCH  10  12
ENDBRANCH   7  10
BRANCH   4  21
HETATM   21  N3  UNL     1      22.801 -10.572  15.638  1.00  0.00    -0.201 N 
ATOM     22  H3  UNL     1      22.273 -10.253  16.451  1.00  0.00     0.179 HD
BRANCH  21  23
HETATM   23  C3  UNL     1      22.550 -11.896  15.168  1.00  0.00     0.368 C 
BRANCH  23  24
HETATM   24  N4  UNL     1      22.704 -12.914  16.174  1.00  0.00    -0.063 N 
ATOM     25  H43 UNL     1      22.220 -12.647  17.032  1.00  0.00     0.276 HD
ATOM     26  H42 UNL     1      22.170 -13.747  15.926  1.00  0.00     0.276 HD
ATOM     27  H41 UNL     1      23.674 -13.159  16.373  1.00  0.00     0.276 HD
ENDBRANCH  23  24
ENDBRANCH  21  23
ENDBRANCH   4  21
BRANCH   1  28
HETATM   28  N1  UNL     1      23.956  -6.380  13.984  1.00  0.00    -0.234 N 
ATOM     29  H12 UNL     1      24.569  -5.816  13.395  1.00  0.00     0.174 HD
ATOM     30  H11 UNL     1      23.092  -5.989  14.361  1.00  0.00     0.174 HD
ENDBRANCH   1  28
TORSDOF 8
ENDMDL
MODEL 5
REMARK VINA RESULT: -5.649328279      4.996      6.846
REMARK  8 active torsions:
REMARK  status: ('A' for Active; 'I' for Inactive)
REMARK    1  A    between atoms: N1_1  and  C1_4 
REMARK    2  A    between atoms: C2_7  and  N3_8 
REMARK    3  A    between atoms: N3_8  and  C3_10 
REMARK    4  A    between atoms: C3_10  and  N4_11 
REMARK    5  A    between atoms: C4_17  and  N6_18 
REMARK    6  A    between atoms: N6_18  and  C5_20 
REMARK    7  A    between atoms: C7_22  and  O1_23 
REMARK    8  A    between atoms: C8_25  and  O2_26 
ROOT
HETATM    1  C1  UNL     1      28.504 -14.440  17.184  1.00  0.00     0.705 A 
HETATM    2  N2  UNL     1      29.812 -14.543  16.971  1.00  0.00    -0.022 N 
ATOM      3  H2  UNL     1      30.277 -15.448  17.047  1.00  0.00     0.203 HD
HETATM    4  C2  UNL     1      30.511 -13.452  16.656  1.00  0.00     0.708 A 
HETATM    5  N5  UNL     1      29.875 -12.282  16.562  1.00  0.00    -0.021 N 
ATOM      6  H5  UNL     1      30.421 -11.455  16.320  1.00  0.00     0.203 HD
HETATM    7  C4  UNL     1      28.554 -12.134  16.769  1.00  0.00     0.707 A 
HETATM    8  N7  UNL     1      27.890 -13.262  17.086  1.00  0.00    -0.022 N 
ATOM      9  H7  UNL     1      26.886 -13.213  17.255  1.00  0.00     0.203 HD
ENDROOT
BRANCH   7  10
HETATM   10  N6  UNL     1      27.862 -10.898  16.674  1.00  0.00    -0.220 N 
ATOM     11  H6  UNL     1      27.255 -10.635  17.450  1.00  0.00     0.178 HD
BRANCH  10  12
HETATM   12  C5  UNL     1      27.956  -9.994  15.569  1.00  0.00     0.104 C 
HETATM   13  C6  UNL     1      27.125 -10.406  14.391  1.00  0.00     0.060 C 
HETATM   14  C7  UNL     1      25.788  -9.704  14.509  1.00  0.00     0.148 C 
HETATM   15  C8  UNL     1      26.148  -8.422  15.187  1.00  0.00     0.148 C 
HETATM   16  C9  UNL     1      27.435  -8.633  15.917  1.00  0.00     0.060 C 
BRANCH  14  17
HETATM   17  O1  UNL     1      24.849 -10.451  15.197  1.00  0.00    -0.393 OA
ATOM     18  H1  UNL     1      24.185  -9.915  15.614  1.00  0.00     0.210 HD
ENDBRANCH  14  17
BRANCH  15  19
HETATM   19  O2  UNL     1      26.315  -7.402  14.240  1.00  0.00    -0.393 OA
ATOM     20  H2  UNL     1      27.225  -7.349  13.971  1.00  0.00     0.210 HD
ENDBRANCH  15  19
ENDBRANCH  10  12
ENDBRANCH   7  10
BRANCH   4  21
HETATM   21  N3  UNL     1      31.900 -13.514  16.422  1.00  0.00    -0.201 N 
ATOM     22  H3  UNL     1      32.227 -13.297  15.481  1.00  0.00     0.179 HD
BRANCH  21  23
HETATM   23  C3  UNL     1      32.882 -13.856  17.399  1.00  0.00     0.368 C 
BRANCH  23  24
HETATM   24  N4  UNL     1      34.192 -13.324  17.123  1.00  0.00    -0.063 N 
ATOM     25  H43 UNL     1      34.604 -13.788  16.314  1.00  0.00     0.276 HD
ATOM     26  H42 UNL     1      34.124 -12.373  16.761  1.00  0.00     0.276 HD
ATOM     27  H41 UNL     1      34.830 -13.358  17.919  1.00  0.00     0.276 HD
ENDBRANCH  23  24
ENDBRANCH  21  23
ENDBRANCH   4  21
BRANCH   1  28
HETATM   28  N1  UNL     1      27.823 -15.486  17.489  1.00  0.00    -0.234 N 
ATOM     29  H12 UNL     1      28.288 -16.276  17.936  1.00  0.00     0.174 HD
ATOM     30  H11 UNL     1      26.826 -15.518  17.281  1.00  0.00     0.174 HD
ENDBRANCH   1  28
TORSDOF 8
ENDMDL
