MODEL 1
REMARK VINA RESULT: -5.817943269      0.000      0.000
REMARK  10 active torsions:
REMARK  status: ('A' for Active; 'I' for Inactive)
REMARK    1  A    between atoms: N1_1  and  C1_4 
REMARK    2  A    between atoms: C2_7  and  N3_8 
REMARK    3  A    between atoms: N3_8  and  N4_10 
REMARK    4  A    between atoms: C3_15  and  N6_16 
REMARK    5  A    between atoms: N6_16  and  C4_18 
REMARK    6  A    between atoms: C4_18  and  C5_19 
REMARK    7  A    between atoms: C5_19  and  N7_20 
REMARK    8  A    between atoms: C5_19  and  C6_24 
REMARK    9  A    between atoms: C6_24  and  C7_25 
REMARK   10  A    between atoms: C7_25  and  O1_26 
ROOT
HETATM    1  C1  UNL     1      22.927 -10.842  15.387  1.00  0.00     0.705 A 
HETATM    2  N2  UNL     1      22.282  -9.898  16.098  1.00  0.00    -0.020 N 
ATOM      3  H2  UNL     1      21.431 -10.164  16.594  1.00  0.00     0.203 HD
HETATM    4  C2  UNL     1      22.697  -8.633  16.189  1.00  0.00     0.725 A 
HETATM    5  N5  UNL     1      23.832  -8.299  15.519  1.00  0.00    -0.020 N 
ATOM      6  H5  UNL     1      24.174  -7.340  15.568  1.00  0.00     0.203 HD
HETATM    7  C3  UNL     1      24.516  -9.201  14.792  1.00  0.00     0.707 A 
HETATM    8  N8  UNL     1      24.049 -10.455  14.741  1.00  0.00    -0.022 N 
ATOM      9  H8  UNL     1      24.561 -11.145  14.192  1.00  0.00     0.203 HD
ENDROOT
BRANCH   7  10
HETATM   10  N6  UNL     1      25.594  -8.855  14.164  1.00  0.00    -0.223 N 
ATOM     11  H6  UNL     1      25.696  -7.917  13.779  1.00  0.00     0.177 HD
BRANCH  10  12
HETATM   12  C4  UNL     1      26.663  -9.847  14.022  1.00  0.00     0.171 C 
BRANCH  12  13
HETATM   13  C5  UNL     1      27.827  -9.471  14.886  1.00  0.00     0.203 C 
BRANCH  13  14
HETATM   14  N7  UNL     1      27.526 -10.034  16.234  1.00  0.00    -0.073 N 
ATOM     15  H73 UNL     1      28.287  -9.922  16.904  1.00  0.00     0.274 HD
ATOM     16  H72 UNL     1      26.827  -9.501  16.753  1.00  0.00     0.274 HD
ATOM     17  H71 UNL     1      27.262 -11.006  16.074  1.00  0.00     0.274 HD
ENDBRANCH  13  14
BRANCH  13  18
HETATM   18  C6  UNL     1      28.021  -7.995  15.086  1.00  0.00     0.060 C 
BRANCH  18  19
HETATM   19  C7  UNL     1      27.683  -7.464  16.443  1.00  0.00     0.166 C 
BRANCH  19  20
HETATM   20  O1  UNL     1      26.381  -7.036  16.597  1.00  0.00    -0.401 OA
ATOM     21  H1  UNL     1      26.084  -6.405  15.953  1.00  0.00     0.209 HD
ENDBRANCH  19  20
ENDBRANCH  18  19
ENDBRANCH  13  18
ENDBRANCH  12  13
ENDBRANCH  10  12
ENDBRANCH   7  10
BRANCH   4  22
HETATM   22  N3  UNL     1      22.017  -7.636  16.939  1.00  0.00    -0.138 N 
ATOM     23  H3  UNL     1      22.473  -7.196  17.738  1.00  0.00     0.205 HD
BRANCH  22  24
HETATM   24  N4  UNL     1      20.721  -7.263  16.577  1.00  0.00    -0.331 N 
ATOM     25  H42 UNL     1      20.353  -7.555  15.671  1.00  0.00     0.177 HD
ATOM     26  H41 UNL     1      20.159  -6.703  17.219  1.00  0.00     0.177 HD
ENDBRANCH  22  24
ENDBRANCH   4  22
BRANCH   1  27
HETATM   27  N1  UNL     1      22.498 -12.060  15.320  1.00  0.00    -0.234 N 
ATOM     28  H12 UNL     1      21.590 -12.325  15.702  1.00  0.00     0.174 HD
ATOM     29  H11 UNL     1      23.047 -12.802  14.887  1.00  0.00     0.174 HD
ENDBRANCH   1  27
TORSDOF 10
ENDMDL
MODEL 2
REMARK VINA RESULT: -5.750440993      1.804      2.100
REMARK  10 active torsions:
REMARK  status: ('A' for Active; 'I' for Inactive)
REMARK    1  A    between atoms: N1_1  and  C1_4 
REMARK    2  A    between atoms: C2_7  and  N3_8 
REMARK    3  A    between atoms: N3_8  and  N4_10 
REMARK    4  A    between atoms: C3_15  and  N6_16 
REMARK    5  A    between atoms: N6_16  and  C4_18 
REMARK    6  A    between atoms: C4_18  and  C5_19 
REMARK    7  A    between atoms: C5_19  and  N7_20 
REMARK    8  A    between atoms: C5_19  and  C6_24 
REMARK    9  A    between atoms: C6_24  and  C7_25 
REMARK   10  A    between atoms: C7_25  and  O1_26 
ROOT
HETATM    1  C1  UNL     1      22.985 -10.735  15.381  1.00  0.00     0.705 A 
HETATM    2  N2  UNL     1      22.281  -9.824  16.079  1.00  0.00    -0.020 N 
ATOM      3  H2  UNL     1      21.402 -10.117  16.507  1.00  0.00     0.203 HD
HETATM    4  C2  UNL     1      22.671  -8.558  16.241  1.00  0.00     0.725 A 
HETATM    5  N5  UNL     1      23.845  -8.188  15.662  1.00  0.00    -0.020 N 
ATOM      6  H5  UNL     1      24.170  -7.227  15.768  1.00  0.00     0.203 HD
HETATM    7  C3  UNL     1      24.589  -9.056  14.954  1.00  0.00     0.707 A 
HETATM    8  N8  UNL     1      24.143 -10.312  14.827  1.00  0.00    -0.022 N 
ATOM      9  H8  UNL     1      24.701 -10.977  14.291  1.00  0.00     0.203 HD
ENDROOT
BRANCH   7  10
HETATM   10  N6  UNL     1      25.701  -8.675  14.413  1.00  0.00    -0.223 N 
ATOM     11  H6  UNL     1      25.925  -7.685  14.317  1.00  0.00     0.177 HD
BRANCH  10  12
HETATM   12  C4  UNL     1      26.632  -9.705  13.942  1.00  0.00     0.171 C 
BRANCH  12  13
HETATM   13  C5  UNL     1      27.706  -9.928  14.962  1.00  0.00     0.203 C 
BRANCH  13  14
HETATM   14  N7  UNL     1      28.891  -9.167  14.472  1.00  0.00    -0.073 N 
ATOM     15  H73 UNL     1      29.123  -9.355  13.497  1.00  0.00     0.274 HD
ATOM     16  H72 UNL     1      28.720  -8.167  14.366  1.00  0.00     0.274 HD
ATOM     17  H71 UNL     1      29.647  -9.387  15.121  1.00  0.00     0.274 HD
ENDBRANCH  13  14
BRANCH  13  18
HETATM   18  C6  UNL     1      28.158 -11.353  15.110  1.00  0.00     0.060 C 
BRANCH  18  19
HETATM   19  C7  UNL     1      28.866 -11.690  16.385  1.00  0.00     0.166 C 
BRANCH  19  20
HETATM   20  O1  UNL     1      30.213 -11.394  16.404  1.00  0.00    -0.401 OA
ATOM     21  H1  UNL     1      30.757 -11.954  15.864  1.00  0.00     0.209 HD
ENDBRANCH  19  20
ENDBRANCH  18  19
ENDBRANCH  13  18
ENDBRANCH  12  13
ENDBRANCH  10  12
ENDBRANCH   7  10
BRANCH   4  22
HETATM   22  N3  UNL     1      21.929  -7.597  16.978  1.00  0.00    -0.138 N 
ATOM     23  H3  UNL     1      22.322  -7.182  17.822  1.00  0.00     0.205 HD
BRANCH  22  24
HETATM   24  N4  UNL     1      20.657  -7.222  16.539  1.00  0.00    -0.331 N 
ATOM     25  H42 UNL     1      20.472  -7.167  15.537  1.00  0.00     0.177 HD
ATOM     26  H41 UNL     1      19.929  -7.007  17.222  1.00  0.00     0.177 HD
ENDBRANCH  22  24
ENDBRANCH   4  22
BRANCH   1  27
HETATM   27  N1  UNL     1      22.579 -11.954  15.244  1.00  0.00    -0.234 N 
ATOM     28  H12 UNL     1      23.044 -12.726  15.721  1.00  0.00     0.174 HD
ATOM     29  H11 UNL     1      21.782 -12.194  14.655  1.00  0.00     0.174 HD
ENDBRANCH   1  27
TORSDOF 10
ENDMDL
MODEL 3
REMARK VINA RESULT: -5.615155313      0.369      2.559
REMARK  10 active torsions:
REMARK  status: ('A' for Active; 'I' for Inactive)
REMARK    1  A    between atoms: N1_1  and  C1_4 
REMARK    2  A    between atoms: C2_7  and  N3_8 
REMARK    3  A    between atoms: N3_8  and  N4_10 
REMARK    4  A    between atoms: C3_15  and  N6_16 
REMARK    5  A    between atoms: N6_16  and  C4_18 
REMARK    6  A    between atoms: C4_18  and  C5_19 
REMARK    7  A    between atoms: C5_19  and  N7_20 
REMARK    8  A    between atoms: C5_19  and  C6_24 
REMARK    9  A    between atoms: C6_24  and  C7_25 
REMARK   10  A    between atoms: C7_25  and  O1_26 
ROOT
HETATM    1  C1  UNL     1      22.699  -8.612  16.169  1.00  0.00     0.705 A 
HETATM    2  N2  UNL     1      22.262  -9.882  16.085  1.00  0.00    -0.020 N 
ATOM      3  H2  UNL     1      21.402 -10.130  16.575  1.00  0.00     0.203 HD
HETATM    4  C2  UNL     1      22.892 -10.834  15.394  1.00  0.00     0.725 A 
HETATM    5  N5  UNL     1      24.037 -10.482  14.749  1.00  0.00    -0.020 N 
ATOM      6  H5  UNL     1      24.542 -11.188  14.213  1.00  0.00     0.203 HD
HETATM    7  C3  UNL     1      24.521  -9.228  14.800  1.00  0.00     0.707 A 
HETATM    8  N8  UNL     1      23.841  -8.318  15.509  1.00  0.00    -0.022 N 
ATOM      9  H8  UNL     1      24.201  -7.365  15.553  1.00  0.00     0.203 HD
ENDROOT
BRANCH   7  10
HETATM   10  N6  UNL     1      25.613  -8.922  14.177  1.00  0.00    -0.223 N 
ATOM     11  H6  UNL     1      25.734  -8.002  13.754  1.00  0.00     0.177 HD
BRANCH  10  12
HETATM   12  C4  UNL     1      26.672  -9.932  14.094  1.00  0.00     0.171 C 
BRANCH  12  13
HETATM   13  C5  UNL     1      27.845  -9.511  14.925  1.00  0.00     0.203 C 
BRANCH  13  14
HETATM   14  N7  UNL     1      27.580 -10.040  16.294  1.00  0.00    -0.073 N 
ATOM     15  H73 UNL     1      27.813 -11.027  16.404  1.00  0.00     0.274 HD
ATOM     16  H72 UNL     1      28.222  -9.683  17.001  1.00  0.00     0.274 HD
ATOM     17  H71 UNL     1      26.601  -9.829  16.486  1.00  0.00     0.274 HD
ENDBRANCH  13  14
BRANCH  13  18
HETATM   18  C6  UNL     1      28.016  -8.027  15.079  1.00  0.00     0.060 C 
BRANCH  18  19
HETATM   19  C7  UNL     1      27.699  -7.463  16.428  1.00  0.00     0.166 C 
BRANCH  19  20
HETATM   20  O1  UNL     1      26.396  -7.044  16.597  1.00  0.00    -0.401 OA
ATOM     21  H1  UNL     1      26.296  -6.168  16.949  1.00  0.00     0.209 HD
ENDBRANCH  19  20
ENDBRANCH  18  19
ENDBRANCH  13  18
ENDBRANCH  12  13
ENDBRANCH  10  12
ENDBRANCH   7  10
BRANCH   4  22
HETATM   22  N3  UNL     1      22.432 -12.175  15.305  1.00  0.00    -0.138 N 
ATOM     23  H3  UNL     1      21.863 -12.469  14.511  1.00  0.00     0.205 HD
BRANCH  22  24
HETATM   24  N4  UNL     1      22.761 -13.087  16.310  1.00  0.00    -0.331 N 
ATOM     25  H42 UNL     1      22.254 -13.059  17.194  1.00  0.00     0.177 HD
ATOM     26  H41 UNL     1      23.503 -13.769  16.149  1.00  0.00     0.177 HD
ENDBRANCH  22  24
ENDBRANCH   4  22
BRANCH   1  27
HETATM   27  N1  UNL     1      22.063  -7.713  16.846  1.00  0.00    -0.234 N 
ATOM     28  H12 UNL     1      21.078  -7.515  16.673  1.00  0.00     0.174 HD
ATOM     29  H11 UNL     1      22.518  -7.167  17.578  1.00  0.00     0.174 HD
ENDBRANCH   1  27
TORSDOF 10
ENDMDL
MODEL 4
REMARK VINA RESULT: -5.576408321      1.858      3.311
REMARK  10 active torsions:
REMARK  status: ('A' for Active; 'I' for Inactive)
REMARK    1  A    between atoms: N1_1  and  C1_4 
REMARK    2  A    between atoms: C2_7  and  N3_8 
REMARK    3  A    between atoms: N3_8  and  N4_10 
REMARK    4  A    between atoms: C3_15  and  N6_16 
REMARK    5  A    between atoms: N6_16  and  C4_18 
REMARK    6  A    between atoms: C4_18  and  C5_19 
REMARK    7  A    between atoms: C5_19  and  N7_20 
REMARK    8  A    between atoms: C5_19  and  C6_24 
REMARK    9  A    between atoms: C6_24  and  C7_25 
REMARK   10  A    between atoms: C7_25  and  O1_26 
ROOT
HETATM    1  C1  UNL     1      22.677  -8.528  16.200  1.00  0.00     0.705 A 
HETATM    2  N2  UNL     1      22.288  -9.805  16.025  1.00  0.00    -0.020 N 
ATOM      3  H2  UNL     1      21.393 -10.096  16.421  1.00  0.00     0.203 HD
HETATM    4  C2  UNL     1      23.009 -10.711  15.363  1.00  0.00     0.725 A 
HETATM    5  N5  UNL     1      24.199 -10.304  14.844  1.00  0.00    -0.020 N 
ATOM      6  H5  UNL     1      24.773 -10.973  14.332  1.00  0.00     0.203 HD
HETATM    7  C3  UNL     1      24.638  -9.040  14.989  1.00  0.00     0.707 A 
HETATM    8  N8  UNL     1      23.868  -8.179  15.664  1.00  0.00    -0.022 N 
ATOM      9  H8  UNL     1      24.193  -7.219  15.779  1.00  0.00     0.203 HD
ENDROOT
BRANCH   7  10
HETATM   10  N6  UNL     1      25.774  -8.680  14.485  1.00  0.00    -0.223 N 
ATOM     11  H6  UNL     1      26.035  -7.696  14.433  1.00  0.00     0.177 HD
BRANCH  10  12
HETATM   12  C4  UNL     1      26.677  -9.725  13.992  1.00  0.00     0.171 C 
BRANCH  12  13
HETATM   13  C5  UNL     1      27.767  -9.970  14.990  1.00  0.00     0.203 C 
BRANCH  13  14
HETATM   14  N7  UNL     1      28.960  -9.243  14.469  1.00  0.00    -0.073 N 
ATOM     15  H73 UNL     1      28.930  -9.073  13.464  1.00  0.00     0.274 HD
ATOM     16  H72 UNL     1      29.001  -8.265  14.757  1.00  0.00     0.274 HD
ATOM     17  H71 UNL     1      29.768  -9.790  14.767  1.00  0.00     0.274 HD
ENDBRANCH  13  14
BRANCH  13  18
HETATM   18  C6  UNL     1      28.186 -11.406  15.135  1.00  0.00     0.060 C 
BRANCH  18  19
HETATM   19  C7  UNL     1      28.895 -11.760  16.404  1.00  0.00     0.166 C 
BRANCH  19  20
HETATM   20  O1  UNL     1      30.239 -11.450  16.430  1.00  0.00    -0.401 OA
ATOM     21  H1  UNL     1      30.452 -10.608  16.815  1.00  0.00     0.209 HD
ENDBRANCH  19  20
ENDBRANCH  18  19
ENDBRANCH  13  18
ENDBRANCH  12  13
ENDBRANCH  10  12
ENDBRANCH   7  10
BRANCH   4  22
HETATM   22  N3  UNL     1      22.599 -12.059  15.178  1.00  0.00    -0.138 N 
ATOM     23  H3  UNL     1      22.242 -12.366  14.274  1.00  0.00     0.205 HD
BRANCH  22  24
HETATM   24  N4  UNL     1      22.687 -12.960  16.242  1.00  0.00    -0.331 N 
ATOM     25  H42 UNL     1      23.071 -12.643  17.132  1.00  0.00     0.177 HD
ATOM     26  H41 UNL     1      22.369 -13.921  16.117  1.00  0.00     0.177 HD
ENDBRANCH  22  24
ENDBRANCH   4  22
BRANCH   1  27
HETATM   27  N1  UNL     1      21.954  -7.676  16.847  1.00  0.00    -0.234 N 
ATOM     28  H12 UNL     1      21.964  -7.635  17.866  1.00  0.00     0.174 HD
ATOM     29  H11 UNL     1      21.345  -7.011  16.369  1.00  0.00     0.174 HD
ENDBRANCH   1  27
TORSDOF 10
ENDMDL
MODEL 5
REMARK VINA RESULT: -5.168318732      2.541      3.766
REMARK  10 active torsions:
REMARK  status: ('A' for Active; 'I' for Inactive)
REMARK    1  A    between atoms: N1_1  and  C1_4 
REMARK    2  A    between atoms: C2_7  and  N3_8 
REMARK    3  A    between atoms: N3_8  and  N4_10 
REMARK    4  A    between atoms: C3_15  and  N6_16 
REMARK    5  A    between atoms: N6_16  and  C4_18 
REMARK    6  A    between atoms: C4_18  and  C5_19 
REMARK    7  A    between atoms: C5_19  and  N7_20 
REMARK    8  A    between atoms: C5_19  and  C6_24 
REMARK    9  A    between atoms: C6_24  and  C7_25 
REMARK   10  A    between atoms: C7_25  and  O1_26 
ROOT
HETATM    1  C1  UNL     1      25.221  -7.243  14.365  1.00  0.00     0.705 A 
HETATM    2  N2  UNL     1      24.141  -7.914  14.807  1.00  0.00    -0.020 N 
ATOM      3  H2  UNL     1      23.309  -7.379  15.056  1.00  0.00     0.203 HD
HETATM    4  C2  UNL     1      24.102  -9.242  14.937  1.00  0.00     0.725 A 
HETATM    5  N5  UNL     1      25.222  -9.935  14.601  1.00  0.00    -0.020 N 
ATOM      6  H5  UNL     1      25.223 -10.951  14.690  1.00  0.00     0.203 HD
HETATM    7  C3  UNL     1      26.330  -9.316  14.154  1.00  0.00     0.707 A 
HETATM    8  N8  UNL     1      26.306  -7.982  14.045  1.00  0.00    -0.022 N 
ATOM      9  H8  UNL     1      27.142  -7.505  13.707  1.00  0.00     0.203 HD
ENDROOT
BRANCH   7  10
HETATM   10  N6  UNL     1      27.382 -10.002  13.842  1.00  0.00    -0.223 N 
ATOM     11  H6  UNL     1      27.504 -10.375  12.901  1.00  0.00     0.177 HD
BRANCH  10  12
HETATM   12  C4  UNL     1      28.395 -10.229  14.877  1.00  0.00     0.171 C 
BRANCH  12  13
HETATM   13  C5  UNL     1      28.010 -11.406  15.719  1.00  0.00     0.203 C 
BRANCH  13  14
HETATM   14  N7  UNL     1      28.076 -10.931  17.131  1.00  0.00    -0.073 N 
ATOM     15  H73 UNL     1      28.593 -10.059  17.245  1.00  0.00     0.274 HD
ATOM     16  H72 UNL     1      27.183 -10.590  17.490  1.00  0.00     0.274 HD
ATOM     17  H71 UNL     1      28.462 -11.708  17.666  1.00  0.00     0.274 HD
ENDBRANCH  13  14
BRANCH  13  18
HETATM   18  C6  UNL     1      28.940 -12.583  15.632  1.00  0.00     0.060 C 
BRANCH  18  19
HETATM   19  C7  UNL     1      30.035 -12.633  16.651  1.00  0.00     0.166 C 
BRANCH  19  20
HETATM   20  O1  UNL     1      31.035 -11.698  16.482  1.00  0.00    -0.401 OA
ATOM     21  H1  UNL     1      31.819 -11.848  16.998  1.00  0.00     0.209 HD
ENDBRANCH  19  20
ENDBRANCH  18  19
ENDBRANCH  13  18
ENDBRANCH  12  13
ENDBRANCH  10  12
ENDBRANCH   7  10
BRANCH   4  22
HETATM   22  N3  UNL     1      22.963  -9.951  15.404  1.00  0.00    -0.138 N 
ATOM     23  H3  UNL     1      22.742 -10.872  15.026  1.00  0.00     0.205 HD
BRANCH  22  24
HETATM   24  N4  UNL     1      22.146  -9.379  16.383  1.00  0.00    -0.331 N 
ATOM     25  H42 UNL     1      22.557  -8.736  17.061  1.00  0.00     0.177 HD
ATOM     26  H41 UNL     1      21.153  -9.611  16.410  1.00  0.00     0.177 HD
ENDBRANCH  22  24
ENDBRANCH   4  22
BRANCH   1  27
HETATM   27  N1  UNL     1      25.226  -5.956  14.250  1.00  0.00    -0.234 N 
ATOM     28  H12 UNL     1      25.851  -5.483  13.597  1.00  0.00     0.174 HD
ATOM     29  H11 UNL     1      24.610  -5.362  14.804  1.00  0.00     0.174 HD
ENDBRANCH   1  27
TORSDOF 10
ENDMDL
