MODEL 1
REMARK VINA RESULT: -6.117570993      0.000      0.000
REMARK  5 active torsions:
REMARK  status: ('A' for Active; 'I' for Inactive)
REMARK    1  A    between atoms: N1_1  and  C1_4 
REMARK    2  A    between atoms: N5_15  and  C5_16 
REMARK    3  A    between atoms: C5_16  and  C6_17 
REMARK    4  A    between atoms: C6_17  and  N6_18 
REMARK    5  A    between atoms: N6_18  and  N7_19 
REMARK       I    between atoms: N6_18  and  C7_22 
REMARK       I    between atoms: C7_22  and  N8_23 
REMARK       I    between atoms: C7_22  and  N9_27 
ROOT
HETATM    1  C1  UNL     1      22.944 -10.761  15.416  1.00  0.00     0.679 A 
HETATM    2  N2  UNL     1      22.250  -9.818  16.088  1.00  0.00    -0.175 N 
ATOM      3  H2  UNL     1      21.358 -10.050  16.525  1.00  0.00     0.186 HD
HETATM    4  C2  UNL     1      22.744  -8.574  16.175  1.00  0.00     0.145 A 
HETATM    5  N3  UNL     1      22.115  -7.644  16.807  1.00  0.00    -0.383 N 
ATOM      6  H31 UNL     1      22.490  -6.699  16.873  1.00  0.00     0.157 HD
ATOM      7  H32 UNL     1      21.224  -7.888  17.240  1.00  0.00     0.157 HD
HETATM    8  C3  UNL     1      23.946  -8.245  15.590  1.00  0.00     0.123 A 
HETATM    9  N4  UNL     1      24.701  -7.141  15.487  1.00  0.00    -0.346 N 
ATOM     10  H4  UNL     1      24.478  -6.228  15.883  1.00  0.00     0.167 HD
HETATM   11  C4  UNL     1      25.801  -7.440  14.774  1.00  0.00     0.185 A 
HETATM   12  N5  UNL     1      25.786  -8.725  14.403  1.00  0.00    -0.325 N 
HETATM   13  C8  UNL     1      24.625  -9.234  14.912  1.00  0.00     0.155 A 
HETATM   14  N10 UNL     1      24.107 -10.469  14.842  1.00  0.00    -0.174 N 
ATOM     15  H10 UNL     1      24.615 -11.198  14.340  1.00  0.00     0.186 HD
ENDROOT
BRANCH  12  16
HETATM   16  C5  UNL     1      26.744  -9.494  13.633  1.00  0.00     0.153 C 
BRANCH  16  17
HETATM   17  C6  UNL     1      27.204 -10.729  14.423  1.00  0.00     0.166 C 
BRANCH  17  18
HETATM   18  N6  UNL     1      28.331 -10.349  15.188  1.00  0.00    -0.280 N 
HETATM   19  C7  UNL     1      28.780 -11.261  16.170  1.00  0.00     0.496 C 
HETATM   20  N8  UNL     1      29.155 -12.531  15.562  1.00  0.00    -0.032 N 
HETATM   21  N9  UNL     1      27.769 -11.545  17.193  1.00  0.00    -0.032 N 
ATOM     22  H83 UNL     1      28.396 -12.920  15.003  1.00  0.00     0.279 HD
ATOM     23  H82 UNL     1      29.844 -12.406  14.820  1.00  0.00     0.279 HD
ATOM     24  H81 UNL     1      29.479 -13.190  16.270  1.00  0.00     0.279 HD
ATOM     25  H93 UNL     1      27.433 -10.683  17.623  1.00  0.00     0.279 HD
ATOM     26  H92 UNL     1      26.900 -11.867  16.766  1.00  0.00     0.279 HD
ATOM     27  H91 UNL     1      28.092 -12.204  17.901  1.00  0.00     0.279 HD
BRANCH  18  28
HETATM   28  N7  UNL     1      29.264  -9.576  14.569  1.00  0.00    -0.344 N 
ATOM     29  H72 UNL     1      29.364  -9.671  13.558  1.00  0.00     0.176 HD
ATOM     30  H71 UNL     1      29.438  -8.654  14.968  1.00  0.00     0.176 HD
ENDBRANCH  18  28
ENDBRANCH  17  18
ENDBRANCH  16  17
ENDBRANCH  12  16
BRANCH   1  31
HETATM   31  N1  UNL     1      22.473 -11.953  15.332  1.00  0.00    -0.234 N 
ATOM     32  H12 UNL     1      21.803 -12.283  16.027  1.00  0.00     0.174 HD
ATOM     33  H11 UNL     1      22.773 -12.560  14.569  1.00  0.00     0.174 HD
ENDBRANCH   1  31
TORSDOF 5
ENDMDL
MODEL 2
REMARK VINA RESULT: -5.588069857      1.679      3.174
REMARK  5 active torsions:
REMARK  status: ('A' for Active; 'I' for Inactive)
REMARK    1  A    between atoms: N1_1  and  C1_4 
REMARK    2  A    between atoms: N5_15  and  C5_16 
REMARK    3  A    between atoms: C5_16  and  C6_17 
REMARK    4  A    between atoms: C6_17  and  N6_18 
REMARK    5  A    between atoms: N6_18  and  N7_19 
REMARK       I    between atoms: N6_18  and  C7_22 
REMARK       I    between atoms: C7_22  and  N8_23 
REMARK       I    between atoms: C7_22  and  N9_27 
ROOT
HETATM    1  C1  UNL     1      24.219  -9.563  14.971  1.00  0.00     0.679 A 
HETATM    2  N2  UNL     1      24.306  -8.227  14.801  1.00  0.00    -0.175 N 
ATOM      3  H2  UNL     1      23.463  -7.653  14.800  1.00  0.00     0.186 HD
HETATM    4  C2  UNL     1      25.510  -7.662  14.631  1.00  0.00     0.145 A 
HETATM    5  N3  UNL     1      25.638  -6.390  14.464  1.00  0.00    -0.383 N 
ATOM      6  H31 UNL     1      26.554  -5.960  14.334  1.00  0.00     0.157 HD
ATOM      7  H32 UNL     1      24.788  -5.827  14.466  1.00  0.00     0.157 HD
HETATM    8  C3  UNL     1      26.657  -8.423  14.627  1.00  0.00     0.123 A 
HETATM    9  N4  UNL     1      27.971  -8.190  14.488  1.00  0.00    -0.346 N 
ATOM     10  H4  UNL     1      28.402  -7.277  14.340  1.00  0.00     0.167 HD
HETATM   11  C4  UNL     1      28.625  -9.361  14.576  1.00  0.00     0.185 A 
HETATM   12  N5  UNL     1      27.764 -10.367  14.772  1.00  0.00    -0.325 N 
HETATM   13  C8  UNL     1      26.530  -9.783  14.804  1.00  0.00     0.155 A 
HETATM   14  N10 UNL     1      25.312 -10.320  14.972  1.00  0.00    -0.174 N 
ATOM     15  H10 UNL     1      25.223 -11.328  15.104  1.00  0.00     0.186 HD
ENDROOT
BRANCH  12  16
HETATM   16  C5  UNL     1      27.997 -11.789  14.927  1.00  0.00     0.153 C 
BRANCH  16  17
HETATM   17  C6  UNL     1      28.845 -12.064  16.178  1.00  0.00     0.166 C 
BRANCH  17  18
HETATM   18  N6  UNL     1      28.505 -13.355  16.647  1.00  0.00    -0.280 N 
HETATM   19  C7  UNL     1      29.538 -14.319  16.682  1.00  0.00     0.496 C 
HETATM   20  N8  UNL     1      30.623 -13.882  17.550  1.00  0.00    -0.032 N 
HETATM   21  N9  UNL     1      30.114 -14.590  15.361  1.00  0.00    -0.032 N 
ATOM     22  H83 UNL     1      30.974 -12.963  17.282  1.00  0.00     0.279 HD
ATOM     23  H82 UNL     1      30.289 -13.653  18.486  1.00  0.00     0.279 HD
ATOM     24  H81 UNL     1      31.369 -14.577  17.575  1.00  0.00     0.279 HD
ATOM     25  H93 UNL     1      29.388 -14.857  14.695  1.00  0.00     0.279 HD
ATOM     26  H92 UNL     1      30.435 -13.728  14.920  1.00  0.00     0.279 HD
ATOM     27  H91 UNL     1      30.859 -15.285  15.386  1.00  0.00     0.279 HD
BRANCH  18  28
HETATM   28  N7  UNL     1      27.538 -13.429  17.601  1.00  0.00    -0.344 N 
ATOM     29  H72 UNL     1      26.889 -12.646  17.681  1.00  0.00     0.176 HD
ATOM     30  H71 UNL     1      27.174 -14.357  17.818  1.00  0.00     0.176 HD
ENDBRANCH  18  28
ENDBRANCH  17  18
ENDBRANCH  16  17
ENDBRANCH  12  16
BRANCH   1  31
HETATM   31  N1  UNL     1      23.067 -10.106  15.135  1.00  0.00    -0.234 N 
ATOM     32  H12 UNL     1      22.721 -10.776  14.448  1.00  0.00     0.174 HD
ATOM     33  H11 UNL     1      22.508  -9.862  15.953  1.00  0.00     0.174 HD
ENDBRANCH   1  31
TORSDOF 5
ENDMDL
MODEL 3
REMARK VINA RESULT: -5.228341935      2.599      4.285
REMARK  5 active torsions:
REMARK  status: ('A' for Active; 'I' for Inactive)
REMARK    1  A    between atoms: N1_1  and  C1_4 
REMARK    2  A    between atoms: N5_15  and  C5_16 
REMARK    3  A    between atoms: C5_16  and  C6_17 
REMARK    4  A    between atoms: C6_17  and  N6_18 
REMARK    5  A    between atoms: N6_18  and  N7_19 
REMARK       I    between atoms: N6_18  and  C7_22 
REMARK       I    between atoms: C7_22  and  N8_23 
REMARK       I    between atoms: C7_22  and  N9_27 
ROOT
HETATM    1  C1  UNL     1      26.871  -7.179  16.622  1.00  0.00     0.679 A 
HETATM    2  N2  UNL     1      26.131  -6.876  15.535  1.00  0.00    -0.175 N 
ATOM      3  H2  UNL     1      25.729  -5.945  15.430  1.00  0.00     0.186 HD
HETATM    4  C2  UNL     1      25.930  -7.811  14.594  1.00  0.00     0.145 A 
HETATM    5  N3  UNL     1      25.230  -7.564  13.541  1.00  0.00    -0.383 N 
ATOM      6  H31 UNL     1      25.077  -8.274  12.825  1.00  0.00     0.157 HD
ATOM      7  H32 UNL     1      24.834  -6.628  13.447  1.00  0.00     0.157 HD
HETATM    8  C3  UNL     1      26.465  -9.073  14.722  1.00  0.00     0.123 A 
HETATM    9  N4  UNL     1      26.460 -10.202  13.998  1.00  0.00    -0.346 N 
ATOM     10  H4  UNL     1      25.990 -10.333  13.102  1.00  0.00     0.167 HD
HETATM   11  C4  UNL     1      27.177 -11.133  14.651  1.00  0.00     0.185 A 
HETATM   12  N5  UNL     1      27.658 -10.636  15.797  1.00  0.00    -0.325 N 
HETATM   13  C8  UNL     1      27.213  -9.346  15.845  1.00  0.00     0.155 A 
HETATM   14  N10 UNL     1      27.399  -8.391  16.769  1.00  0.00    -0.174 N 
ATOM     15  H10 UNL     1      27.955  -8.598  17.599  1.00  0.00     0.186 HD
ENDROOT
BRANCH  12  16
HETATM   16  C5  UNL     1      28.477 -11.255  16.821  1.00  0.00     0.153 C 
BRANCH  16  17
HETATM   17  C6  UNL     1      29.331 -12.381  16.221  1.00  0.00     0.166 C 
BRANCH  17  18
HETATM   18  N6  UNL     1      28.752 -13.611  16.616  1.00  0.00    -0.280 N 
HETATM   19  C7  UNL     1      29.624 -14.711  16.773  1.00  0.00     0.496 C 
HETATM   20  N8  UNL     1      30.631 -14.432  17.788  1.00  0.00    -0.032 N 
HETATM   21  N9  UNL     1      30.332 -15.063  15.538  1.00  0.00    -0.032 N 
ATOM     22  H83 UNL     1      31.141 -13.572  17.587  1.00  0.00     0.279 HD
ATOM     23  H82 UNL     1      30.208 -14.156  18.675  1.00  0.00     0.279 HD
ATOM     24  H81 UNL     1      31.261 -15.226  17.902  1.00  0.00     0.279 HD
ATOM     25  H93 UNL     1      29.674 -15.226  14.775  1.00  0.00     0.279 HD
ATOM     26  H92 UNL     1      30.828 -14.256  15.160  1.00  0.00     0.279 HD
ATOM     27  H91 UNL     1      30.962 -15.857  15.652  1.00  0.00     0.279 HD
BRANCH  18  28
HETATM   28  N7  UNL     1      27.663 -13.545  17.428  1.00  0.00    -0.344 N 
ATOM     29  H72 UNL     1      27.750 -13.926  18.370  1.00  0.00     0.176 HD
ATOM     30  H71 UNL     1      27.044 -12.744  17.307  1.00  0.00     0.176 HD
ENDBRANCH  18  28
ENDBRANCH  17  18
ENDBRANCH  16  17
ENDBRANCH  12  16
BRANCH   1  31
HETATM   31  N1  UNL     1      27.065  -6.286  17.524  1.00  0.00    -0.234 N 
ATOM     32  H12 UNL     1      26.275  -5.928  18.061  1.00  0.00     0.174 HD
ATOM     33  H11 UNL     1      28.010  -5.942  17.696  1.00  0.00     0.174 HD
ENDBRANCH   1  31
TORSDOF 5
ENDMDL
MODEL 4
REMARK VINA RESULT: -5.198197372      2.200      4.201
REMARK  5 active torsions:
REMARK  status: ('A' for Active; 'I' for Inactive)
REMARK    1  A    between atoms: N1_1  and  C1_4 
REMARK    2  A    between atoms: N5_15  and  C5_16 
REMARK    3  A    between atoms: C5_16  and  C6_17 
REMARK    4  A    between atoms: C6_17  and  N6_18 
REMARK    5  A    between atoms: N6_18  and  N7_19 
REMARK       I    between atoms: N6_18  and  C7_22 
REMARK       I    between atoms: C7_22  and  N8_23 
REMARK       I    between atoms: C7_22  and  N9_27 
ROOT
HETATM    1  C1  UNL     1      24.674  -9.545  14.933  1.00  0.00     0.679 A 
HETATM    2  N2  UNL     1      25.165  -8.667  14.035  1.00  0.00    -0.175 N 
ATOM      3  H2  UNL     1      24.539  -8.029  13.543  1.00  0.00     0.186 HD
HETATM    4  C2  UNL     1      26.484  -8.640  13.793  1.00  0.00     0.145 A 
HETATM    5  N3  UNL     1      26.995  -7.818  12.942  1.00  0.00    -0.383 N 
ATOM      6  H31 UNL     1      27.998  -7.798  12.758  1.00  0.00     0.157 HD
ATOM      7  H32 UNL     1      26.358  -7.185  12.458  1.00  0.00     0.157 HD
HETATM    8  C3  UNL     1      27.343  -9.496  14.446  1.00  0.00     0.123 A 
HETATM    9  N4  UNL     1      28.664  -9.727  14.443  1.00  0.00    -0.346 N 
ATOM     10  H4  UNL     1      29.353  -9.237  13.873  1.00  0.00     0.167 HD
HETATM   11  C4  UNL     1      28.928 -10.714  15.318  1.00  0.00     0.185 A 
HETATM   12  N5  UNL     1      27.800 -11.140  15.900  1.00  0.00    -0.325 N 
HETATM   13  C8  UNL     1      26.805 -10.379  15.356  1.00  0.00     0.155 A 
HETATM   14  N10 UNL     1      25.482 -10.382  15.578  1.00  0.00    -0.174 N 
ATOM     15  H10 UNL     1      25.089 -11.036  16.254  1.00  0.00     0.186 HD
ENDROOT
BRANCH  12  16
HETATM   16  C5  UNL     1      27.586 -12.171  16.896  1.00  0.00     0.153 C 
BRANCH  16  17
HETATM   17  C6  UNL     1      28.697 -13.230  16.824  1.00  0.00     0.166 C 
BRANCH  17  18
HETATM   18  N6  UNL     1      28.143 -14.457  17.259  1.00  0.00    -0.280 N 
HETATM   19  C7  UNL     1      29.033 -15.543  17.421  1.00  0.00     0.496 C 
HETATM   20  N8  UNL     1      30.059 -15.228  18.406  1.00  0.00    -0.032 N 
HETATM   21  N9  UNL     1      29.717 -15.913  16.178  1.00  0.00    -0.032 N 
ATOM     22  H83 UNL     1      30.553 -14.366  18.174  1.00  0.00     0.279 HD
ATOM     23  H82 UNL     1      29.652 -14.937  19.295  1.00  0.00     0.279 HD
ATOM     24  H81 UNL     1      30.701 -16.011  18.523  1.00  0.00     0.279 HD
ATOM     25  H93 UNL     1      29.044 -16.102  15.434  1.00  0.00     0.279 HD
ATOM     26  H92 UNL     1      30.194 -15.109  15.771  1.00  0.00     0.279 HD
ATOM     27  H91 UNL     1      30.359 -16.697  16.295  1.00  0.00     0.279 HD
BRANCH  18  28
HETATM   28  N7  UNL     1      27.072 -14.387  18.094  1.00  0.00    -0.344 N 
ATOM     29  H72 UNL     1      26.307 -15.044  17.941  1.00  0.00     0.176 HD
ATOM     30  H71 UNL     1      27.254 -14.104  19.057  1.00  0.00     0.176 HD
ENDBRANCH  18  28
ENDBRANCH  17  18
ENDBRANCH  16  17
ENDBRANCH  12  16
BRANCH   1  31
HETATM   31  N1  UNL     1      23.411  -9.571  15.167  1.00  0.00    -0.234 N 
ATOM     32  H12 UNL     1      22.773  -9.059  14.558  1.00  0.00     0.174 HD
ATOM     33  H11 UNL     1      23.058 -10.106  15.961  1.00  0.00     0.174 HD
ENDBRANCH   1  31
TORSDOF 5
ENDMDL
MODEL 5
REMARK VINA RESULT: -5.125793512      3.107      7.634
REMARK  5 active torsions:
REMARK  status: ('A' for Active; 'I' for Inactive)
REMARK    1  A    between atoms: N1_1  and  C1_4 
REMARK    2  A    between atoms: N5_15  and  C5_16 
REMARK    3  A    between atoms: C5_16  and  C6_17 
REMARK    4  A    between atoms: C6_17  and  N6_18 
REMARK    5  A    between atoms: N6_18  and  N7_19 
REMARK       I    between atoms: N6_18  and  C7_22 
REMARK       I    between atoms: C7_22  and  N8_23 
REMARK       I    between atoms: C7_22  and  N9_27 
ROOT
HETATM    1  C1  UNL     1      32.240 -14.272  16.991  1.00  0.00     0.679 A 
HETATM    2  N2  UNL     1      31.900 -15.481  17.484  1.00  0.00    -0.175 N 
ATOM      3  H2  UNL     1      32.619 -16.177  17.681  1.00  0.00     0.186 HD
HETATM    4  C2  UNL     1      30.609 -15.759  17.713  1.00  0.00     0.145 A 
HETATM    5  N3  UNL     1      30.240 -16.901  18.183  1.00  0.00    -0.383 N 
ATOM      6  H31 UNL     1      29.258 -17.113  18.357  1.00  0.00     0.157 HD
ATOM      7  H32 UNL     1      30.969 -17.589  18.376  1.00  0.00     0.157 HD
HETATM    8  C3  UNL     1      29.626 -14.832  17.452  1.00  0.00     0.123 A 
HETATM    9  N4  UNL     1      28.290 -14.783  17.560  1.00  0.00    -0.346 N 
ATOM     10  H4  UNL     1      27.692 -15.534  17.904  1.00  0.00     0.167 HD
HETATM   11  C4  UNL     1      27.870 -13.576  17.140  1.00  0.00     0.185 A 
HETATM   12  N5  UNL     1      28.908 -12.825  16.755  1.00  0.00    -0.325 N 
HETATM   13  C8  UNL     1      30.011 -13.608  16.949  1.00  0.00     0.155 A 
HETATM   14  N10 UNL     1      31.310 -13.358  16.731  1.00  0.00    -0.174 N 
ATOM     15  H10 UNL     1      31.590 -12.450  16.359  1.00  0.00     0.186 HD
ENDROOT
BRANCH  12  16
HETATM   16  C5  UNL     1      28.951 -11.473  16.236  1.00  0.00     0.153 C 
BRANCH  16  17
HETATM   17  C6  UNL     1      27.535 -10.883  16.148  1.00  0.00     0.166 C 
BRANCH  17  18
HETATM   18  N6  UNL     1      27.476 -10.093  14.975  1.00  0.00    -0.280 N 
HETATM   19  C7  UNL     1      26.369  -9.225  14.840  1.00  0.00     0.496 C 
HETATM   20  N8  UNL     1      26.326  -8.267  15.937  1.00  0.00    -0.032 N 
HETATM   21  N9  UNL     1      25.085  -9.932  14.824  1.00  0.00    -0.032 N 
ATOM     22  H83 UNL     1      26.333  -8.732  16.844  1.00  0.00     0.279 HD
ATOM     23  H82 UNL     1      27.202  -7.751  16.022  1.00  0.00     0.279 HD
ATOM     24  H81 UNL     1      25.527  -7.641  15.840  1.00  0.00     0.279 HD
ATOM     25  H93 UNL     1      25.074 -10.652  14.101  1.00  0.00     0.279 HD
ATOM     26  H92 UNL     1      24.985 -10.524  15.649  1.00  0.00     0.279 HD
ATOM     27  H91 UNL     1      24.286  -9.306  14.727  1.00  0.00     0.279 HD
BRANCH  18  28
HETATM   28  N7  UNL     1      28.662  -9.694  14.441  1.00  0.00    -0.344 N 
ATOM     29  H72 UNL     1      29.231 -10.397  13.971  1.00  0.00     0.176 HD
ATOM     30  H71 UNL     1      28.708  -8.742  14.079  1.00  0.00     0.176 HD
ENDBRANCH  18  28
ENDBRANCH  17  18
ENDBRANCH  16  17
ENDBRANCH  12  16
BRANCH   1  31
HETATM   31  N1  UNL     1      33.477 -14.003  16.772  1.00  0.00    -0.234 N 
ATOM     32  H12 UNL     1      33.986 -13.399  17.417  1.00  0.00     0.174 HD
ATOM     33  H11 UNL     1      33.940 -14.398  15.953  1.00  0.00     0.174 HD
ENDBRANCH   1  31
TORSDOF 5
ENDMDL
