MODEL 1
REMARK VINA RESULT: -5.960995748      0.000      0.000
REMARK  7 active torsions:
REMARK  status: ('A' for Active; 'I' for Inactive)
REMARK    1  A    between atoms: N1_1  and  C1_5 
REMARK    2  A    between atoms: C1_5  and  C2_6 
REMARK    3  A    between atoms: C1_5  and  C5_11 
REMARK    4  A    between atoms: C2_6  and  S1_7 
REMARK    5  A    between atoms: S1_7  and  C3_8 
REMARK    6  A    between atoms: C3_8  and  C4_9 
REMARK    7  A    between atoms: C6_17  and  O1_18 
ROOT
HETATM    1  C5  UNL     1      26.260  -9.366  14.012  1.00  0.00     0.335 C 
HETATM    2  N2  UNL     1      25.310 -10.029  14.832  1.00  0.00    -0.292 N 
ATOM      3  H2  UNL     1      25.572 -10.852  15.375  1.00  0.00     0.183 HD
HETATM    4  N3  UNL     1      24.051  -9.546  14.876  1.00  0.00    -0.245 N 
ATOM      5  H3  UNL     1      23.312 -10.034  15.381  1.00  0.00     0.203 HD
HETATM    6  N4  UNL     1      23.804  -8.362  14.208  1.00  0.00    -0.064 NA
HETATM    7  C6  UNL     1      24.917  -7.456  14.536  1.00  0.00     0.439 C 
HETATM    8  N5  UNL     1      26.046  -7.984  13.785  1.00  0.00    -0.009 N 
ATOM      9  H51 UNL     1      25.944  -7.791  12.789  1.00  0.00     0.284 HD
ATOM     10  H52 UNL     1      26.893  -7.448  13.974  1.00  0.00     0.284 HD
ENDROOT
BRANCH   1  11
HETATM   11  C1  UNL     1      27.642  -9.579  14.610  1.00  0.00     0.244 C 
BRANCH  11  12
HETATM   12  N1  UNL     1      28.422  -8.379  14.639  1.00  0.00    -0.071 N 
ATOM     13  H13 UNL     1      29.215  -8.451  15.278  1.00  0.00     0.274 HD
ATOM     14  H12 UNL     1      28.942  -8.237  13.774  1.00  0.00     0.274 HD
ATOM     15  H11 UNL     1      27.822  -7.583  14.861  1.00  0.00     0.274 HD
ENDBRANCH  11  12
BRANCH  11  16
HETATM   16  C2  UNL     1      27.513 -10.130  15.991  1.00  0.00     0.110 C 
BRANCH  16  17
HETATM   17  S1  UNL     1      28.609 -11.485  16.381  1.00  0.00    -0.166 SA
BRANCH  17  18
HETATM   18  C3  UNL     1      27.822 -12.885  17.167  1.00  0.00     0.085 C 
BRANCH  18  19
HETATM   19  C4  UNL     1      28.670 -14.137  17.110  1.00  0.00     0.096 C 
HETATM   20  S2  UNL     1      30.377 -13.805  16.685  1.00  0.00    -0.097 SA
ENDBRANCH  18  19
ENDBRANCH  17  18
ENDBRANCH  16  17
ENDBRANCH  11  16
ENDBRANCH   1  11
BRANCH   7  21
HETATM   21  O1  UNL     1      24.628  -6.160  14.164  1.00  0.00    -0.356 OA
ATOM     22  H1  UNL     1      25.291  -5.558  14.480  1.00  0.00     0.213 HD
ENDBRANCH   7  21
TORSDOF 7
ENDMDL
MODEL 2
REMARK VINA RESULT: -5.815474969      2.479      3.405
REMARK  7 active torsions:
REMARK  status: ('A' for Active; 'I' for Inactive)
REMARK    1  A    between atoms: N1_1  and  C1_5 
REMARK    2  A    between atoms: C1_5  and  C2_6 
REMARK    3  A    between atoms: C1_5  and  C5_11 
REMARK    4  A    between atoms: C2_6  and  S1_7 
REMARK    5  A    between atoms: S1_7  and  C3_8 
REMARK    6  A    between atoms: C3_8  and  C4_9 
REMARK    7  A    between atoms: C6_17  and  O1_18 
ROOT
HETATM    1  C5  UNL     1      24.465  -8.526  15.313  1.00  0.00     0.335 C 
HETATM    2  N2  UNL     1      23.303  -7.802  15.691  1.00  0.00    -0.292 N 
ATOM      3  H2  UNL     1      23.206  -6.814  15.458  1.00  0.00     0.183 HD
HETATM    4  N3  UNL     1      22.333  -8.452  16.365  1.00  0.00    -0.245 N 
ATOM      5  H3  UNL     1      21.519  -7.958  16.733  1.00  0.00     0.203 HD
HETATM    6  N4  UNL     1      22.485  -9.814  16.538  1.00  0.00    -0.064 NA
HETATM    7  C6  UNL     1      22.923 -10.354  15.241  1.00  0.00     0.439 C 
HETATM    8  N5  UNL     1      24.305  -9.920  15.117  1.00  0.00    -0.009 N 
ATOM      9  H51 UNL     1      24.911 -10.448  15.744  1.00  0.00     0.284 HD
ATOM     10  H52 UNL     1      24.700 -10.210  14.221  1.00  0.00     0.284 HD
ENDROOT
BRANCH   1  11
HETATM   11  C1  UNL     1      25.038  -7.893  14.054  1.00  0.00     0.244 C 
BRANCH  11  12
HETATM   12  N1  UNL     1      25.206  -6.477  14.177  1.00  0.00    -0.071 N 
ATOM     13  H13 UNL     1      25.781  -6.092  13.427  1.00  0.00     0.274 HD
ATOM     14  H12 UNL     1      24.345  -5.968  13.978  1.00  0.00     0.274 HD
ATOM     15  H11 UNL     1      25.579  -6.253  15.100  1.00  0.00     0.274 HD
ENDBRANCH  11  12
BRANCH  11  16
HETATM   16  C2  UNL     1      26.346  -8.530  13.722  1.00  0.00     0.110 C 
BRANCH  16  17
HETATM   17  S1  UNL     1      27.611  -8.377  14.974  1.00  0.00    -0.166 SA
BRANCH  17  18
HETATM   18  C3  UNL     1      27.786  -9.800  16.041  1.00  0.00     0.085 C 
BRANCH  18  19
HETATM   19  C4  UNL     1      28.159 -11.055  15.281  1.00  0.00     0.096 C 
HETATM   20  S2  UNL     1      28.773 -12.358  16.343  1.00  0.00    -0.097 SA
ENDBRANCH  18  19
ENDBRANCH  17  18
ENDBRANCH  16  17
ENDBRANCH  11  16
ENDBRANCH   1  11
BRANCH   7  21
HETATM   21  O1  UNL     1      22.823 -11.730  15.217  1.00  0.00    -0.356 OA
ATOM     22  H1  UNL     1      23.596 -12.121  14.828  1.00  0.00     0.213 HD
ENDBRANCH   7  21
TORSDOF 7
ENDMDL
MODEL 3
REMARK VINA RESULT: -5.746150219      1.617      1.766
REMARK  7 active torsions:
REMARK  status: ('A' for Active; 'I' for Inactive)
REMARK    1  A    between atoms: N1_1  and  C1_5 
REMARK    2  A    between atoms: C1_5  and  C2_6 
REMARK    3  A    between atoms: C1_5  and  C5_11 
REMARK    4  A    between atoms: C2_6  and  S1_7 
REMARK    5  A    between atoms: S1_7  and  C3_8 
REMARK    6  A    between atoms: C3_8  and  C4_9 
REMARK    7  A    between atoms: C6_17  and  O1_18 
ROOT
HETATM    1  C5  UNL     1      26.243  -7.750  14.656  1.00  0.00     0.335 C 
HETATM    2  N2  UNL     1      25.528  -7.979  13.451  1.00  0.00    -0.292 N 
ATOM      3  H2  UNL     1      25.977  -8.437  12.657  1.00  0.00     0.183 HD
HETATM    4  N3  UNL     1      24.243  -7.577  13.381  1.00  0.00    -0.245 N 
ATOM      5  H3  UNL     1      23.713  -7.642  12.511  1.00  0.00     0.203 HD
HETATM    6  N4  UNL     1      23.672  -7.074  14.534  1.00  0.00    -0.064 NA
HETATM    7  C6  UNL     1      24.068  -7.980  15.625  1.00  0.00     0.439 C 
HETATM    8  N5  UNL     1      25.475  -7.688  15.845  1.00  0.00    -0.009 N 
ATOM      9  H51 UNL     1      25.593  -6.787  16.308  1.00  0.00     0.284 HD
ATOM     10  H52 UNL     1      25.867  -8.297  16.564  1.00  0.00     0.284 HD
ENDROOT
BRANCH   1  11
HETATM   11  C1  UNL     1      27.313  -8.822  14.791  1.00  0.00     0.244 C 
BRANCH  11  12
HETATM   12  N1  UNL     1      28.616  -8.349  14.432  1.00  0.00    -0.071 N 
ATOM     13  H13 UNL     1      28.915  -7.566  15.015  1.00  0.00     0.274 HD
ATOM     14  H12 UNL     1      29.349  -9.010  14.687  1.00  0.00     0.274 HD
ATOM     15  H11 UNL     1      28.637  -8.117  13.439  1.00  0.00     0.274 HD
ENDBRANCH  11  12
BRANCH  11  16
HETATM   16  C2  UNL     1      27.333  -9.338  16.191  1.00  0.00     0.110 C 
BRANCH  16  17
HETATM   17  S1  UNL     1      27.496 -11.109  16.352  1.00  0.00    -0.166 SA
BRANCH  17  18
HETATM   18  C3  UNL     1      29.179 -11.713  16.331  1.00  0.00     0.085 C 
BRANCH  18  19
HETATM   19  C4  UNL     1      29.255 -13.224  16.390  1.00  0.00     0.096 C 
HETATM   20  S2  UNL     1      30.897 -13.825  16.773  1.00  0.00    -0.097 SA
ENDBRANCH  18  19
ENDBRANCH  17  18
ENDBRANCH  16  17
ENDBRANCH  11  16
ENDBRANCH   1  11
BRANCH   7  21
HETATM   21  O1  UNL     1      23.322  -7.743  16.761  1.00  0.00    -0.356 OA
ATOM     22  H1  UNL     1      23.324  -8.500  17.335  1.00  0.00     0.213 HD
ENDBRANCH   7  21
TORSDOF 7
ENDMDL
MODEL 4
REMARK VINA RESULT: -5.724141381      1.702      1.986
REMARK  7 active torsions:
REMARK  status: ('A' for Active; 'I' for Inactive)
REMARK    1  A    between atoms: N1_1  and  C1_5 
REMARK    2  A    between atoms: C1_5  and  C2_6 
REMARK    3  A    between atoms: C1_5  and  C5_11 
REMARK    4  A    between atoms: C2_6  and  S1_7 
REMARK    5  A    between atoms: S1_7  and  C3_8 
REMARK    6  A    between atoms: C3_8  and  C4_9 
REMARK    7  A    between atoms: C6_17  and  O1_18 
ROOT
HETATM    1  C5  UNL     1      25.716  -8.109  14.759  1.00  0.00     0.335 C 
HETATM    2  N2  UNL     1      25.062  -7.905  13.515  1.00  0.00    -0.292 N 
ATOM      3  H2  UNL     1      25.428  -8.321  12.658  1.00  0.00     0.183 HD
HETATM    4  N3  UNL     1      23.945  -7.150  13.494  1.00  0.00    -0.245 N 
ATOM      5  H3  UNL     1      23.487  -6.904  12.615  1.00  0.00     0.203 HD
HETATM    6  N4  UNL     1      23.446  -6.721  14.709  1.00  0.00    -0.064 NA
HETATM    7  C6  UNL     1      23.493  -7.883  15.612  1.00  0.00     0.439 C 
HETATM    8  N5  UNL     1      24.905  -8.046  15.918  1.00  0.00    -0.009 N 
ATOM      9  H51 UNL     1      25.229  -7.314  16.550  1.00  0.00     0.284 HD
ATOM     10  H52 UNL     1      25.057  -8.860  16.515  1.00  0.00     0.284 HD
ENDROOT
BRANCH   1  11
HETATM   11  C1  UNL     1      26.438  -9.447  14.709  1.00  0.00     0.244 C 
BRANCH  11  12
HETATM   12  N1  UNL     1      27.248  -9.593  13.537  1.00  0.00    -0.071 N 
ATOM     13  H13 UNL     1      28.014  -8.919  13.513  1.00  0.00     0.274 HD
ATOM     14  H12 UNL     1      27.805 -10.447  13.559  1.00  0.00     0.274 HD
ATOM     15  H11 UNL     1      26.662  -9.538  12.704  1.00  0.00     0.274 HD
ENDBRANCH  11  12
BRANCH  11  16
HETATM   16  C2  UNL     1      27.282  -9.608  15.929  1.00  0.00     0.110 C 
BRANCH  16  17
HETATM   17  S1  UNL     1      28.406 -10.995  15.904  1.00  0.00    -0.166 SA
BRANCH  17  18
HETATM   18  C3  UNL     1      27.943 -12.356  16.967  1.00  0.00     0.085 C 
BRANCH  18  19
HETATM   19  C4  UNL     1      28.895 -13.528  16.859  1.00  0.00     0.096 C 
HETATM   20  S2  UNL     1      28.221 -15.040  17.540  1.00  0.00    -0.097 SA
ENDBRANCH  18  19
ENDBRANCH  17  18
ENDBRANCH  16  17
ENDBRANCH  11  16
ENDBRANCH   1  11
BRANCH   7  21
HETATM   21  O1  UNL     1      22.754  -7.652  16.754  1.00  0.00    -0.356 OA
ATOM     22  H1  UNL     1      23.057  -6.873  17.205  1.00  0.00     0.213 HD
ENDBRANCH   7  21
TORSDOF 7
ENDMDL
MODEL 5
REMARK VINA RESULT: -5.611887200      1.772      2.066
REMARK  7 active torsions:
REMARK  status: ('A' for Active; 'I' for Inactive)
REMARK    1  A    between atoms: N1_1  and  C1_5 
REMARK    2  A    between atoms: C1_5  and  C2_6 
REMARK    3  A    between atoms: C1_5  and  C5_11 
REMARK    4  A    between atoms: C2_6  and  S1_7 
REMARK    5  A    between atoms: S1_7  and  C3_8 
REMARK    6  A    between atoms: C3_8  and  C4_9 
REMARK    7  A    between atoms: C6_17  and  O1_18 
ROOT
HETATM    1  C5  UNL     1      26.173  -7.535  14.991  1.00  0.00     0.335 C 
HETATM    2  N2  UNL     1      26.230  -7.938  13.630  1.00  0.00    -0.292 N 
ATOM      3  H2  UNL     1      27.124  -8.012  13.145  1.00  0.00     0.183 HD
HETATM    4  N3  UNL     1      25.074  -8.220  12.996  1.00  0.00    -0.245 N 
ATOM      5  H3  UNL     1      25.054  -8.430  11.997  1.00  0.00     0.203 HD
HETATM    6  N4  UNL     1      23.918  -8.211  13.752  1.00  0.00    -0.064 NA
HETATM    7  C6  UNL     1      24.228  -8.929  14.999  1.00  0.00     0.439 C 
HETATM    8  N5  UNL     1      25.072  -8.008  15.745  1.00  0.00    -0.009 N 
ATOM      9  H51 UNL     1      24.525  -7.232  16.116  1.00  0.00     0.284 HD
ATOM     10  H52 UNL     1      25.383  -8.427  16.622  1.00  0.00     0.284 HD
ENDROOT
BRANCH   1  11
HETATM   11  C1  UNL     1      27.472  -7.945  15.668  1.00  0.00     0.244 C 
BRANCH  11  12
HETATM   12  N1  UNL     1      27.849  -7.054  16.724  1.00  0.00    -0.071 N 
ATOM     13  H13 UNL     1      28.862  -6.969  16.812  1.00  0.00     0.274 HD
ATOM     14  H12 UNL     1      27.638  -6.082  16.500  1.00  0.00     0.274 HD
ATOM     15  H11 UNL     1      27.411  -7.350  17.596  1.00  0.00     0.274 HD
ENDBRANCH  11  12
BRANCH  11  16
HETATM   16  C2  UNL     1      27.346  -9.333  16.200  1.00  0.00     0.110 C 
BRANCH  16  17
HETATM   17  S1  UNL     1      28.247 -10.584  15.299  1.00  0.00    -0.166 SA
BRANCH  17  18
HETATM   18  C3  UNL     1      29.167 -11.728  16.319  1.00  0.00     0.085 C 
BRANCH  18  19
HETATM   19  C4  UNL     1      28.328 -12.901  16.780  1.00  0.00     0.096 C 
HETATM   20  S2  UNL     1      29.300 -14.364  17.121  1.00  0.00    -0.097 SA
ENDBRANCH  18  19
ENDBRANCH  17  18
ENDBRANCH  16  17
ENDBRANCH  11  16
ENDBRANCH   1  11
BRANCH   7  21
HETATM   21  O1  UNL     1      23.078  -9.234  15.695  1.00  0.00    -0.356 OA
ATOM     22  H1  UNL     1      22.982  -8.675  16.457  1.00  0.00     0.213 HD
ENDBRANCH   7  21
TORSDOF 7
ENDMDL
