MODEL 1
REMARK VINA RESULT: -6.148724225      0.000      0.000
REMARK  8 active torsions:
REMARK  status: ('A' for Active; 'I' for Inactive)
REMARK    1  A    between atoms: N1_1  and  C1_4 
REMARK    2  A    between atoms: C2_7  and  C3_8 
REMARK    3  A    between atoms: C3_8  and  N3_9 
REMARK    4  A    between atoms: N5_15  and  C4_16 
REMARK    5  A    between atoms: C5_17  and  O1_18 
REMARK    6  A    between atoms: C7_21  and  C8_22 
REMARK    7  A    between atoms: C8_22  and  N6_23 
REMARK    8  A    between atoms: N6_23  and  N7_24 
ROOT
HETATM    1  C1  UNL     1      27.064  -9.182  14.001  1.00  0.00     0.694 A 
HETATM    2  N2  UNL     1      27.929 -10.291  14.200  1.00  0.00    -0.176 N 
ATOM      3  H2  UNL     1      28.484 -10.764  13.486  1.00  0.00     0.185 HD
HETATM    4  C2  UNL     1      27.879 -10.597  15.497  1.00  0.00     0.138 A 
HETATM    5  N4  UNL     1      27.024  -9.682  16.065  1.00  0.00    -0.270 N 
ATOM      6  H4  UNL     1      26.790  -9.610  17.054  1.00  0.00     0.189 HD
HETATM    7  N5  UNL     1      26.569  -8.927  15.116  1.00  0.00    -0.115 N 
ENDROOT
BRANCH   7   8
HETATM    8  C4  UNL     1      25.537  -7.967  15.315  1.00  0.00     0.160 C 
HETATM    9  C5  UNL     1      24.837  -7.243  14.203  1.00  0.00     0.144 C 
HETATM   10  C6  UNL     1      23.608  -7.246  15.069  1.00  0.00     0.042 C 
HETATM   11  C7  UNL     1      24.163  -8.530  15.746  1.00  0.00     0.032 C 
BRANCH   9  12
HETATM   12  O1  UNL     1      25.307  -5.987  13.863  1.00  0.00    -0.393 OA
ATOM     13  H1  UNL     1      25.613  -5.427  14.567  1.00  0.00     0.210 HD
ENDBRANCH   9  12
BRANCH  11  14
HETATM   14  C8  UNL     1      23.692  -9.709  15.006  1.00  0.00     0.141 C 
BRANCH  14  15
HETATM   15  N6  UNL     1      22.859 -10.438  15.981  1.00  0.00    -0.148 NA
BRANCH  15  16
HETATM   16  N7  UNL     1      22.640 -11.703  15.400  1.00  0.00    -0.348 N 
ATOM     17  H72 UNL     1      22.145 -12.490  15.819  1.00  0.00     0.172 HD
ATOM     18  H71 UNL     1      23.082 -11.651  14.482  1.00  0.00     0.172 HD
ENDBRANCH  15  16
ENDBRANCH  14  15
ENDBRANCH  11  14
ENDBRANCH   7   8
BRANCH   1  19
HETATM   19  N1  UNL     1      26.823  -8.811  12.716  1.00  0.00    -0.233 N 
ATOM     20  H12 UNL     1      27.283  -8.943  11.815  1.00  0.00     0.174 HD
ATOM     21  H11 UNL     1      26.110  -8.098  12.566  1.00  0.00     0.174 HD
ENDBRANCH   1  19
BRANCH   4  22
HETATM   22  C3  UNL     1      28.513 -11.830  16.100  1.00  0.00     0.307 C 
BRANCH  22  23
HETATM   23  N3  UNL     1      27.703 -12.397  17.105  1.00  0.00    -0.073 N 
ATOM     24  H33 UNL     1      28.177 -12.399  18.008  1.00  0.00     0.274 HD
ATOM     25  H32 UNL     1      26.918 -11.788  17.338  1.00  0.00     0.274 HD
ATOM     26  H31 UNL     1      27.384 -13.332  16.852  1.00  0.00     0.274 HD
ENDBRANCH  22  23
ENDBRANCH   4  22
TORSDOF 8
ENDMDL
MODEL 2
REMARK VINA RESULT: -5.977819650      1.652      4.135
REMARK  8 active torsions:
REMARK  status: ('A' for Active; 'I' for Inactive)
REMARK    1  A    between atoms: N1_1  and  C1_4 
REMARK    2  A    between atoms: C2_7  and  C3_8 
REMARK    3  A    between atoms: C3_8  and  N3_9 
REMARK    4  A    between atoms: N5_15  and  C4_16 
REMARK    5  A    between atoms: C5_17  and  O1_18 
REMARK    6  A    between atoms: C7_21  and  C8_22 
REMARK    7  A    between atoms: C8_22  and  N6_23 
REMARK    8  A    between atoms: N6_23  and  N7_24 
ROOT
HETATM    1  C1  UNL     1      23.342  -8.864  15.339  1.00  0.00     0.694 A 
HETATM    2  N2  UNL     1      22.518  -9.890  15.876  1.00  0.00    -0.176 N 
ATOM      3  H2  UNL     1      21.682  -9.761  16.447  1.00  0.00     0.185 HD
HETATM    4  C2  UNL     1      23.044 -11.054  15.492  1.00  0.00     0.138 A 
HETATM    5  N4  UNL     1      24.141 -10.733  14.727  1.00  0.00    -0.270 N 
ATOM      6  H4  UNL     1      24.752 -11.392  14.246  1.00  0.00     0.189 HD
HETATM    7  N5  UNL     1      24.258  -9.444  14.727  1.00  0.00    -0.115 N 
ENDROOT
BRANCH   7   8
HETATM    8  C4  UNL     1      25.376  -8.766  14.164  1.00  0.00     0.160 C 
HETATM    9  C5  UNL     1      25.873  -7.430  14.632  1.00  0.00     0.144 C 
HETATM   10  C6  UNL     1      27.255  -7.893  14.266  1.00  0.00     0.042 C 
HETATM   11  C7  UNL     1      26.767  -9.348  14.511  1.00  0.00     0.032 C 
BRANCH   9  12
HETATM   12  O1  UNL     1      25.433  -6.309  13.949  1.00  0.00    -0.393 OA
ATOM     13  H1  UNL     1      25.474  -6.329  13.000  1.00  0.00     0.210 HD
ENDBRANCH   9  12
BRANCH  11  14
HETATM   14  C8  UNL     1      26.981  -9.699  15.922  1.00  0.00     0.141 C 
BRANCH  14  15
HETATM   15  N6  UNL     1      27.061 -11.171  15.919  1.00  0.00    -0.148 NA
BRANCH  15  16
HETATM   16  N7  UNL     1      28.088 -11.477  15.003  1.00  0.00    -0.348 N 
ATOM     17  H72 UNL     1      29.005 -11.035  14.944  1.00  0.00     0.172 HD
ATOM     18  H71 UNL     1      27.710 -12.228  14.425  1.00  0.00     0.172 HD
ENDBRANCH  15  16
ENDBRANCH  14  15
ENDBRANCH  11  14
ENDBRANCH   7   8
BRANCH   1  19
HETATM   19  N1  UNL     1      23.092  -7.594  15.754  1.00  0.00    -0.233 N 
ATOM     20  H12 UNL     1      23.002  -7.118  16.652  1.00  0.00     0.174 HD
ATOM     21  H11 UNL     1      22.748  -6.938  15.052  1.00  0.00     0.174 HD
ENDBRANCH   1  19
BRANCH   4  22
HETATM   22  C3  UNL     1      22.579 -12.400  15.998  1.00  0.00     0.307 C 
BRANCH  22  23
HETATM   23  N3  UNL     1      21.928 -13.142  14.989  1.00  0.00    -0.073 N 
ATOM     24  H33 UNL     1      21.477 -13.972  15.372  1.00  0.00     0.274 HD
ATOM     25  H32 UNL     1      21.101 -12.654  14.645  1.00  0.00     0.274 HD
ATOM     26  H31 UNL     1      22.562 -13.382  14.227  1.00  0.00     0.274 HD
ENDBRANCH  22  23
ENDBRANCH   4  22
TORSDOF 8
ENDMDL
MODEL 3
REMARK VINA RESULT: -5.902597396      2.723      4.404
REMARK  8 active torsions:
REMARK  status: ('A' for Active; 'I' for Inactive)
REMARK    1  A    between atoms: N1_1  and  C1_4 
REMARK    2  A    between atoms: C2_7  and  C3_8 
REMARK    3  A    between atoms: C3_8  and  N3_9 
REMARK    4  A    between atoms: N5_15  and  C4_16 
REMARK    5  A    between atoms: C5_17  and  O1_18 
REMARK    6  A    between atoms: C7_21  and  C8_22 
REMARK    7  A    between atoms: C8_22  and  N6_23 
REMARK    8  A    between atoms: N6_23  and  N7_24 
ROOT
HETATM    1  C1  UNL     1      22.816  -9.094  16.103  1.00  0.00     0.694 A 
HETATM    2  N2  UNL     1      21.981 -10.237  15.969  1.00  0.00    -0.176 N 
ATOM      3  H2  UNL     1      20.998 -10.304  16.234  1.00  0.00     0.185 HD
HETATM    4  C2  UNL     1      22.726 -11.203  15.432  1.00  0.00     0.138 A 
HETATM    5  N4  UNL     1      23.968 -10.648  15.228  1.00  0.00    -0.270 N 
ATOM      6  H4  UNL     1      24.769 -11.108  14.797  1.00  0.00     0.189 HD
HETATM    7  N5  UNL     1      23.937  -9.437  15.683  1.00  0.00    -0.115 N 
ENDROOT
BRANCH   7   8
HETATM    8  C4  UNL     1      25.095  -8.615  15.781  1.00  0.00     0.160 C 
HETATM    9  C5  UNL     1      26.502  -9.126  15.665  1.00  0.00     0.144 C 
HETATM   10  C6  UNL     1      26.857  -7.804  15.044  1.00  0.00     0.042 C 
HETATM   11  C7  UNL     1      25.381  -7.701  14.566  1.00  0.00     0.032 C 
BRANCH   9  12
HETATM   12  O1  UNL     1      27.174  -9.418  16.839  1.00  0.00    -0.393 OA
ATOM     13  H1  UNL     1      26.666  -9.776  17.558  1.00  0.00     0.210 HD
ENDBRANCH   9  12
BRANCH  11  14
HETATM   14  C8  UNL     1      25.256  -8.333  13.244  1.00  0.00     0.141 C 
BRANCH  14  15
HETATM   15  N6  UNL     1      23.836  -8.145  12.890  1.00  0.00    -0.148 NA
BRANCH  15  16
HETATM   16  N7  UNL     1      23.492  -6.885  13.421  1.00  0.00    -0.348 N 
ATOM     17  H72 UNL     1      23.512  -6.611  14.403  1.00  0.00     0.172 HD
ATOM     18  H71 UNL     1      23.225  -6.323  12.613  1.00  0.00     0.172 HD
ENDBRANCH  15  16
ENDBRANCH  14  15
ENDBRANCH  11  14
ENDBRANCH   7   8
BRANCH   1  19
HETATM   19  N1  UNL     1      22.309  -8.040  16.795  1.00  0.00    -0.233 N 
ATOM     20  H12 UNL     1      22.659  -7.379  17.488  1.00  0.00     0.174 HD
ATOM     21  H11 UNL     1      21.296  -7.922  16.781  1.00  0.00     0.174 HD
ENDBRANCH   1  19
BRANCH   4  22
HETATM   22  C3  UNL     1      22.274 -12.639  15.288  1.00  0.00     0.307 C 
BRANCH  22  23
HETATM   23  N3  UNL     1      22.642 -13.418  16.405  1.00  0.00    -0.073 N 
ATOM     24  H33 UNL     1      23.504 -13.934  16.230  1.00  0.00     0.274 HD
ATOM     25  H32 UNL     1      22.960 -12.833  17.178  1.00  0.00     0.274 HD
ATOM     26  H31 UNL     1      21.889 -14.041  16.697  1.00  0.00     0.274 HD
ENDBRANCH  22  23
ENDBRANCH   4  22
TORSDOF 8
ENDMDL
MODEL 4
REMARK VINA RESULT: -5.849826955      1.840      3.186
REMARK  8 active torsions:
REMARK  status: ('A' for Active; 'I' for Inactive)
REMARK    1  A    between atoms: N1_1  and  C1_4 
REMARK    2  A    between atoms: C2_7  and  C3_8 
REMARK    3  A    between atoms: C3_8  and  N3_9 
REMARK    4  A    between atoms: N5_15  and  C4_16 
REMARK    5  A    between atoms: C5_17  and  O1_18 
REMARK    6  A    between atoms: C7_21  and  C8_22 
REMARK    7  A    between atoms: C8_22  and  N6_23 
REMARK    8  A    between atoms: N6_23  and  N7_24 
ROOT
HETATM    1  C1  UNL     1      25.648 -10.459  15.071  1.00  0.00     0.694 A 
HETATM    2  N2  UNL     1      26.457 -11.430  15.720  1.00  0.00    -0.176 N 
ATOM      3  H2  UNL     1      26.135 -12.296  16.154  1.00  0.00     0.185 HD
HETATM    4  C2  UNL     1      27.716 -10.997  15.654  1.00  0.00     0.138 A 
HETATM    5  N4  UNL     1      27.666  -9.808  14.964  1.00  0.00    -0.270 N 
ATOM      6  H4  UNL     1      28.464  -9.229  14.705  1.00  0.00     0.189 HD
HETATM    7  N5  UNL     1      26.424  -9.557  14.702  1.00  0.00    -0.115 N 
ENDROOT
BRANCH   7   8
HETATM    8  C4  UNL     1      25.983  -8.328  14.134  1.00  0.00     0.160 C 
HETATM    9  C5  UNL     1      24.554  -7.872  14.121  1.00  0.00     0.144 C 
HETATM   10  C6  UNL     1      25.074  -6.466  14.228  1.00  0.00     0.042 C 
HETATM   11  C7  UNL     1      26.331  -7.050  14.932  1.00  0.00     0.032 C 
BRANCH   9  12
HETATM   12  O1  UNL     1      23.810  -8.133  12.983  1.00  0.00    -0.393 OA
ATOM     13  H1  UNL     1      23.859  -9.009  12.618  1.00  0.00     0.210 HD
ENDBRANCH   9  12
BRANCH  11  14
HETATM   14  C8  UNL     1      26.088  -7.113  16.381  1.00  0.00     0.141 C 
BRANCH  14  15
HETATM   15  N6  UNL     1      27.433  -6.999  16.976  1.00  0.00    -0.148 NA
BRANCH  15  16
HETATM   16  N7  UNL     1      27.380  -5.840  17.776  1.00  0.00    -0.348 N 
ATOM     17  H72 UNL     1      28.115  -5.142  17.890  1.00  0.00     0.172 HD
ATOM     18  H71 UNL     1      26.456  -5.860  18.207  1.00  0.00     0.172 HD
ENDBRANCH  15  16
ENDBRANCH  14  15
ENDBRANCH  11  14
ENDBRANCH   7   8
BRANCH   1  19
HETATM   19  N1  UNL     1      24.301 -10.610  15.175  1.00  0.00    -0.233 N 
ATOM     20  H12 UNL     1      23.547 -10.148  15.682  1.00  0.00     0.174 HD
ATOM     21  H11 UNL     1      23.904 -11.473  14.803  1.00  0.00     0.174 HD
ENDBRANCH   1  19
BRANCH   4  22
HETATM   22  C3  UNL     1      28.873 -11.644  16.380  1.00  0.00     0.307 C 
BRANCH  22  23
HETATM   23  N3  UNL     1      28.772 -13.051  16.377  1.00  0.00    -0.073 N 
ATOM     24  H33 UNL     1      27.984 -13.368  16.942  1.00  0.00     0.274 HD
ATOM     25  H32 UNL     1      28.467 -13.400  15.468  1.00  0.00     0.274 HD
ATOM     26  H31 UNL     1      29.642 -13.494  16.672  1.00  0.00     0.274 HD
ENDBRANCH  22  23
ENDBRANCH   4  22
TORSDOF 8
ENDMDL
MODEL 5
REMARK VINA RESULT: -5.790901663      2.848      4.189
REMARK  8 active torsions:
REMARK  status: ('A' for Active; 'I' for Inactive)
REMARK    1  A    between atoms: N1_1  and  C1_4 
REMARK    2  A    between atoms: C2_7  and  C3_8 
REMARK    3  A    between atoms: C3_8  and  N3_9 
REMARK    4  A    between atoms: N5_15  and  C4_16 
REMARK    5  A    between atoms: C5_17  and  O1_18 
REMARK    6  A    between atoms: C7_21  and  C8_22 
REMARK    7  A    between atoms: C8_22  and  N6_23 
REMARK    8  A    between atoms: N6_23  and  N7_24 
ROOT
HETATM    1  C1  UNL     1      26.000  -6.858  15.103  1.00  0.00     0.694 A 
HETATM    2  N2  UNL     1      26.160  -5.907  16.147  1.00  0.00    -0.176 N 
ATOM      3  H2  UNL     1      25.648  -5.032  16.254  1.00  0.00     0.185 HD
HETATM    4  C2  UNL     1      27.108  -6.376  16.959  1.00  0.00     0.138 A 
HETATM    5  N4  UNL     1      27.489  -7.587  16.429  1.00  0.00    -0.270 N 
ATOM      6  H4  UNL     1      28.173  -8.230  16.827  1.00  0.00     0.189 HD
HETATM    7  N5  UNL     1      26.822  -7.764  15.333  1.00  0.00    -0.115 N 
ENDROOT
BRANCH   7   8
HETATM    8  C4  UNL     1      27.076  -8.840  14.437  1.00  0.00     0.160 C 
HETATM    9  C5  UNL     1      27.710 -10.140  14.840  1.00  0.00     0.144 C 
HETATM   10  C6  UNL     1      26.862 -10.800  13.789  1.00  0.00     0.042 C 
HETATM   11  C7  UNL     1      25.837  -9.646  13.978  1.00  0.00     0.032 C 
BRANCH   9  12
HETATM   12  O1  UNL     1      29.075 -10.269  14.653  1.00  0.00    -0.393 OA
ATOM     13  H1  UNL     1      29.371 -10.708  13.864  1.00  0.00     0.210 HD
ENDBRANCH   9  12
BRANCH  11  14
HETATM   14  C8  UNL     1      24.884 -10.014  15.035  1.00  0.00     0.141 C 
BRANCH  14  15
HETATM   15  N6  UNL     1      23.607  -9.425  14.588  1.00  0.00    -0.148 NA
BRANCH  15  16
HETATM   16  N7  UNL     1      23.028  -8.886  15.754  1.00  0.00    -0.348 N 
ATOM     17  H72 UNL     1      22.843  -7.901  15.946  1.00  0.00     0.172 HD
ATOM     18  H71 UNL     1      22.839  -9.692  16.351  1.00  0.00     0.172 HD
ENDBRANCH  15  16
ENDBRANCH  14  15
ENDBRANCH  11  14
ENDBRANCH   7   8
BRANCH   1  19
HETATM   19  N1  UNL     1      25.205  -6.499  14.060  1.00  0.00    -0.233 N 
ATOM     20  H12 UNL     1      24.634  -5.690  13.816  1.00  0.00     0.174 HD
ATOM     21  H11 UNL     1      24.952  -7.233  13.398  1.00  0.00     0.174 HD
ENDBRANCH   1  19
BRANCH   4  22
HETATM   22  C3  UNL     1      27.712  -5.587  18.098  1.00  0.00     0.307 C 
BRANCH  22  23
HETATM   23  N3  UNL     1      27.199  -4.275  18.156  1.00  0.00    -0.073 N 
ATOM     24  H33 UNL     1      27.302  -3.877  19.090  1.00  0.00     0.274 HD
ATOM     25  H32 UNL     1      27.788  -3.622  17.638  1.00  0.00     0.274 HD
ATOM     26  H31 UNL     1      26.230  -4.232  17.840  1.00  0.00     0.274 HD
ENDBRANCH  22  23
ENDBRANCH   4  22
TORSDOF 8
ENDMDL
