MODEL 1
REMARK VINA RESULT: -5.701181730      0.000      0.000
REMARK  6 active torsions:
REMARK  status: ('A' for Active; 'I' for Inactive)
REMARK    1  A    between atoms: N1_1  and  C1_4 
REMARK    2  A    between atoms: N6_17  and  N7_18 
REMARK    3  A    between atoms: N7_18  and  C5_20 
REMARK    4  A    between atoms: C5_20  and  C6_21 
REMARK    5  A    between atoms: C6_21  and  C7_22 
REMARK    6  A    between atoms: C7_22  and  O1_23 
ROOT
HETATM    1  C1  UNL     1      24.320  -9.432  15.016  1.00  0.00     0.133 A 
HETATM    2  N2  UNL     1      23.402  -8.540  14.571  1.00  0.00    -0.337 N 
ATOM      3  H2  UNL     1      22.410  -8.670  14.770  1.00  0.00     0.168 HD
HETATM    4  C2  UNL     1      23.824  -7.488  13.869  1.00  0.00     0.183 A 
HETATM    5  N3  UNL     1      25.126  -7.308  13.603  1.00  0.00    -0.336 N 
ATOM      6  H3  UNL     1      25.408  -6.490  13.061  1.00  0.00     0.168 HD
HETATM    7  C3  UNL     1      26.076  -8.164  14.021  1.00  0.00     0.155 A 
HETATM    8  N4  UNL     1      27.402  -8.184  13.874  1.00  0.00    -0.173 N 
ATOM      9  H4  UNL     1      27.969  -7.495  13.380  1.00  0.00     0.186 HD
HETATM   10  C4  UNL     1      27.840  -9.269  14.494  1.00  0.00     0.699 A 
HETATM   11  N5  UNL     1      29.093  -9.577  14.535  1.00  0.00    -0.233 N 
ATOM     12  H51 UNL     1      29.431 -10.413  15.012  1.00  0.00     0.174 HD
ATOM     13  H52 UNL     1      29.875  -9.067  14.124  1.00  0.00     0.174 HD
HETATM   14  N6  UNL     1      26.774  -9.965  15.053  1.00  0.00    -0.084 N 
HETATM   15  C8  UNL     1      25.664  -9.272  14.756  1.00  0.00     0.162 A 
ENDROOT
BRANCH  14  16
HETATM   16  N7  UNL     1      26.963 -11.124  15.746  1.00  0.00    -0.315 N 
ATOM     17  H7  UNL     1      26.405 -11.874  15.339  1.00  0.00     0.181 HD
BRANCH  16  18
HETATM   18  C5  UNL     1      27.690 -11.601  16.849  1.00  0.00     0.142 C 
BRANCH  18  19
HETATM   19  C6  UNL     1      28.258 -13.039  16.529  1.00  0.00     0.047 C 
BRANCH  19  20
HETATM   20  C7  UNL     1      29.761 -12.875  16.523  1.00  0.00     0.165 C 
BRANCH  20  21
HETATM   21  O1  UNL     1      30.070 -11.520  16.494  1.00  0.00    -0.401 OA
ATOM     22  H1  UNL     1      30.998 -11.409  16.663  1.00  0.00     0.209 HD
ENDBRANCH  20  21
ENDBRANCH  19  20
ENDBRANCH  18  19
ENDBRANCH  16  18
ENDBRANCH  14  16
BRANCH   1  23
HETATM   23  N1  UNL     1      23.897 -10.415  15.672  1.00  0.00    -0.383 N 
ATOM     24  H12 UNL     1      23.331 -10.286  16.511  1.00  0.00     0.157 HD
ATOM     25  H11 UNL     1      24.145 -11.346  15.335  1.00  0.00     0.157 HD
ENDBRANCH   1  23
TORSDOF 6
ENDMDL
MODEL 2
REMARK VINA RESULT: -5.615449276      1.408      2.144
REMARK  6 active torsions:
REMARK  status: ('A' for Active; 'I' for Inactive)
REMARK    1  A    between atoms: N1_1  and  C1_4 
REMARK    2  A    between atoms: N6_17  and  N7_18 
REMARK    3  A    between atoms: N7_18  and  C5_20 
REMARK    4  A    between atoms: C5_20  and  C6_21 
REMARK    5  A    between atoms: C6_21  and  C7_22 
REMARK    6  A    between atoms: C7_22  and  O1_23 
ROOT
HETATM    1  C1  UNL     1      23.477 -10.107  15.551  1.00  0.00     0.133 A 
HETATM    2  N2  UNL     1      22.345  -9.696  16.171  1.00  0.00    -0.337 N 
ATOM      3  H2  UNL     1      21.658 -10.374  16.503  1.00  0.00     0.168 HD
HETATM    4  C2  UNL     1      22.147  -8.388  16.337  1.00  0.00     0.183 A 
HETATM    5  N3  UNL     1      23.044  -7.490  15.902  1.00  0.00    -0.336 N 
ATOM      6  H3  UNL     1      22.855  -6.498  16.048  1.00  0.00     0.168 HD
HETATM    7  C3  UNL     1      24.183  -7.847  15.281  1.00  0.00     0.155 A 
HETATM    8  N4  UNL     1      25.195  -7.139  14.776  1.00  0.00    -0.173 N 
ATOM      9  H4  UNL     1      25.286  -6.123  14.775  1.00  0.00     0.186 HD
HETATM   10  C4  UNL     1      26.058  -8.009  14.276  1.00  0.00     0.699 A 
HETATM   11  N5  UNL     1      27.157  -7.637  13.708  1.00  0.00    -0.233 N 
ATOM     12  H51 UNL     1      27.822  -8.307  13.323  1.00  0.00     0.174 HD
ATOM     13  H52 UNL     1      27.497  -6.685  13.571  1.00  0.00     0.174 HD
HETATM   14  N6  UNL     1      25.595  -9.307  14.462  1.00  0.00    -0.084 N 
HETATM   15  C8  UNL     1      24.415  -9.206  15.094  1.00  0.00     0.162 A 
ENDROOT
BRANCH  14  16
HETATM   16  N7  UNL     1      26.305 -10.388  14.032  1.00  0.00    -0.315 N 
ATOM     17  H7  UNL     1      25.822 -10.841  13.256  1.00  0.00     0.181 HD
BRANCH  16  18
HETATM   18  C5  UNL     1      27.496 -11.068  14.329  1.00  0.00     0.142 C 
BRANCH  18  19
HETATM   19  C6  UNL     1      27.867 -10.853  15.849  1.00  0.00     0.047 C 
BRANCH  19  20
HETATM   20  C7  UNL     1      28.791 -11.999  16.194  1.00  0.00     0.165 C 
BRANCH  20  21
HETATM   21  O1  UNL     1      30.055 -11.494  16.479  1.00  0.00    -0.401 OA
ATOM     22  H1  UNL     1      30.708 -12.031  16.046  1.00  0.00     0.209 HD
ENDBRANCH  20  21
ENDBRANCH  19  20
ENDBRANCH  18  19
ENDBRANCH  16  18
ENDBRANCH  14  16
BRANCH   1  23
HETATM   23  N1  UNL     1      23.638 -11.344  15.404  1.00  0.00    -0.383 N 
ATOM     24  H12 UNL     1      23.158 -12.014  16.005  1.00  0.00     0.157 HD
ATOM     25  H11 UNL     1      24.270 -11.649  14.663  1.00  0.00     0.157 HD
ENDBRANCH   1  23
TORSDOF 6
ENDMDL
MODEL 3
REMARK VINA RESULT: -5.247384061      0.983      1.011
REMARK  6 active torsions:
REMARK  status: ('A' for Active; 'I' for Inactive)
REMARK    1  A    between atoms: N1_1  and  C1_4 
REMARK    2  A    between atoms: N6_17  and  N7_18 
REMARK    3  A    between atoms: N7_18  and  C5_20 
REMARK    4  A    between atoms: C5_20  and  C6_21 
REMARK    5  A    between atoms: C6_21  and  C7_22 
REMARK    6  A    between atoms: C7_22  and  O1_23 
ROOT
HETATM    1  C1  UNL     1      24.328  -9.381  14.939  1.00  0.00     0.133 A 
HETATM    2  N2  UNL     1      23.395  -8.468  14.579  1.00  0.00    -0.337 N 
ATOM      3  H2  UNL     1      22.404  -8.642  14.747  1.00  0.00     0.168 HD
HETATM    4  C2  UNL     1      23.799  -7.336  14.001  1.00  0.00     0.183 A 
HETATM    5  N3  UNL     1      25.099  -7.099  13.775  1.00  0.00    -0.336 N 
ATOM      6  H3  UNL     1      25.367  -6.221  13.329  1.00  0.00     0.168 HD
HETATM    7  C3  UNL     1      26.065  -7.973  14.113  1.00  0.00     0.155 A 
HETATM    8  N4  UNL     1      27.392  -7.945  13.985  1.00  0.00    -0.173 N 
ATOM      9  H4  UNL     1      27.948  -7.194  13.576  1.00  0.00     0.186 HD
HETATM   10  C4  UNL     1      27.850  -9.080  14.490  1.00  0.00     0.699 A 
HETATM   11  N5  UNL     1      29.110  -9.362  14.517  1.00  0.00    -0.233 N 
ATOM     12  H51 UNL     1      29.462 -10.236  14.906  1.00  0.00     0.174 HD
ATOM     13  H52 UNL     1      29.883  -8.791  14.175  1.00  0.00     0.174 HD
HETATM   14  N6  UNL     1      26.795  -9.857  14.955  1.00  0.00    -0.084 N 
HETATM   15  C8  UNL     1      25.671  -9.162  14.718  1.00  0.00     0.162 A 
ENDROOT
BRANCH  14  16
HETATM   16  N7  UNL     1      27.004 -11.079  15.522  1.00  0.00    -0.315 N 
ATOM     17  H7  UNL     1      26.730 -11.820  14.876  1.00  0.00     0.181 HD
BRANCH  16  18
HETATM   18  C5  UNL     1      27.480 -11.631  16.722  1.00  0.00     0.142 C 
BRANCH  18  19
HETATM   19  C6  UNL     1      28.945 -12.182  16.511  1.00  0.00     0.047 C 
BRANCH  19  20
HETATM   20  C7  UNL     1      28.815 -13.686  16.595  1.00  0.00     0.165 C 
BRANCH  20  21
HETATM   21  O1  UNL     1      27.468 -14.022  16.668  1.00  0.00    -0.401 OA
ATOM     22  H1  UNL     1      26.973 -13.262  16.952  1.00  0.00     0.209 HD
ENDBRANCH  20  21
ENDBRANCH  19  20
ENDBRANCH  18  19
ENDBRANCH  16  18
ENDBRANCH  14  16
BRANCH   1  23
HETATM   23  N1  UNL     1      23.922 -10.439  15.479  1.00  0.00    -0.383 N 
ATOM     24  H12 UNL     1      24.246 -10.717  16.405  1.00  0.00     0.157 HD
ATOM     25  H11 UNL     1      23.259 -11.009  14.953  1.00  0.00     0.157 HD
ENDBRANCH   1  23
TORSDOF 6
ENDMDL
MODEL 4
REMARK VINA RESULT: -5.195554745      3.044      4.287
REMARK  6 active torsions:
REMARK  status: ('A' for Active; 'I' for Inactive)
REMARK    1  A    between atoms: N1_1  and  C1_4 
REMARK    2  A    between atoms: N6_17  and  N7_18 
REMARK    3  A    between atoms: N7_18  and  C5_20 
REMARK    4  A    between atoms: C5_20  and  C6_21 
REMARK    5  A    between atoms: C6_21  and  C7_22 
REMARK    6  A    between atoms: C7_22  and  O1_23 
ROOT
HETATM    1  C1  UNL     1      23.302  -8.759  15.834  1.00  0.00     0.133 A 
HETATM    2  N2  UNL     1      22.350  -9.720  15.905  1.00  0.00    -0.337 N 
ATOM      3  H2  UNL     1      21.419  -9.507  16.263  1.00  0.00     0.168 HD
HETATM    4  C2  UNL     1      22.657 -10.952  15.496  1.00  0.00     0.183 A 
HETATM    5  N3  UNL     1      23.878 -11.243  15.024  1.00  0.00    -0.336 N 
ATOM      6  H3  UNL     1      24.073 -12.198  14.723  1.00  0.00     0.168 HD
HETATM    7  C3  UNL     1      24.858 -10.324  14.934  1.00  0.00     0.155 A 
HETATM    8  N4  UNL     1      26.120 -10.390  14.507  1.00  0.00    -0.173 N 
ATOM      9  H4  UNL     1      26.597 -11.215  14.144  1.00  0.00     0.186 HD
HETATM   10  C4  UNL     1      26.633  -9.177  14.644  1.00  0.00     0.699 A 
HETATM   11  N5  UNL     1      27.852  -8.907  14.314  1.00  0.00    -0.233 N 
ATOM     12  H51 UNL     1      28.248  -7.973  14.420  1.00  0.00     0.174 HD
ATOM     13  H52 UNL     1      28.550  -9.543  13.929  1.00  0.00     0.174 HD
HETATM   14  N6  UNL     1      25.682  -8.310  15.170  1.00  0.00    -0.084 N 
HETATM   15  C8  UNL     1      24.565  -9.030  15.354  1.00  0.00     0.162 A 
ENDROOT
BRANCH  14  16
HETATM   16  N7  UNL     1      25.967  -6.998  15.409  1.00  0.00    -0.315 N 
ATOM     17  H7  UNL     1      26.046  -6.488  14.530  1.00  0.00     0.181 HD
BRANCH  16  18
HETATM   18  C5  UNL     1      26.185  -6.135  16.495  1.00  0.00     0.142 C 
BRANCH  18  19
HETATM   19  C6  UNL     1      27.538  -6.515  17.214  1.00  0.00     0.047 C 
BRANCH  19  20
HETATM   20  C7  UNL     1      27.943  -5.272  17.973  1.00  0.00     0.165 C 
BRANCH  20  21
HETATM   21  O1  UNL     1      26.864  -4.396  18.018  1.00  0.00    -0.401 OA
ATOM     22  H1  UNL     1      26.589  -4.196  17.131  1.00  0.00     0.209 HD
ENDBRANCH  20  21
ENDBRANCH  19  20
ENDBRANCH  18  19
ENDBRANCH  16  18
ENDBRANCH  14  16
BRANCH   1  23
HETATM   23  N1  UNL     1      22.989  -7.608  16.228  1.00  0.00    -0.383 N 
ATOM     24  H12 UNL     1      22.370  -7.474  17.027  1.00  0.00     0.157 HD
ATOM     25  H11 UNL     1      23.377  -6.816  15.715  1.00  0.00     0.157 HD
ENDBRANCH   1  23
TORSDOF 6
ENDMDL
MODEL 5
REMARK VINA RESULT: -4.871728489      1.177      2.848
REMARK  6 active torsions:
REMARK  status: ('A' for Active; 'I' for Inactive)
REMARK    1  A    between atoms: N1_1  and  C1_4 
REMARK    2  A    between atoms: N6_17  and  N7_18 
REMARK    3  A    between atoms: N7_18  and  C5_20 
REMARK    4  A    between atoms: C5_20  and  C6_21 
REMARK    5  A    between atoms: C6_21  and  C7_22 
REMARK    6  A    between atoms: C7_22  and  O1_23 
ROOT
HETATM    1  C1  UNL     1      26.234  -8.027  14.466  1.00  0.00     0.133 A 
HETATM    2  N2  UNL     1      25.961  -6.752  14.100  1.00  0.00    -0.337 N 
ATOM      3  H2  UNL     1      26.713  -6.105  13.865  1.00  0.00     0.168 HD
HETATM    4  C2  UNL     1      24.687  -6.361  14.054  1.00  0.00     0.183 A 
HETATM    5  N3  UNL     1      23.691  -7.205  14.362  1.00  0.00    -0.336 N 
ATOM      6  H3  UNL     1      22.729  -6.867  14.316  1.00  0.00     0.168 HD
HETATM    7  C3  UNL     1      23.910  -8.480  14.731  1.00  0.00     0.155 A 
HETATM    8  N4  UNL     1      23.088  -9.474  15.075  1.00  0.00    -0.173 N 
ATOM      9  H4  UNL     1      22.070  -9.434  15.120  1.00  0.00     0.186 HD
HETATM   10  C4  UNL     1      23.849 -10.523  15.348  1.00  0.00     0.699 A 
HETATM   11  N5  UNL     1      23.351 -11.656  15.716  1.00  0.00    -0.233 N 
ATOM     12  H51 UNL     1      23.937 -12.463  15.926  1.00  0.00     0.174 HD
ATOM     13  H52 UNL     1      22.367 -11.892  15.843  1.00  0.00     0.174 HD
HETATM   14  N6  UNL     1      25.191 -10.199  15.175  1.00  0.00    -0.084 N 
HETATM   15  C8  UNL     1      25.230  -8.915  14.788  1.00  0.00     0.162 A 
ENDROOT
BRANCH  14  16
HETATM   16  N7  UNL     1      26.179 -11.112  15.396  1.00  0.00    -0.315 N 
ATOM     17  H7  UNL     1      26.119 -11.870  14.717  1.00  0.00     0.181 HD
BRANCH  16  18
HETATM   18  C5  UNL     1      27.255 -11.328  16.273  1.00  0.00     0.142 C 
BRANCH  18  19
HETATM   19  C6  UNL     1      28.468 -11.958  15.483  1.00  0.00     0.047 C 
BRANCH  19  20
HETATM   20  C7  UNL     1      29.469 -12.350  16.546  1.00  0.00     0.165 C 
BRANCH  20  21
HETATM   21  O1  UNL     1      30.568 -11.502  16.469  1.00  0.00    -0.401 OA
ATOM     22  H1  UNL     1      30.264 -10.610  16.346  1.00  0.00     0.209 HD
ENDBRANCH  20  21
ENDBRANCH  19  20
ENDBRANCH  18  19
ENDBRANCH  16  18
ENDBRANCH  14  16
BRANCH   1  23
HETATM   23  N1  UNL     1      27.442  -8.370  14.505  1.00  0.00    -0.383 N 
ATOM     24  H12 UNL     1      27.996  -8.255  15.353  1.00  0.00     0.157 HD
ATOM     25  H11 UNL     1      27.845  -8.763  13.654  1.00  0.00     0.157 HD
ENDBRANCH   1  23
TORSDOF 6
ENDMDL
