MODEL 1
REMARK VINA RESULT: -6.212273886      0.000      0.000
REMARK  7 active torsions:
REMARK  status: ('A' for Active; 'I' for Inactive)
REMARK    1  A    between atoms: N1_1  and  C1_4 
REMARK    2  A    between atoms: C2_7  and  N3_8 
REMARK    3  A    between atoms: N6_16  and  C4_17 
REMARK    4  A    between atoms: C4_17  and  O1_18 
REMARK    5  A    between atoms: O1_18  and  C5_19 
REMARK    6  A    between atoms: C5_19  and  C6_20 
REMARK    7  A    between atoms: C6_20  and  N7_21 
ROOT
HETATM    1  C1  UNL     1      23.812 -10.267  15.071  1.00  0.00     0.679 A 
HETATM    2  N2  UNL     1      23.334  -9.106  14.541  1.00  0.00    -0.175 N 
ATOM      3  H2  UNL     1      22.326  -8.947  14.524  1.00  0.00     0.186 HD
HETATM    4  C2  UNL     1      24.143  -8.172  14.044  1.00  0.00     0.147 A 
HETATM    5  C3  UNL     1      25.527  -8.379  14.061  1.00  0.00     0.140 A 
HETATM    6  N4  UNL     1      26.570  -7.638  13.644  1.00  0.00    -0.279 N 
ATOM      7  H4  UNL     1      26.530  -6.719  13.204  1.00  0.00     0.189 HD
HETATM    8  N5  UNL     1      27.654  -8.340  13.918  1.00  0.00    -0.236 N 
ATOM      9  H5  UNL     1      28.608  -8.038  13.718  1.00  0.00     0.208 HD
HETATM   10  N6  UNL     1      27.334  -9.480  14.486  1.00  0.00    -0.235 N 
HETATM   11  C7  UNL     1      26.002  -9.552  14.598  1.00  0.00     0.173 A 
HETATM   12  N8  UNL     1      25.141 -10.459  15.085  1.00  0.00    -0.173 N 
ATOM     13  H8  UNL     1      25.509 -11.325  15.480  1.00  0.00     0.186 HD
ENDROOT
BRANCH  10  14
HETATM   14  C4  UNL     1      28.233 -10.559  14.951  1.00  0.00     0.319 C 
BRANCH  14  15
HETATM   15  O1  UNL     1      28.207 -10.477  16.327  1.00  0.00    -0.369 OA
BRANCH  15  16
HETATM   16  C5  UNL     1      28.015 -11.683  16.957  1.00  0.00     0.197 C 
BRANCH  16  17
HETATM   17  C6  UNL     1      28.584 -12.804  16.132  1.00  0.00     0.255 C 
BRANCH  17  18
HETATM   18  N7  UNL     1      29.609 -13.462  16.918  1.00  0.00    -0.077 N 
ATOM     19  H73 UNL     1      29.235 -13.921  17.749  1.00  0.00     0.274 HD
ATOM     20  H72 UNL     1      29.985 -14.292  16.461  1.00  0.00     0.274 HD
ATOM     21  H71 UNL     1      30.328 -12.772  17.138  1.00  0.00     0.274 HD
ENDBRANCH  17  18
ENDBRANCH  16  17
ENDBRANCH  15  16
ENDBRANCH  14  15
ENDBRANCH  10  14
BRANCH   4  22
HETATM   22  N3  UNL     1      23.702  -7.078  13.543  1.00  0.00    -0.383 N 
ATOM     23  H32 UNL     1      22.695  -6.916  13.554  1.00  0.00     0.157 HD
ATOM     24  H31 UNL     1      24.321  -6.374  13.140  1.00  0.00     0.157 HD
ENDBRANCH   4  22
BRANCH   1  25
HETATM   25  N1  UNL     1      23.009 -11.153  15.545  1.00  0.00    -0.234 N 
ATOM     26  H12 UNL     1      22.916 -12.068  15.104  1.00  0.00     0.174 HD
ATOM     27  H11 UNL     1      22.449 -10.958  16.374  1.00  0.00     0.174 HD
ENDBRANCH   1  25
TORSDOF 7
ENDMDL
MODEL 2
REMARK VINA RESULT: -5.975367525      1.683      2.120
REMARK  7 active torsions:
REMARK  status: ('A' for Active; 'I' for Inactive)
REMARK    1  A    between atoms: N1_1  and  C1_4 
REMARK    2  A    between atoms: C2_7  and  N3_8 
REMARK    3  A    between atoms: N6_16  and  C4_17 
REMARK    4  A    between atoms: C4_17  and  O1_18 
REMARK    5  A    between atoms: O1_18  and  C5_19 
REMARK    6  A    between atoms: C5_19  and  C6_20 
REMARK    7  A    between atoms: C6_20  and  N7_21 
ROOT
HETATM    1  C1  UNL     1      22.889 -10.963  15.424  1.00  0.00     0.679 A 
HETATM    2  N2  UNL     1      22.222  -9.963  16.066  1.00  0.00    -0.175 N 
ATOM      3  H2  UNL     1      21.312 -10.162  16.481  1.00  0.00     0.186 HD
HETATM    4  C2  UNL     1      22.723  -8.733  16.167  1.00  0.00     0.147 A 
HETATM    5  C3  UNL     1      23.971  -8.448  15.602  1.00  0.00     0.140 A 
HETATM    6  N4  UNL     1      24.717  -7.330  15.543  1.00  0.00    -0.279 N 
ATOM      7  H4  UNL     1      24.484  -6.417  15.934  1.00  0.00     0.189 HD
HETATM    8  N5  UNL     1      25.812  -7.651  14.879  1.00  0.00    -0.236 N 
ATOM      9  H5  UNL     1      26.576  -7.008  14.672  1.00  0.00     0.208 HD
HETATM   10  N6  UNL     1      25.781  -8.915  14.524  1.00  0.00    -0.235 N 
HETATM   11  C7  UNL     1      24.638  -9.461  14.956  1.00  0.00     0.173 A 
HETATM   12  N8  UNL     1      24.086 -10.683  14.883  1.00  0.00    -0.173 N 
ATOM     13  H8  UNL     1      24.594 -11.425  14.401  1.00  0.00     0.186 HD
ENDROOT
BRANCH  10  14
HETATM   14  C4  UNL     1      26.796  -9.683  13.769  1.00  0.00     0.319 C 
BRANCH  14  15
HETATM   15  O1  UNL     1      26.895 -10.889  14.427  1.00  0.00    -0.369 OA
BRANCH  15  16
HETATM   16  C5  UNL     1      28.058 -11.044  15.143  1.00  0.00     0.197 C 
BRANCH  16  17
HETATM   17  C6  UNL     1      27.765 -11.094  16.617  1.00  0.00     0.255 C 
BRANCH  17  18
HETATM   18  N7  UNL     1      27.723 -12.487  17.016  1.00  0.00    -0.077 N 
ATOM     19  H73 UNL     1      27.389 -12.613  17.972  1.00  0.00     0.274 HD
ATOM     20  H72 UNL     1      26.985 -13.010  16.545  1.00  0.00     0.274 HD
ATOM     21  H71 UNL     1      28.649 -12.887  16.865  1.00  0.00     0.274 HD
ENDBRANCH  17  18
ENDBRANCH  16  17
ENDBRANCH  15  16
ENDBRANCH  14  15
ENDBRANCH  10  14
BRANCH   4  22
HETATM   22  N3  UNL     1      22.103  -7.786  16.769  1.00  0.00    -0.383 N 
ATOM     23  H32 UNL     1      21.578  -8.016  17.613  1.00  0.00     0.157 HD
ATOM     24  H31 UNL     1      22.119  -6.823  16.433  1.00  0.00     0.157 HD
ENDBRANCH   4  22
BRANCH   1  25
HETATM   25  N1  UNL     1      22.383 -12.142  15.340  1.00  0.00    -0.234 N 
ATOM     26  H12 UNL     1      21.492 -12.365  15.783  1.00  0.00     0.174 HD
ATOM     27  H11 UNL     1      22.864 -12.881  14.828  1.00  0.00     0.174 HD
ENDBRANCH   1  25
TORSDOF 7
ENDMDL
MODEL 3
REMARK VINA RESULT: -5.872561874      3.028      4.252
REMARK  7 active torsions:
REMARK  status: ('A' for Active; 'I' for Inactive)
REMARK    1  A    between atoms: N1_1  and  C1_4 
REMARK    2  A    between atoms: C2_7  and  N3_8 
REMARK    3  A    between atoms: N6_16  and  C4_17 
REMARK    4  A    between atoms: C4_17  and  O1_18 
REMARK    5  A    between atoms: O1_18  and  C5_19 
REMARK    6  A    between atoms: C5_19  and  C6_20 
REMARK    7  A    between atoms: C6_20  and  N7_21 
ROOT
HETATM    1  C1  UNL     1      22.322  -8.428  16.316  1.00  0.00     0.679 A 
HETATM    2  N2  UNL     1      22.127  -9.760  16.107  1.00  0.00    -0.175 N 
ATOM      3  H2  UNL     1      21.260 -10.190  16.429  1.00  0.00     0.186 HD
HETATM    4  C2  UNL     1      23.036 -10.519  15.497  1.00  0.00     0.147 A 
HETATM    5  C3  UNL     1      24.230  -9.941  15.052  1.00  0.00     0.140 A 
HETATM    6  N4  UNL     1      25.309 -10.437  14.418  1.00  0.00    -0.279 N 
ATOM      7  H4  UNL     1      25.457 -11.404  14.129  1.00  0.00     0.189 HD
HETATM    8  N5  UNL     1      26.136  -9.423  14.248  1.00  0.00    -0.236 N 
ATOM      9  H5  UNL     1      27.047  -9.485  13.794  1.00  0.00     0.208 HD
HETATM   10  N6  UNL     1      25.622  -8.321  14.746  1.00  0.00    -0.235 N 
HETATM   11  C7  UNL     1      24.420  -8.596  15.265  1.00  0.00     0.173 A 
HETATM   12  N8  UNL     1      23.471  -7.879  15.885  1.00  0.00    -0.173 N 
ATOM     13  H8  UNL     1      23.626  -6.882  16.036  1.00  0.00     0.186 HD
ENDROOT
BRANCH  10  14
HETATM   14  C4  UNL     1      26.210  -6.963  14.770  1.00  0.00     0.319 C 
BRANCH  14  15
HETATM   15  O1  UNL     1      25.995  -6.504  16.051  1.00  0.00    -0.369 OA
BRANCH  15  16
HETATM   16  C5  UNL     1      26.854  -7.029  16.986  1.00  0.00     0.197 C 
BRANCH  16  17
HETATM   17  C6  UNL     1      27.866  -6.000  17.408  1.00  0.00     0.255 C 
BRANCH  17  18
HETATM   18  N7  UNL     1      27.152  -4.896  18.018  1.00  0.00    -0.077 N 
ATOM     19  H73 UNL     1      27.405  -4.755  18.997  1.00  0.00     0.274 HD
ATOM     20  H72 UNL     1      27.456  -3.988  17.668  1.00  0.00     0.274 HD
ATOM     21  H71 UNL     1      26.154  -5.056  17.888  1.00  0.00     0.274 HD
ENDBRANCH  17  18
ENDBRANCH  16  17
ENDBRANCH  15  16
ENDBRANCH  14  15
ENDBRANCH  10  14
BRANCH   4  22
HETATM   22  N3  UNL     1      22.861 -11.773  15.298  1.00  0.00    -0.383 N 
ATOM     23  H32 UNL     1      22.056 -12.064  14.743  1.00  0.00     0.157 HD
ATOM     24  H31 UNL     1      23.496 -12.479  15.672  1.00  0.00     0.157 HD
ENDBRANCH   4  22
BRANCH   1  25
HETATM   25  N1  UNL     1      21.429  -7.717  16.907  1.00  0.00    -0.234 N 
ATOM     26  H12 UNL     1      20.763  -8.140  17.553  1.00  0.00     0.174 HD
ATOM     27  H11 UNL     1      21.368  -6.713  16.742  1.00  0.00     0.174 HD
ENDBRANCH   1  25
TORSDOF 7
ENDMDL
MODEL 4
REMARK VINA RESULT: -5.605444732      2.721      4.558
REMARK  7 active torsions:
REMARK  status: ('A' for Active; 'I' for Inactive)
REMARK    1  A    between atoms: N1_1  and  C1_4 
REMARK    2  A    between atoms: C2_7  and  N3_8 
REMARK    3  A    between atoms: N6_16  and  C4_17 
REMARK    4  A    between atoms: C4_17  and  O1_18 
REMARK    5  A    between atoms: O1_18  and  C5_19 
REMARK    6  A    between atoms: C5_19  and  C6_20 
REMARK    7  A    between atoms: C6_20  and  N7_21 
ROOT
HETATM    1  C1  UNL     1      26.328  -9.548  13.906  1.00  0.00     0.679 A 
HETATM    2  N2  UNL     1      26.365  -8.195  13.746  1.00  0.00    -0.175 N 
ATOM      3  H2  UNL     1      27.153  -7.776  13.251  1.00  0.00     0.186 HD
HETATM    4  C2  UNL     1      25.404  -7.402  14.217  1.00  0.00     0.147 A 
HETATM    5  C3  UNL     1      24.318  -7.965  14.898  1.00  0.00     0.140 A 
HETATM    6  N4  UNL     1      23.223  -7.436  15.472  1.00  0.00    -0.279 N 
ATOM      7  H4  UNL     1      22.971  -6.448  15.516  1.00  0.00     0.189 HD
HETATM    8  N5  UNL     1      22.539  -8.451  15.967  1.00  0.00    -0.236 N 
ATOM      9  H5  UNL     1      21.654  -8.367  16.467  1.00  0.00     0.208 HD
HETATM   10  N6  UNL     1      23.159  -9.584  15.727  1.00  0.00    -0.235 N 
HETATM   11  C7  UNL     1      24.287  -9.330  15.055  1.00  0.00     0.173 A 
HETATM   12  N8  UNL     1      25.283 -10.082  14.560  1.00  0.00    -0.173 N 
ATOM     13  H8  UNL     1      25.246 -11.093  14.684  1.00  0.00     0.186 HD
ENDROOT
BRANCH  10  14
HETATM   14  C4  UNL     1      22.746 -10.954  16.104  1.00  0.00     0.319 C 
BRANCH  14  15
HETATM   15  O1  UNL     1      22.883 -11.698  14.953  1.00  0.00    -0.369 OA
BRANCH  15  16
HETATM   16  C5  UNL     1      22.070 -12.805  14.900  1.00  0.00     0.197 C 
BRANCH  16  17
HETATM   17  C6  UNL     1      22.342 -13.714  16.067  1.00  0.00     0.255 C 
BRANCH  17  18
HETATM   18  N7  UNL     1      21.411 -14.823  15.996  1.00  0.00    -0.077 N 
ATOM     19  H73 UNL     1      21.878 -15.724  15.901  1.00  0.00     0.274 HD
ATOM     20  H72 UNL     1      20.945 -15.004  16.885  1.00  0.00     0.274 HD
ATOM     21  H71 UNL     1      20.756 -14.635  15.237  1.00  0.00     0.274 HD
ENDBRANCH  17  18
ENDBRANCH  16  17
ENDBRANCH  15  16
ENDBRANCH  14  15
ENDBRANCH  10  14
BRANCH   4  22
HETATM   22  N3  UNL     1      25.432  -6.129  14.072  1.00  0.00    -0.383 N 
ATOM     23  H32 UNL     1      24.572  -5.660  13.786  1.00  0.00     0.157 HD
ATOM     24  H31 UNL     1      26.276  -5.580  14.233  1.00  0.00     0.157 HD
ENDBRANCH   4  22
BRANCH   1  25
HETATM   25  N1  UNL     1      27.269 -10.291  13.441  1.00  0.00    -0.234 N 
ATOM     26  H12 UNL     1      28.233  -9.960  13.408  1.00  0.00     0.174 HD
ATOM     27  H11 UNL     1      27.069 -11.229  13.095  1.00  0.00     0.174 HD
ENDBRANCH   1  25
TORSDOF 7
ENDMDL
MODEL 5
REMARK VINA RESULT: -5.438879772      2.244      4.463
REMARK  7 active torsions:
REMARK  status: ('A' for Active; 'I' for Inactive)
REMARK    1  A    between atoms: N1_1  and  C1_4 
REMARK    2  A    between atoms: C2_7  and  N3_8 
REMARK    3  A    between atoms: N6_16  and  C4_17 
REMARK    4  A    between atoms: C4_17  and  O1_18 
REMARK    5  A    between atoms: O1_18  and  C5_19 
REMARK    6  A    between atoms: C5_19  and  C6_20 
REMARK    7  A    between atoms: C6_20  and  N7_21 
ROOT
HETATM    1  C1  UNL     1      27.304 -10.471  15.431  1.00  0.00     0.679 A 
HETATM    2  N2  UNL     1      27.857  -9.465  14.696  1.00  0.00    -0.175 N 
ATOM      3  H2  UNL     1      28.873  -9.412  14.616  1.00  0.00     0.186 HD
HETATM    4  C2  UNL     1      27.112  -8.550  14.079  1.00  0.00     0.147 A 
HETATM    5  C3  UNL     1      25.718  -8.613  14.181  1.00  0.00     0.140 A 
HETATM    6  N4  UNL     1      24.726  -7.852  13.683  1.00  0.00    -0.279 N 
ATOM      7  H4  UNL     1      24.827  -7.025  13.094  1.00  0.00     0.189 HD
HETATM    8  N5  UNL     1      23.598  -8.389  14.109  1.00  0.00    -0.236 N 
ATOM      9  H5  UNL     1      22.667  -8.033  13.894  1.00  0.00     0.208 HD
HETATM   10  N6  UNL     1      23.843  -9.447  14.847  1.00  0.00    -0.235 N 
HETATM   11  C7  UNL     1      25.166  -9.630  14.923  1.00  0.00     0.173 A 
HETATM   12  N8  UNL     1      25.965 -10.526  15.524  1.00  0.00    -0.173 N 
ATOM     13  H8  UNL     1      25.540 -11.275  16.072  1.00  0.00     0.186 HD
ENDROOT
BRANCH  10  14
HETATM   14  C4  UNL     1      22.874 -10.341  15.520  1.00  0.00     0.319 C 
BRANCH  14  15
HETATM   15  O1  UNL     1      23.256 -11.616  15.161  1.00  0.00    -0.369 OA
BRANCH  15  16
HETATM   16  C5  UNL     1      22.220 -12.518  15.110  1.00  0.00     0.197 C 
BRANCH  16  17
HETATM   17  C6  UNL     1      22.401 -13.587  16.151  1.00  0.00     0.255 C 
BRANCH  17  18
HETATM   18  N7  UNL     1      21.490 -14.671  15.841  1.00  0.00    -0.077 N 
ATOM     19  H73 UNL     1      21.193 -15.186  16.670  1.00  0.00     0.274 HD
ATOM     20  H72 UNL     1      20.570 -14.343  15.548  1.00  0.00     0.274 HD
ATOM     21  H71 UNL     1      21.937 -15.268  15.144  1.00  0.00     0.274 HD
ENDBRANCH  17  18
ENDBRANCH  16  17
ENDBRANCH  15  16
ENDBRANCH  14  15
ENDBRANCH  10  14
BRANCH   4  22
HETATM   22  N3  UNL     1      27.624  -7.601  13.387  1.00  0.00    -0.383 N 
ATOM     23  H32 UNL     1      27.673  -7.717  12.375  1.00  0.00     0.157 HD
ATOM     24  H31 UNL     1      27.978  -6.744  13.813  1.00  0.00     0.157 HD
ENDBRANCH   4  22
BRANCH   1  25
HETATM   25  N1  UNL     1      28.046 -11.342  16.016  1.00  0.00    -0.234 N 
ATOM     26  H12 UNL     1      28.151 -11.348  17.030  1.00  0.00     0.174 HD
ATOM     27  H11 UNL     1      28.545 -12.049  15.476  1.00  0.00     0.174 HD
ENDBRANCH   1  25
TORSDOF 7
ENDMDL
