MODEL 1
REMARK VINA RESULT: -6.270682311      0.000      0.000
REMARK  7 active torsions:
REMARK  status: ('A' for Active; 'I' for Inactive)
REMARK    1  A    between atoms: N1_1  and  C1_4 
REMARK    2  A    between atoms: C2_9  and  C3_10 
REMARK    3  A    between atoms: C3_10  and  N4_11 
REMARK    4  A    between atoms: N4_11  and  C4_14 
REMARK    5  A    between atoms: C4_14  and  C5_15 
REMARK    6  A    between atoms: C4_14  and  C6_20 
REMARK    7  A    between atoms: C5_15  and  N5_16 
ROOT
HETATM    1  N4  UNL     1      25.950  -7.734  16.216  1.00  0.00    -0.056 N 
ATOM      2  H41 UNL     1      26.190  -7.031  16.915  1.00  0.00     0.278 HD
ATOM      3  H42 UNL     1      25.774  -8.528  16.833  1.00  0.00     0.278 HD
ENDROOT
BRANCH   1   4
HETATM    4  C3  UNL     1      27.065  -7.997  15.344  1.00  0.00     0.311 C 
BRANCH   4   5
HETATM    5  C2  UNL     1      27.466  -9.419  15.347  1.00  0.00     0.138 A 
HETATM    6  N3  UNL     1      27.889 -10.154  14.302  1.00  0.00    -0.273 N 
HETATM    7  N2  UNL     1      28.166 -11.392  14.646  1.00  0.00    -0.131 N 
ATOM      8  H3  UNL     1      27.984  -9.792  13.353  1.00  0.00     0.189 HD
HETATM    9  C1  UNL     1      27.912 -11.470  15.981  1.00  0.00     0.691 A 
ATOM     10  H2  UNL     1      28.502 -12.140  14.038  1.00  0.00     0.205 HD
HETATM   11  N10 UNL     1      27.485 -10.261  16.397  1.00  0.00    -0.177 N 
ATOM     12  H10 UNL     1      27.219 -10.022  17.353  1.00  0.00     0.185 HD
BRANCH   9  13
HETATM   13  N1  UNL     1      28.052 -12.513  16.715  1.00  0.00    -0.233 N 
ATOM     14  H12 UNL     1      28.763 -13.236  16.599  1.00  0.00     0.174 HD
ATOM     15  H11 UNL     1      27.474 -12.762  17.518  1.00  0.00     0.174 HD
ENDBRANCH   9  13
ENDBRANCH   4   5
ENDBRANCH   1   4
BRANCH   1  16
HETATM   16  C4  UNL     1      24.764  -7.365  15.504  1.00  0.00     0.281 C 
BRANCH  16  17
HETATM   17  C5  UNL     1      24.938  -7.214  14.033  1.00  0.00     0.270 C 
BRANCH  17  18
HETATM   18  N5  UNL     1      23.675  -7.204  13.313  1.00  0.00    -0.077 N 
ATOM     19  H53 UNL     1      23.754  -7.710  12.432  1.00  0.00     0.274 HD
ATOM     20  H52 UNL     1      22.984  -7.790  13.781  1.00  0.00     0.274 HD
ATOM     21  H51 UNL     1      23.313  -6.262  13.162  1.00  0.00     0.274 HD
ENDBRANCH  17  18
ENDBRANCH  16  17
BRANCH  16  22
HETATM   22  C6  UNL     1      23.616  -8.251  15.817  1.00  0.00     0.146 A 
HETATM   23  N6  UNL     1      23.427  -9.534  15.452  1.00  0.00    -0.270 N 
HETATM   24  N7  UNL     1      22.265  -9.893  15.965  1.00  0.00    -0.227 N 
ATOM     25  H6  UNL     1      24.056 -10.112  14.893  1.00  0.00     0.190 HD
HETATM   26  N8  UNL     1      21.720  -8.895  16.633  1.00  0.00    -0.227 N 
ATOM     27  H7  UNL     1      21.846 -10.818  15.859  1.00  0.00     0.210 HD
HETATM   28  N9  UNL     1      22.557  -7.883  16.539  1.00  0.00    -0.270 N 
ATOM     29  H8  UNL     1      20.826  -8.906  17.125  1.00  0.00     0.210 HD
ATOM     30  H9  UNL     1      22.418  -6.962  16.954  1.00  0.00     0.190 HD
ENDBRANCH  16  22
ENDBRANCH   1  16
TORSDOF 7
ENDMDL
MODEL 2
REMARK VINA RESULT: -6.159835842      1.370      1.720
REMARK  7 active torsions:
REMARK  status: ('A' for Active; 'I' for Inactive)
REMARK    1  A    between atoms: N1_1  and  C1_4 
REMARK    2  A    between atoms: C2_9  and  C3_10 
REMARK    3  A    between atoms: C3_10  and  N4_11 
REMARK    4  A    between atoms: N4_11  and  C4_14 
REMARK    5  A    between atoms: C4_14  and  C5_15 
REMARK    6  A    between atoms: C4_14  and  C6_20 
REMARK    7  A    between atoms: C5_15  and  N5_16 
ROOT
HETATM    1  N4  UNL     1      25.341  -9.990  14.375  1.00  0.00    -0.056 N 
ATOM      2  H41 UNL     1      25.057 -10.685  15.066  1.00  0.00     0.278 HD
ATOM      3  H42 UNL     1      24.818 -10.333  13.569  1.00  0.00     0.278 HD
ENDROOT
BRANCH   1   4
HETATM    4  C3  UNL     1      26.760 -10.052  14.134  1.00  0.00     0.311 C 
BRANCH   4   5
HETATM    5  C2  UNL     1      27.483 -10.794  15.187  1.00  0.00     0.138 A 
HETATM    6  N3  UNL     1      27.484 -10.548  16.510  1.00  0.00    -0.273 N 
HETATM    7  N2  UNL     1      28.236 -11.400  17.173  1.00  0.00    -0.131 N 
ATOM      8  H3  UNL     1      26.963  -9.790  16.949  1.00  0.00     0.189 HD
HETATM    9  C1  UNL     1      28.751 -12.243  16.236  1.00  0.00     0.691 A 
ATOM     10  H2  UNL     1      28.400 -11.424  18.179  1.00  0.00     0.205 HD
HETATM   11  N10 UNL     1      28.285 -11.864  15.029  1.00  0.00    -0.177 N 
ATOM     12  H10 UNL     1      28.504 -12.314  14.140  1.00  0.00     0.185 HD
BRANCH   9  13
HETATM   13  N1  UNL     1      29.543 -13.227  16.462  1.00  0.00    -0.233 N 
ATOM     14  H12 UNL     1      30.487 -13.334  16.090  1.00  0.00     0.174 HD
ATOM     15  H11 UNL     1      29.339 -14.038  17.046  1.00  0.00     0.174 HD
ENDBRANCH   9  13
ENDBRANCH   4   5
ENDBRANCH   1   4
BRANCH   1  16
HETATM   16  C4  UNL     1      24.900  -8.682  14.753  1.00  0.00     0.281 C 
BRANCH  16  17
HETATM   17  C5  UNL     1      24.820  -7.699  13.636  1.00  0.00     0.270 C 
BRANCH  17  18
HETATM   18  N5  UNL     1      25.483  -6.442  13.941  1.00  0.00    -0.077 N 
ATOM     19  H53 UNL     1      24.907  -5.649  13.659  1.00  0.00     0.274 HD
ATOM     20  H52 UNL     1      25.510  -6.279  14.948  1.00  0.00     0.274 HD
ATOM     21  H51 UNL     1      26.416  -6.378  13.536  1.00  0.00     0.274 HD
ENDBRANCH  17  18
ENDBRANCH  16  17
BRANCH  16  22
HETATM   22  C6  UNL     1      23.634  -8.712  15.527  1.00  0.00     0.146 A 
HETATM   23  N6  UNL     1      22.811  -9.757  15.743  1.00  0.00    -0.270 N 
HETATM   24  N7  UNL     1      21.821  -9.296  16.484  1.00  0.00    -0.227 N 
ATOM     25  H6  UNL     1      22.930 -10.712  15.402  1.00  0.00     0.190 HD
HETATM   26  N8  UNL     1      21.986  -8.013  16.741  1.00  0.00    -0.227 N 
ATOM     27  H7  UNL     1      21.034  -9.857  16.812  1.00  0.00     0.210 HD
HETATM   28  N9  UNL     1      23.107  -7.656  16.149  1.00  0.00    -0.270 N 
ATOM     29  H8  UNL     1      21.368  -7.416  17.291  1.00  0.00     0.210 HD
ATOM     30  H9  UNL     1      23.510  -6.719  16.163  1.00  0.00     0.190 HD
ENDBRANCH  16  22
ENDBRANCH   1  16
TORSDOF 7
ENDMDL
MODEL 3
REMARK VINA RESULT: -6.150395536      1.242      4.787
REMARK  7 active torsions:
REMARK  status: ('A' for Active; 'I' for Inactive)
REMARK    1  A    between atoms: N1_1  and  C1_4 
REMARK    2  A    between atoms: C2_9  and  C3_10 
REMARK    3  A    between atoms: C3_10  and  N4_11 
REMARK    4  A    between atoms: N4_11  and  C4_14 
REMARK    5  A    between atoms: C4_14  and  C5_15 
REMARK    6  A    between atoms: C4_14  and  C6_20 
REMARK    7  A    between atoms: C5_15  and  N5_16 
ROOT
HETATM    1  N4  UNL     1      26.047  -7.641  13.994  1.00  0.00    -0.056 N 
ATOM      2  H41 UNL     1      26.439  -7.086  13.234  1.00  0.00     0.278 HD
ATOM      3  H42 UNL     1      25.886  -8.517  13.496  1.00  0.00     0.278 HD
ENDROOT
BRANCH   1   4
HETATM    4  C3  UNL     1      24.805  -7.076  14.457  1.00  0.00     0.311 C 
BRANCH   4   5
HETATM    5  C2  UNL     1      23.915  -8.085  15.067  1.00  0.00     0.138 A 
HETATM    6  N3  UNL     1      22.962  -7.884  15.996  1.00  0.00    -0.273 N 
HETATM    7  N2  UNL     1      22.348  -8.998  16.326  1.00  0.00    -0.131 N 
ATOM      8  H3  UNL     1      22.742  -6.973  16.396  1.00  0.00     0.189 HD
HETATM    9  C1  UNL     1      22.928  -9.975  15.576  1.00  0.00     0.691 A 
ATOM     10  H2  UNL     1      21.594  -9.108  17.004  1.00  0.00     0.205 HD
HETATM   11  N10 UNL     1      23.882  -9.407  14.812  1.00  0.00    -0.177 N 
ATOM     12  H10 UNL     1      24.482  -9.898  14.149  1.00  0.00     0.185 HD
BRANCH   9  13
HETATM   13  N1  UNL     1      22.621 -11.221  15.595  1.00  0.00    -0.233 N 
ATOM     14  H12 UNL     1      21.676 -11.606  15.583  1.00  0.00     0.174 HD
ATOM     15  H11 UNL     1      23.279 -12.000  15.622  1.00  0.00     0.174 HD
ENDBRANCH   9  13
ENDBRANCH   4   5
ENDBRANCH   1   4
BRANCH   1  16
HETATM   16  C4  UNL     1      27.002  -7.817  15.046  1.00  0.00     0.281 C 
BRANCH  16  17
HETATM   17  C5  UNL     1      26.598  -7.246  16.362  1.00  0.00     0.270 C 
BRANCH  17  18
HETATM   18  N5  UNL     1      27.699  -6.604  17.060  1.00  0.00    -0.077 N 
ATOM     19  H53 UNL     1      28.368  -7.294  17.399  1.00  0.00     0.274 HD
ATOM     20  H52 UNL     1      28.298  -6.097  16.408  1.00  0.00     0.274 HD
ATOM     21  H51 UNL     1      27.386  -5.996  17.817  1.00  0.00     0.274 HD
ENDBRANCH  17  18
ENDBRANCH  16  17
BRANCH  16  22
HETATM   22  C6  UNL     1      27.435  -9.229  15.188  1.00  0.00     0.146 A 
HETATM   23  N6  UNL     1      28.167  -9.968  14.333  1.00  0.00    -0.270 N 
HETATM   24  N7  UNL     1      28.293 -11.158  14.891  1.00  0.00    -0.227 N 
ATOM     25  H6  UNL     1      28.548  -9.669  13.434  1.00  0.00     0.190 HD
HETATM   26  N8  UNL     1      27.675 -11.196  16.056  1.00  0.00    -0.227 N 
ATOM     27  H7  UNL     1      28.800 -11.941  14.479  1.00  0.00     0.210 HD
HETATM   28  N9  UNL     1      27.146 -10.002  16.235  1.00  0.00    -0.270 N 
ATOM     29  H8  UNL     1      27.617 -11.992  16.691  1.00  0.00     0.210 HD
ATOM     30  H9  UNL     1      26.601  -9.715  17.048  1.00  0.00     0.190 HD
ENDBRANCH  16  22
ENDBRANCH   1  16
TORSDOF 7
ENDMDL
MODEL 4
REMARK VINA RESULT: -6.047640409      1.267      4.978
REMARK  7 active torsions:
REMARK  status: ('A' for Active; 'I' for Inactive)
REMARK    1  A    between atoms: N1_1  and  C1_4 
REMARK    2  A    between atoms: C2_9  and  C3_10 
REMARK    3  A    between atoms: C3_10  and  N4_11 
REMARK    4  A    between atoms: N4_11  and  C4_14 
REMARK    5  A    between atoms: C4_14  and  C5_15 
REMARK    6  A    between atoms: C4_14  and  C6_20 
REMARK    7  A    between atoms: C5_15  and  N5_16 
ROOT
HETATM    1  N4  UNL     1      26.203  -7.489  14.261  1.00  0.00    -0.056 N 
ATOM      2  H41 UNL     1      25.659  -6.678  14.555  1.00  0.00     0.278 HD
ATOM      3  H42 UNL     1      26.680  -7.085  13.454  1.00  0.00     0.278 HD
ENDROOT
BRANCH   1   4
HETATM    4  C3  UNL     1      25.341  -8.571  13.861  1.00  0.00     0.311 C 
BRANCH   4   5
HETATM    5  C2  UNL     1      24.192  -8.748  14.773  1.00  0.00     0.138 A 
HETATM    6  N3  UNL     1      23.593  -9.901  15.123  1.00  0.00    -0.273 N 
HETATM    7  N2  UNL     1      22.594  -9.709  15.956  1.00  0.00    -0.131 N 
ATOM      8  H3  UNL     1      23.880 -10.818  14.781  1.00  0.00     0.189 HD
HETATM    9  C1  UNL     1      22.538  -8.364  16.160  1.00  0.00     0.691 A 
ATOM     10  H2  UNL     1      21.987 -10.420  16.364  1.00  0.00     0.205 HD
HETATM   11  N10 UNL     1      23.517  -7.789  15.433  1.00  0.00    -0.177 N 
ATOM     12  H10 UNL     1      23.714  -6.789  15.390  1.00  0.00     0.185 HD
BRANCH   9  13
HETATM   13  N1  UNL     1      21.699  -7.751  16.913  1.00  0.00    -0.233 N 
ATOM     14  H12 UNL     1      21.711  -7.733  17.933  1.00  0.00     0.174 HD
ATOM     15  H11 UNL     1      20.904  -7.195  16.595  1.00  0.00     0.174 HD
ENDBRANCH   9  13
ENDBRANCH   4   5
ENDBRANCH   1   4
BRANCH   1  16
HETATM   16  C4  UNL     1      27.141  -7.872  15.272  1.00  0.00     0.281 C 
BRANCH  16  17
HETATM   17  C5  UNL     1      26.757  -7.491  16.660  1.00  0.00     0.270 C 
BRANCH  17  18
HETATM   18  N5  UNL     1      27.517  -6.360  17.166  1.00  0.00    -0.077 N 
ATOM     19  H53 UNL     1      28.389  -6.670  17.596  1.00  0.00     0.274 HD
ATOM     20  H52 UNL     1      27.898  -5.804  16.400  1.00  0.00     0.274 HD
ATOM     21  H51 UNL     1      26.981  -5.778  17.809  1.00  0.00     0.274 HD
ENDBRANCH  17  18
ENDBRANCH  16  17
BRANCH  16  22
HETATM   22  C6  UNL     1      27.502  -9.309  15.196  1.00  0.00     0.146 A 
HETATM   23  N6  UNL     1      28.135  -9.959  14.199  1.00  0.00    -0.270 N 
HETATM   24  N7  UNL     1      28.230 -11.218  14.586  1.00  0.00    -0.227 N 
ATOM     25  H6  UNL     1      28.472  -9.559  13.323  1.00  0.00     0.190 HD
HETATM   26  N8  UNL     1      27.688 -11.384  15.777  1.00  0.00    -0.227 N 
ATOM     27  H7  UNL     1      28.664 -11.961  14.038  1.00  0.00     0.210 HD
HETATM   28  N9  UNL     1      27.240 -10.203  16.150  1.00  0.00    -0.270 N 
ATOM     29  H8  UNL     1      27.628 -12.255  16.304  1.00  0.00     0.210 HD
ATOM     30  H9  UNL     1      26.766 -10.002  17.031  1.00  0.00     0.190 HD
ENDBRANCH  16  22
ENDBRANCH   1  16
TORSDOF 7
ENDMDL
MODEL 5
REMARK VINA RESULT: -5.912058838      2.568      4.195
REMARK  7 active torsions:
REMARK  status: ('A' for Active; 'I' for Inactive)
REMARK    1  A    between atoms: N1_1  and  C1_4 
REMARK    2  A    between atoms: C2_9  and  C3_10 
REMARK    3  A    between atoms: C3_10  and  N4_11 
REMARK    4  A    between atoms: N4_11  and  C4_14 
REMARK    5  A    between atoms: C4_14  and  C5_15 
REMARK    6  A    between atoms: C4_14  and  C6_20 
REMARK    7  A    between atoms: C5_15  and  N5_16 
ROOT
HETATM    1  N4  UNL     1      25.798  -6.918  15.181  1.00  0.00    -0.056 N 
ATOM      2  H41 UNL     1      26.466  -6.468  14.555  1.00  0.00     0.278 HD
ATOM      3  H42 UNL     1      25.217  -6.112  15.412  1.00  0.00     0.278 HD
ENDROOT
BRANCH   1   4
HETATM    4  C3  UNL     1      26.457  -7.431  16.355  1.00  0.00     0.311 C 
BRANCH   4   5
HETATM    5  C2  UNL     1      27.120  -6.372  17.143  1.00  0.00     0.138 A 
HETATM    6  N3  UNL     1      28.388  -6.358  17.594  1.00  0.00    -0.273 N 
HETATM    7  N2  UNL     1      28.663  -5.263  18.266  1.00  0.00    -0.131 N 
ATOM      8  H3  UNL     1      29.058  -7.110  17.432  1.00  0.00     0.189 HD
HETATM    9  C1  UNL     1      27.519  -4.525  18.254  1.00  0.00     0.691 A 
ATOM     10  H2  UNL     1      29.550  -5.016  18.706  1.00  0.00     0.205 HD
HETATM   11  N10 UNL     1      26.585  -5.212  17.566  1.00  0.00    -0.177 N 
ATOM     12  H10 UNL     1      25.628  -4.903  17.395  1.00  0.00     0.185 HD
BRANCH   9  13
HETATM   13  N1  UNL     1      27.357  -3.376  18.803  1.00  0.00    -0.233 N 
ATOM     14  H12 UNL     1      27.042  -2.527  18.333  1.00  0.00     0.174 HD
ATOM     15  H11 UNL     1      27.520  -3.153  19.785  1.00  0.00     0.174 HD
ENDBRANCH   9  13
ENDBRANCH   4   5
ENDBRANCH   1   4
BRANCH   1  16
HETATM   16  C4  UNL     1      25.040  -7.916  14.490  1.00  0.00     0.281 C 
BRANCH  16  17
HETATM   17  C5  UNL     1      25.827  -9.091  14.023  1.00  0.00     0.270 C 
BRANCH  17  18
HETATM   18  N5  UNL     1      26.729  -8.768  12.930  1.00  0.00    -0.077 N 
ATOM     19  H53 UNL     1      27.405  -8.059  13.212  1.00  0.00     0.274 HD
ATOM     20  H52 UNL     1      27.367  -9.542  12.743  1.00  0.00     0.274 HD
ATOM     21  H51 UNL     1      26.238  -8.487  12.081  1.00  0.00     0.274 HD
ENDBRANCH  17  18
ENDBRANCH  16  17
BRANCH  16  22
HETATM   22  C6  UNL     1      23.842  -8.347  15.253  1.00  0.00     0.146 A 
HETATM   23  N6  UNL     1      23.319  -9.585  15.358  1.00  0.00    -0.270 N 
HETATM   24  N7  UNL     1      22.261  -9.470  16.138  1.00  0.00    -0.227 N 
ATOM     25  H6  UNL     1      23.671 -10.438  14.922  1.00  0.00     0.190 HD
HETATM   26  N8  UNL     1      22.098  -8.220  16.526  1.00  0.00    -0.227 N 
ATOM     27  H7  UNL     1      21.652 -10.244  16.405  1.00  0.00     0.210 HD
HETATM   28  N9  UNL     1      23.076  -7.530  15.976  1.00  0.00    -0.270 N 
ATOM     29  H8  UNL     1      21.360  -7.860  17.131  1.00  0.00     0.210 HD
ATOM     30  H9  UNL     1      23.226  -6.527  16.088  1.00  0.00     0.190 HD
ENDBRANCH  16  22
ENDBRANCH   1  16
TORSDOF 7
ENDMDL
