MODEL 1
REMARK VINA RESULT: -9.297283283      0.000      0.000
REMARK  16 active torsions:
REMARK  status: ('A' for Active; 'I' for Inactive)
REMARK    1  A    between atoms: N1_2  and  O1_3 
REMARK    2  A    between atoms: N1_2  and  C2_5 
REMARK    3  A    between atoms: N5_11  and  C3_12 
REMARK    4  A    between atoms: C4_15  and  C5_16 
REMARK    5  A    between atoms: C5_16  and  C6_17 
REMARK    6  A    between atoms: C6_17  and  N7_18 
REMARK    7  A    between atoms: N7_18  and  O2_19 
REMARK       I    between atoms: N7_18  and  C7_24 
REMARK    8  A    between atoms: O2_19  and  S1_20 
REMARK    9  A    between atoms: C7_24  and  C8_26 
REMARK   10  A    between atoms: C10_35  and  N11_36 
REMARK   11  A    between atoms: C11_41  and  C12_42 
REMARK   12  A    between atoms: C12_42  and  O7_43 
REMARK   13  A    between atoms: C12_42  and  C13_45 
REMARK   14  A    between atoms: C13_45  and  O8_46 
REMARK   15  A    between atoms: C13_45  and  O9_48 
REMARK   16  A    between atoms: C15_51  and  O10_52 
ROOT
HETATM    1  C3  UNL     1     -21.181  23.637   3.351  1.00  0.00     0.178 A 
HETATM    2  N6  UNL     1     -19.953  23.387   3.800  1.00  0.00    -0.341 N 
ATOM      3  H6  UNL     1     -19.496  24.122   4.341  1.00  0.00     0.167 HD
HETATM    4  C4  UNL     1     -19.252  22.238   3.600  1.00  0.00     0.021 A 
HETATM    5  C11 UNL     1     -19.866  21.241   2.870  1.00  0.00     0.001 A 
HETATM    6  C14 UNL     1     -21.160  21.421   2.360  1.00  0.00     0.052 A 
HETATM    7  C15 UNL     1     -21.787  22.616   2.612  1.00  0.00     0.112 A 
ENDROOT
BRANCH   4   8
HETATM    8  C5  UNL     1     -17.909  22.073   4.166  1.00  0.00     0.080 C 
BRANCH   8   9
HETATM    9  C6  UNL     1     -17.779  21.897   5.629  1.00  0.00     0.167 C 
BRANCH   9  10
HETATM   10  N7  UNL     1     -16.387  22.104   6.082  1.00  0.00    -0.199 N 
HETATM   11  C7  UNL     1     -15.817  20.939   6.691  1.00  0.00     0.313 C 
HETATM   12  O6  UNL     1     -16.489  19.856   6.777  1.00  0.00    -0.262 OA
BRANCH  10  13
HETATM   13  O2  UNL     1     -15.683  23.174   5.891  1.00  0.00    -0.126 OA
BRANCH  13  14
HETATM   14  S1  UNL     1     -15.743  24.527   6.757  1.00  0.00     0.274 S 
HETATM   15  O3  UNL     1     -14.370  25.071   7.162  1.00  0.00    -0.571 OA
HETATM   16  O4  UNL     1     -16.403  24.323   8.143  1.00  0.00    -0.571 OA
HETATM   17  O5  UNL     1     -16.652  25.712   6.017  1.00  0.00    -0.571 OA
ENDBRANCH  13  14
ENDBRANCH  10  13
BRANCH  11  18
HETATM   18  C8  UNL     1     -14.461  20.912   7.246  1.00  0.00     0.206 A 
HETATM   19  N8  UNL     1     -13.695  19.841   7.269  1.00  0.00    -0.170 N 
HETATM   20  C9  UNL     1     -12.469  19.824   7.738  1.00  0.00     0.692 A 
ATOM     21  H8  UNL     1     -14.078  18.971   6.898  1.00  0.00     0.186 HD
HETATM   22  N9  UNL     1     -11.685  18.770   7.759  1.00  0.00    -0.234 N 
HETATM   23  N10 UNL     1     -11.942  20.991   8.235  1.00  0.00    -0.023 N 
ATOM     24  H92 UNL     1     -12.077  17.904   7.390  1.00  0.00     0.174 HD
ATOM     25  H91 UNL     1     -10.732  18.757   8.123  1.00  0.00     0.174 HD
HETATM   26  C10 UNL     1     -12.674  22.109   8.235  1.00  0.00     0.692 A 
ATOM     27  H10 UNL     1     -10.992  21.005   8.605  1.00  0.00     0.203 HD
HETATM   28  N12 UNL     1     -13.920  22.070   7.747  1.00  0.00    -0.170 N 
ATOM     29  H12 UNL     1     -14.480  22.921   7.748  1.00  0.00     0.186 HD
BRANCH  26  30
HETATM   30  N11 UNL     1     -12.180  23.237   8.715  1.00  0.00    -0.234 N 
ATOM     31 2H11 UNL     1     -11.171  23.363   8.801  1.00  0.00     0.174 HD
ATOM     32 1H11 UNL     1     -12.799  23.995   9.000  1.00  0.00     0.174 HD
ENDBRANCH  26  30
ENDBRANCH  11  18
ENDBRANCH   9  10
ENDBRANCH   8   9
ENDBRANCH   4   8
BRANCH   5  33
HETATM   33  C12 UNL     1     -19.201  19.975   2.550  1.00  0.00     0.208 C 
BRANCH  33  34
HETATM   34  O7  UNL     1     -19.895  18.849   2.933  1.00  0.00    -0.386 OA
ATOM     35  H7  UNL     1     -19.353  18.143   3.265  1.00  0.00     0.210 HD
ENDBRANCH  33  34
BRANCH  33  36
HETATM   36  C13 UNL     1     -18.872  19.807   1.064  1.00  0.00     0.287 C 
BRANCH  36  37
HETATM   37  O8  UNL     1     -17.921  20.831   0.765  1.00  0.00    -0.369 OA
ATOM     38  H8  UNL     1     -17.565  20.607  -0.086  1.00  0.00     0.212 HD
ENDBRANCH  36  37
BRANCH  36  39
HETATM   39  O9  UNL     1     -18.150  18.619   0.845  1.00  0.00    -0.369 OA
ATOM     40  H9  UNL     1     -18.699  17.964   0.433  1.00  0.00     0.212 HD
ENDBRANCH  36  39
ENDBRANCH  33  36
ENDBRANCH   5  33
BRANCH   1  41
HETATM   41  N5  UNL     1     -21.904  24.838   3.578  1.00  0.00    -0.047 N 
HETATM   42  C2  UNL     1     -22.202  25.772   2.701  1.00  0.00     0.740 A 
HETATM   43  N2  UNL     1     -22.893  26.750   3.347  1.00  0.00    -0.116 N 
HETATM   44  N3  UNL     1     -23.006  26.402   4.599  1.00  0.00    -0.211 N 
ATOM     45  H2  UNL     1     -23.258  27.604   2.926  1.00  0.00     0.207 HD
HETATM   46  N4  UNL     1     -22.405  25.235   4.741  1.00  0.00     0.018 NA
ATOM     47  H3  UNL     1     -23.472  26.935   5.333  1.00  0.00     0.206 HD
BRANCH  42  48
HETATM   48  N1  UNL     1     -21.909  25.860   1.332  1.00  0.00    -0.092 N 
HETATM   49  C1  UNL     1     -20.697  26.527   0.892  1.00  0.00     0.205 C 
BRANCH  48  50
HETATM   50  O1  UNL     1     -22.728  25.345   0.413  1.00  0.00    -0.274 OA
ATOM     51  H1  UNL     1     -22.387  24.699  -0.193  1.00  0.00     0.245 HD
ENDBRANCH  48  50
ENDBRANCH  42  48
ENDBRANCH   1  41
BRANCH   7  52
HETATM   52  O10 UNL     1     -23.055  22.852   2.132  1.00  0.00    -0.357 OA
ATOM     53  H10 UNL     1     -23.467  22.157   1.633  1.00  0.00     0.218 HD
ENDBRANCH   7  52
TORSDOF 16
ENDMDL
MODEL 2
REMARK VINA RESULT: -9.133478300      0.300      1.322
REMARK  16 active torsions:
REMARK  status: ('A' for Active; 'I' for Inactive)
REMARK    1  A    between atoms: N1_2  and  O1_3 
REMARK    2  A    between atoms: N1_2  and  C2_5 
REMARK    3  A    between atoms: N5_11  and  C3_12 
REMARK    4  A    between atoms: C4_15  and  C5_16 
REMARK    5  A    between atoms: C5_16  and  C6_17 
REMARK    6  A    between atoms: C6_17  and  N7_18 
REMARK    7  A    between atoms: N7_18  and  O2_19 
REMARK       I    between atoms: N7_18  and  C7_24 
REMARK    8  A    between atoms: O2_19  and  S1_20 
REMARK    9  A    between atoms: C7_24  and  C8_26 
REMARK   10  A    between atoms: C10_35  and  N11_36 
REMARK   11  A    between atoms: C11_41  and  C12_42 
REMARK   12  A    between atoms: C12_42  and  O7_43 
REMARK   13  A    between atoms: C12_42  and  C13_45 
REMARK   14  A    between atoms: C13_45  and  O8_46 
REMARK   15  A    between atoms: C13_45  and  O9_48 
REMARK   16  A    between atoms: C15_51  and  O10_52 
ROOT
HETATM    1  C3  UNL     1     -21.328  23.623   3.445  1.00  0.00     0.178 A 
HETATM    2  N6  UNL     1     -20.095  23.365   3.877  1.00  0.00    -0.341 N 
ATOM      3  H6  UNL     1     -19.613  24.109   4.380  1.00  0.00     0.167 HD
HETATM    4  C4  UNL     1     -19.421  22.195   3.705  1.00  0.00     0.021 A 
HETATM    5  C11 UNL     1     -20.070  21.184   3.026  1.00  0.00     0.001 A 
HETATM    6  C14 UNL     1     -21.371  21.371   2.537  1.00  0.00     0.052 A 
HETATM    7  C15 UNL     1     -21.969  22.587   2.757  1.00  0.00     0.112 A 
ENDROOT
BRANCH   4   8
HETATM    8  C5  UNL     1     -18.070  22.024   4.250  1.00  0.00     0.080 C 
BRANCH   8   9
HETATM    9  C6  UNL     1     -17.923  21.734   5.693  1.00  0.00     0.167 C 
BRANCH   9  10
HETATM   10  N7  UNL     1     -16.537  21.956   6.157  1.00  0.00    -0.199 N 
HETATM   11  C7  UNL     1     -15.985  20.819   6.832  1.00  0.00     0.313 C 
HETATM   12  O6  UNL     1     -16.665  19.746   6.962  1.00  0.00    -0.262 OA
BRANCH  10  13
HETATM   13  O2  UNL     1     -15.823  23.010   5.922  1.00  0.00    -0.126 OA
BRANCH  13  14
HETATM   14  S1  UNL     1     -15.790  24.358   6.798  1.00  0.00     0.274 S 
HETATM   15  O3  UNL     1     -14.379  24.835   7.157  1.00  0.00    -0.571 OA
HETATM   16  O4  UNL     1     -16.408  24.174   8.205  1.00  0.00    -0.571 OA
HETATM   17  O5  UNL     1     -16.668  25.589   6.098  1.00  0.00    -0.571 OA
ENDBRANCH  13  14
ENDBRANCH  10  13
BRANCH  11  18
HETATM   18  C8  UNL     1     -14.638  20.812   7.409  1.00  0.00     0.206 A 
HETATM   19  N8  UNL     1     -13.999  21.894   7.805  1.00  0.00    -0.170 N 
HETATM   20  C9  UNL     1     -12.805  21.885   8.349  1.00  0.00     0.692 A 
ATOM     21  H8  UNL     1     -14.461  22.795   7.680  1.00  0.00     0.186 HD
HETATM   22  N9  UNL     1     -12.156  22.950   8.760  1.00  0.00    -0.234 N 
HETATM   23  N10 UNL     1     -12.174  20.676   8.526  1.00  0.00    -0.023 N 
ATOM     24  H92 UNL     1     -12.624  23.847   8.629  1.00  0.00     0.174 HD
ATOM     25  H91 UNL     1     -11.228  22.943   9.184  1.00  0.00     0.174 HD
HETATM   26  C10 UNL     1     -12.778  19.546   8.145  1.00  0.00     0.692 A 
ATOM     27  H10 UNL     1     -11.247  20.642   8.947  1.00  0.00     0.203 HD
HETATM   28  N12 UNL     1     -13.994  19.613   7.592  1.00  0.00    -0.170 N 
ATOM     29  H12 UNL     1     -14.455  18.752   7.300  1.00  0.00     0.186 HD
BRANCH  26  30
HETATM   30  N11 UNL     1     -12.180  18.379   8.305  1.00  0.00    -0.234 N 
ATOM     31 2H11 UNL     1     -12.710  17.511   8.216  1.00  0.00     0.174 HD
ATOM     32 1H11 UNL     1     -11.183  18.330   8.514  1.00  0.00     0.174 HD
ENDBRANCH  26  30
ENDBRANCH  11  18
ENDBRANCH   9  10
ENDBRANCH   8   9
ENDBRANCH   4   8
BRANCH   5  33
HETATM   33  C12 UNL     1     -19.437  19.893   2.741  1.00  0.00     0.208 C 
BRANCH  33  34
HETATM   34  O7  UNL     1     -20.151  18.797   3.165  1.00  0.00    -0.386 OA
ATOM     35  H7  UNL     1     -20.093  18.040   2.593  1.00  0.00     0.210 HD
ENDBRANCH  33  34
BRANCH  33  36
HETATM   36  C13 UNL     1     -19.126  19.672   1.258  1.00  0.00     0.287 C 
BRANCH  36  37
HETATM   37  O8  UNL     1     -18.058  20.570   0.952  1.00  0.00    -0.369 OA
ATOM     38  H8  UNL     1     -17.262  20.061   1.045  1.00  0.00     0.212 HD
ENDBRANCH  36  37
BRANCH  36  39
HETATM   39  O9  UNL     1     -18.552  18.404   1.054  1.00  0.00    -0.369 OA
ATOM     40  H9  UNL     1     -19.136  17.848   0.554  1.00  0.00     0.212 HD
ENDBRANCH  36  39
ENDBRANCH  33  36
ENDBRANCH   5  33
BRANCH   1  41
HETATM   41  N5  UNL     1     -22.023  24.845   3.641  1.00  0.00    -0.047 N 
HETATM   42  C2  UNL     1     -22.273  25.777   2.748  1.00  0.00     0.740 A 
HETATM   43  N2  UNL     1     -22.951  26.781   3.366  1.00  0.00    -0.116 N 
HETATM   44  N3  UNL     1     -23.105  26.450   4.618  1.00  0.00    -0.211 N 
ATOM     45  H2  UNL     1     -23.282  27.640   2.928  1.00  0.00     0.207 HD
HETATM   46  N4  UNL     1     -22.541  25.269   4.787  1.00  0.00     0.018 NA
ATOM     47  H3  UNL     1     -23.574  27.004   5.335  1.00  0.00     0.206 HD
BRANCH  42  48
HETATM   48  N1  UNL     1     -21.944  25.842   1.385  1.00  0.00    -0.092 N 
HETATM   49  C1  UNL     1     -20.732  26.521   0.964  1.00  0.00     0.205 C 
BRANCH  48  50
HETATM   50  O1  UNL     1     -22.729  25.294   0.456  1.00  0.00    -0.274 OA
ATOM     51  H1  UNL     1     -22.327  24.797  -0.247  1.00  0.00     0.245 HD
ENDBRANCH  48  50
ENDBRANCH  42  48
ENDBRANCH   1  41
BRANCH   7  52
HETATM   52  O10 UNL     1     -23.242  22.830   2.296  1.00  0.00    -0.357 OA
ATOM     53  H10 UNL     1     -23.748  23.496   2.745  1.00  0.00     0.218 HD
ENDBRANCH   7  52
TORSDOF 16
ENDMDL
MODEL 3
REMARK VINA RESULT: -8.992626159      2.759      4.850
REMARK  16 active torsions:
REMARK  status: ('A' for Active; 'I' for Inactive)
REMARK    1  A    between atoms: N1_2  and  O1_3 
REMARK    2  A    between atoms: N1_2  and  C2_5 
REMARK    3  A    between atoms: N5_11  and  C3_12 
REMARK    4  A    between atoms: C4_15  and  C5_16 
REMARK    5  A    between atoms: C5_16  and  C6_17 
REMARK    6  A    between atoms: C6_17  and  N7_18 
REMARK    7  A    between atoms: N7_18  and  O2_19 
REMARK       I    between atoms: N7_18  and  C7_24 
REMARK    8  A    between atoms: O2_19  and  S1_20 
REMARK    9  A    between atoms: C7_24  and  C8_26 
REMARK   10  A    between atoms: C10_35  and  N11_36 
REMARK   11  A    between atoms: C11_41  and  C12_42 
REMARK   12  A    between atoms: C12_42  and  O7_43 
REMARK   13  A    between atoms: C12_42  and  C13_45 
REMARK   14  A    between atoms: C13_45  and  O8_46 
REMARK   15  A    between atoms: C13_45  and  O9_48 
REMARK   16  A    between atoms: C15_51  and  O10_52 
ROOT
HETATM    1  C3  UNL     1     -18.431  20.999   1.559  1.00  0.00     0.178 A 
HETATM    2  N6  UNL     1     -18.470  21.316   2.851  1.00  0.00    -0.341 N 
ATOM      3  H6  UNL     1     -18.603  20.553   3.514  1.00  0.00     0.167 HD
HETATM    4  C4  UNL     1     -18.347  22.570   3.365  1.00  0.00     0.021 A 
HETATM    5  C11 UNL     1     -18.165  23.606   2.472  1.00  0.00     0.001 A 
HETATM    6  C14 UNL     1     -18.112  23.360   1.093  1.00  0.00     0.052 A 
HETATM    7  C15 UNL     1     -18.248  22.061   0.668  1.00  0.00     0.112 A 
ENDROOT
BRANCH   4   8
HETATM    8  C5  UNL     1     -18.384  22.791   4.815  1.00  0.00     0.080 C 
BRANCH   8   9
HETATM    9  C6  UNL     1     -17.864  21.728   5.703  1.00  0.00     0.167 C 
BRANCH   9  10
HETATM   10  N7  UNL     1     -16.467  21.989   6.107  1.00  0.00    -0.199 N 
HETATM   11  C7  UNL     1     -15.847  20.862   6.737  1.00  0.00     0.313 C 
HETATM   12  O6  UNL     1     -16.484  19.765   6.879  1.00  0.00    -0.262 OA
BRANCH  10  13
HETATM   13  O2  UNL     1     -15.800  23.071   5.859  1.00  0.00    -0.126 OA
BRANCH  13  14
HETATM   14  S1  UNL     1     -15.810  24.423   6.730  1.00  0.00     0.274 S 
HETATM   15  O3  UNL     1     -14.416  24.954   7.077  1.00  0.00    -0.571 OA
HETATM   16  O4  UNL     1     -16.412  24.222   8.142  1.00  0.00    -0.571 OA
HETATM   17  O5  UNL     1     -16.738  25.618   6.031  1.00  0.00    -0.571 OA
ENDBRANCH  13  14
ENDBRANCH  10  13
BRANCH  11  18
HETATM   18  C8  UNL     1     -14.475  20.892   7.252  1.00  0.00     0.206 A 
HETATM   19  N8  UNL     1     -13.668  19.851   7.261  1.00  0.00    -0.170 N 
HETATM   20  C9  UNL     1     -12.429  19.885   7.694  1.00  0.00     0.692 A 
ATOM     21  H8  UNL     1     -14.028  18.964   6.910  1.00  0.00     0.186 HD
HETATM   22  N9  UNL     1     -11.606  18.862   7.701  1.00  0.00    -0.234 N 
HETATM   23  N10 UNL     1     -11.933  21.076   8.167  1.00  0.00    -0.023 N 
ATOM     24  H92 UNL     1     -11.974  17.978   7.351  1.00  0.00     0.174 HD
ATOM     25  H91 UNL     1     -10.643  18.888   8.037  1.00  0.00     0.174 HD
HETATM   26  C10 UNL     1     -12.707  22.165   8.178  1.00  0.00     0.692 A 
ATOM     27  H10 UNL     1     -10.973  21.129   8.508  1.00  0.00     0.203 HD
HETATM   28  N12 UNL     1     -13.964  22.074   7.728  1.00  0.00    -0.170 N 
ATOM     29  H12 UNL     1     -14.556  22.904   7.738  1.00  0.00     0.186 HD
BRANCH  26  30
HETATM   30  N11 UNL     1     -12.242  23.315   8.634  1.00  0.00    -0.234 N 
ATOM     31 2H11 UNL     1     -12.422  23.598   9.598  1.00  0.00     0.174 HD
ATOM     32 1H11 UNL     1     -11.695  23.929   8.032  1.00  0.00     0.174 HD
ENDBRANCH  26  30
ENDBRANCH  11  18
ENDBRANCH   9  10
ENDBRANCH   8   9
ENDBRANCH   4   8
BRANCH   5  33
HETATM   33  C12 UNL     1     -18.062  25.005   2.897  1.00  0.00     0.208 C 
BRANCH  33  34
HETATM   34  O7  UNL     1     -17.169  25.761   2.173  1.00  0.00    -0.386 OA
ATOM     35  H7  UNL     1     -17.133  25.553   1.246  1.00  0.00     0.210 HD
ENDBRANCH  33  34
BRANCH  33  36
HETATM   36  C13 UNL     1     -19.396  25.756   2.878  1.00  0.00     0.287 C 
BRANCH  36  37
HETATM   37  O8  UNL     1     -20.260  24.982   2.045  1.00  0.00    -0.369 OA
ATOM     38  H8  UNL     1     -21.116  25.386   2.120  1.00  0.00     0.212 HD
ENDBRANCH  36  37
BRANCH  36  39
HETATM   39  O9  UNL     1     -20.019  25.693   4.139  1.00  0.00    -0.369 OA
ATOM     40  H9  UNL     1     -20.467  26.508   4.332  1.00  0.00     0.212 HD
ENDBRANCH  36  39
ENDBRANCH  33  36
ENDBRANCH   5  33
BRANCH   1  41
HETATM   41  N5  UNL     1     -18.549  19.683   1.038  1.00  0.00    -0.047 N 
HETATM   42  C2  UNL     1     -19.384  18.742   1.421  1.00  0.00     0.740 A 
HETATM   43  N2  UNL     1     -19.148  17.637   0.664  1.00  0.00    -0.116 N 
HETATM   44  N3  UNL     1     -18.179  17.916  -0.164  1.00  0.00    -0.211 N 
ATOM     45  H2  UNL     1     -19.641  16.746   0.731  1.00  0.00     0.207 HD
HETATM   46  N4  UNL     1     -17.814  19.165   0.062  1.00  0.00     0.018 NA
ATOM     47  H3  UNL     1     -17.778  17.285  -0.857  1.00  0.00     0.206 HD
BRANCH  42  48
HETATM   48  N1  UNL     1     -20.372  18.753   2.418  1.00  0.00    -0.092 N 
HETATM   49  C1  UNL     1     -21.776  18.738   2.047  1.00  0.00     0.205 C 
BRANCH  48  50
HETATM   50  O1  UNL     1     -20.050  18.785   3.712  1.00  0.00    -0.274 OA
ATOM     51  H1  UNL     1     -19.778  17.980   4.135  1.00  0.00     0.245 HD
ENDBRANCH  48  50
ENDBRANCH  42  48
ENDBRANCH   1  41
BRANCH   7  52
HETATM   52  O10 UNL     1     -18.209  21.760  -0.674  1.00  0.00    -0.357 OA
ATOM     53  H10 UNL     1     -17.357  21.596  -1.059  1.00  0.00     0.218 HD
ENDBRANCH   7  52
TORSDOF 16
ENDMDL
MODEL 4
REMARK VINA RESULT: -8.957225273      3.029      5.407
REMARK  16 active torsions:
REMARK  status: ('A' for Active; 'I' for Inactive)
REMARK    1  A    between atoms: N1_2  and  O1_3 
REMARK    2  A    between atoms: N1_2  and  C2_5 
REMARK    3  A    between atoms: N5_11  and  C3_12 
REMARK    4  A    between atoms: C4_15  and  C5_16 
REMARK    5  A    between atoms: C5_16  and  C6_17 
REMARK    6  A    between atoms: C6_17  and  N7_18 
REMARK    7  A    between atoms: N7_18  and  O2_19 
REMARK       I    between atoms: N7_18  and  C7_24 
REMARK    8  A    between atoms: O2_19  and  S1_20 
REMARK    9  A    between atoms: C7_24  and  C8_26 
REMARK   10  A    between atoms: C10_35  and  N11_36 
REMARK   11  A    between atoms: C11_41  and  C12_42 
REMARK   12  A    between atoms: C12_42  and  O7_43 
REMARK   13  A    between atoms: C12_42  and  C13_45 
REMARK   14  A    between atoms: C13_45  and  O8_46 
REMARK   15  A    between atoms: C13_45  and  O9_48 
REMARK   16  A    between atoms: C15_51  and  O10_52 
ROOT
HETATM    1  C3  UNL     1     -18.497  20.607   0.965  1.00  0.00     0.178 A 
HETATM    2  N6  UNL     1     -18.862  21.195   2.102  1.00  0.00    -0.341 N 
ATOM      3  H6  UNL     1     -19.117  20.587   2.880  1.00  0.00     0.167 HD
HETATM    4  C4  UNL     1     -18.923  22.537   2.318  1.00  0.00     0.021 A 
HETATM    5  C11 UNL     1     -18.576  23.364   1.269  1.00  0.00     0.001 A 
HETATM    6  C14 UNL     1     -18.180  22.828   0.036  1.00  0.00     0.052 A 
HETATM    7  C15 UNL     1     -18.151  21.460  -0.087  1.00  0.00     0.112 A 
ENDROOT
BRANCH   4   8
HETATM    8  C5  UNL     1     -19.320  23.067   3.628  1.00  0.00     0.080 C 
BRANCH   8   9
HETATM    9  C6  UNL     1     -18.950  22.302   4.838  1.00  0.00     0.167 C 
BRANCH   9  10
HETATM   10  N7  UNL     1     -17.526  22.492   5.191  1.00  0.00    -0.199 N 
HETATM   11  C7  UNL     1     -17.076  21.588   6.207  1.00  0.00     0.313 C 
HETATM   12  O6  UNL     1     -17.867  20.713   6.696  1.00  0.00    -0.262 OA
BRANCH  10  13
HETATM   13  O2  UNL     1     -16.708  23.310   4.609  1.00  0.00    -0.126 OA
BRANCH  13  14
HETATM   14  S1  UNL     1     -16.593  24.893   4.867  1.00  0.00     0.274 S 
HETATM   15  O3  UNL     1     -16.217  25.266   6.304  1.00  0.00    -0.571 OA
HETATM   16  O4  UNL     1     -17.949  25.625   4.715  1.00  0.00    -0.571 OA
HETATM   17  O5  UNL     1     -15.576  25.639   3.779  1.00  0.00    -0.571 OA
ENDBRANCH  13  14
ENDBRANCH  10  13
BRANCH  11  18
HETATM   18  C8  UNL     1     -15.713  21.607   6.743  1.00  0.00     0.206 A 
HETATM   19  N8  UNL     1     -15.120  22.685   7.215  1.00  0.00    -0.170 N 
HETATM   20  C9  UNL     1     -13.910  22.697   7.723  1.00  0.00     0.692 A 
ATOM     21  H8  UNL     1     -15.635  23.566   7.183  1.00  0.00     0.186 HD
HETATM   22  N9  UNL     1     -13.307  23.758   8.209  1.00  0.00    -0.234 N 
HETATM   23  N10 UNL     1     -13.210  21.515   7.775  1.00  0.00    -0.023 N 
ATOM     24  H92 UNL     1     -13.827  24.635   8.170  1.00  0.00     0.174 HD
ATOM     25  H91 UNL     1     -12.367  23.767   8.604  1.00  0.00     0.174 HD
HETATM   26  C10 UNL     1     -13.763  20.390   7.313  1.00  0.00     0.692 A 
ATOM     27  H10 UNL     1     -12.269  21.497   8.166  1.00  0.00     0.203 HD
HETATM   28  N12 UNL     1     -14.999  20.435   6.802  1.00  0.00    -0.170 N 
ATOM     29  H12 UNL     1     -15.422  19.578   6.448  1.00  0.00     0.186 HD
BRANCH  26  30
HETATM   30  N11 UNL     1     -13.098  19.249   7.353  1.00  0.00    -0.234 N 
ATOM     31 2H11 UNL     1     -12.950  18.708   6.500  1.00  0.00     0.174 HD
ATOM     32 1H11 UNL     1     -12.721  18.898   8.233  1.00  0.00     0.174 HD
ENDBRANCH  26  30
ENDBRANCH  11  18
ENDBRANCH   9  10
ENDBRANCH   8   9
ENDBRANCH   4   8
BRANCH   5  33
HETATM   33  C12 UNL     1     -18.641  24.826   1.363  1.00  0.00     0.208 C 
BRANCH  33  34
HETATM   34  O7  UNL     1     -17.443  25.437   1.652  1.00  0.00    -0.386 OA
ATOM     35  H7  UNL     1     -17.479  26.062   2.367  1.00  0.00     0.210 HD
ENDBRANCH  33  34
BRANCH  33  36
HETATM   36  C13 UNL     1     -19.190  25.501   0.103  1.00  0.00     0.287 C 
BRANCH  36  37
HETATM   37  O8  UNL     1     -20.555  25.806   0.395  1.00  0.00    -0.369 OA
ATOM     38  H8  UNL     1     -20.541  26.266   1.225  1.00  0.00     0.212 HD
ENDBRANCH  36  37
BRANCH  36  39
HETATM   39  O9  UNL     1     -18.605  26.769  -0.076  1.00  0.00    -0.369 OA
ATOM     40  H9  UNL     1     -19.033  27.239  -0.781  1.00  0.00     0.212 HD
ENDBRANCH  36  39
ENDBRANCH  33  36
ENDBRANCH   5  33
BRANCH   1  41
HETATM   41  N5  UNL     1     -18.426  19.204   0.759  1.00  0.00    -0.047 N 
HETATM   42  C2  UNL     1     -19.160  18.272   1.328  1.00  0.00     0.740 A 
HETATM   43  N2  UNL     1     -18.751  17.066   0.852  1.00  0.00    -0.116 N 
HETATM   44  N3  UNL     1     -17.782  17.275   0.005  1.00  0.00    -0.211 N 
ATOM     45  H2  UNL     1     -19.135  16.157   1.111  1.00  0.00     0.207 HD
HETATM   46  N4  UNL     1     -17.584  18.579  -0.055  1.00  0.00     0.018 NA
ATOM     47  H3  UNL     1     -17.271  16.563  -0.516  1.00  0.00     0.206 HD
BRANCH  42  48
HETATM   48  N1  UNL     1     -20.192  18.379   2.273  1.00  0.00    -0.092 N 
HETATM   49  C1  UNL     1     -21.565  18.119   1.879  1.00  0.00     0.205 C 
BRANCH  48  50
HETATM   50  O1  UNL     1     -19.942  18.724   3.537  1.00  0.00    -0.274 OA
ATOM     51  H1  UNL     1     -19.557  18.079   4.119  1.00  0.00     0.245 HD
ENDBRANCH  48  50
ENDBRANCH  42  48
ENDBRANCH   1  41
BRANCH   7  52
HETATM   52  O10 UNL     1     -17.775  20.877  -1.275  1.00  0.00    -0.357 OA
ATOM     53  H10 UNL     1     -18.468  20.596  -1.861  1.00  0.00     0.218 HD
ENDBRANCH   7  52
TORSDOF 16
ENDMDL
MODEL 5
REMARK VINA RESULT: -8.821011898      2.089      3.506
REMARK  16 active torsions:
REMARK  status: ('A' for Active; 'I' for Inactive)
REMARK    1  A    between atoms: N1_2  and  O1_3 
REMARK    2  A    between atoms: N1_2  and  C2_5 
REMARK    3  A    between atoms: N5_11  and  C3_12 
REMARK    4  A    between atoms: C4_15  and  C5_16 
REMARK    5  A    between atoms: C5_16  and  C6_17 
REMARK    6  A    between atoms: C6_17  and  N7_18 
REMARK    7  A    between atoms: N7_18  and  O2_19 
REMARK       I    between atoms: N7_18  and  C7_24 
REMARK    8  A    between atoms: O2_19  and  S1_20 
REMARK    9  A    between atoms: C7_24  and  C8_26 
REMARK   10  A    between atoms: C10_35  and  N11_36 
REMARK   11  A    between atoms: C11_41  and  C12_42 
REMARK   12  A    between atoms: C12_42  and  O7_43 
REMARK   13  A    between atoms: C12_42  and  C13_45 
REMARK   14  A    between atoms: C13_45  and  O8_46 
REMARK   15  A    between atoms: C13_45  and  O9_48 
REMARK   16  A    between atoms: C15_51  and  O10_52 
ROOT
HETATM    1  C3  UNL     1     -21.740  22.726   3.205  1.00  0.00     0.178 A 
HETATM    2  N6  UNL     1     -20.706  22.154   3.820  1.00  0.00    -0.341 N 
ATOM      3  H6  UNL     1     -20.917  21.497   4.571  1.00  0.00     0.167 HD
HETATM    4  C4  UNL     1     -19.394  22.368   3.534  1.00  0.00     0.021 A 
HETATM    5  C11 UNL     1     -19.104  23.254   2.516  1.00  0.00     0.001 A 
HETATM    6  C14 UNL     1     -20.131  23.901   1.816  1.00  0.00     0.052 A 
HETATM    7  C15 UNL     1     -21.426  23.622   2.178  1.00  0.00     0.112 A 
ENDROOT
BRANCH   4   8
HETATM    8  C5  UNL     1     -18.342  21.657   4.270  1.00  0.00     0.080 C 
BRANCH   8   9
HETATM    9  C6  UNL     1     -18.184  21.933   5.714  1.00  0.00     0.167 C 
BRANCH   9  10
HETATM   10  N7  UNL     1     -16.769  22.158   6.076  1.00  0.00    -0.199 N 
HETATM   11  C7  UNL     1     -16.160  21.016   6.691  1.00  0.00     0.313 C 
HETATM   12  O6  UNL     1     -16.821  19.936   6.856  1.00  0.00    -0.262 OA
BRANCH  10  13
HETATM   13  O2  UNL     1     -16.081  23.221   5.805  1.00  0.00    -0.126 OA
BRANCH  13  14
HETATM   14  S1  UNL     1     -15.916  24.519   6.740  1.00  0.00     0.274 S 
HETATM   15  O3  UNL     1     -16.521  25.796   6.149  1.00  0.00    -0.571 OA
HETATM   16  O4  UNL     1     -14.438  24.945   6.918  1.00  0.00    -0.571 OA
HETATM   17  O5  UNL     1     -16.480  24.260   8.286  1.00  0.00    -0.571 OA
ENDBRANCH  13  14
ENDBRANCH  10  13
BRANCH  11  18
HETATM   18  C8  UNL     1     -14.774  21.011   7.165  1.00  0.00     0.206 A 
HETATM   19  N8  UNL     1     -14.164  22.062   7.675  1.00  0.00    -0.170 N 
HETATM   20  C9  UNL     1     -12.932  22.050   8.128  1.00  0.00     0.692 A 
ATOM     21  H8  UNL     1     -14.682  22.940   7.720  1.00  0.00     0.186 HD
HETATM   22  N9  UNL     1     -12.311  23.083   8.649  1.00  0.00    -0.234 N 
HETATM   23  N10 UNL     1     -12.227  20.872   8.075  1.00  0.00    -0.023 N 
ATOM     24  H92 UNL     1     -12.835  23.957   8.688  1.00  0.00     0.174 HD
ATOM     25  H91 UNL     1     -11.354  23.073   9.001  1.00  0.00     0.174 HD
HETATM   26  C10 UNL     1     -12.797  19.773   7.571  1.00  0.00     0.692 A 
ATOM     27  H10 UNL     1     -11.268  20.835   8.421  1.00  0.00     0.203 HD
HETATM   28  N12 UNL     1     -14.055  19.842   7.120  1.00  0.00    -0.170 N 
ATOM     29  H12 UNL     1     -14.490  19.005   6.733  1.00  0.00     0.186 HD
BRANCH  26  30
HETATM   30  N11 UNL     1     -12.127  18.636   7.510  1.00  0.00    -0.234 N 
ATOM     31 2H11 UNL     1     -11.131  18.610   7.733  1.00  0.00     0.174 HD
ATOM     32 1H11 UNL     1     -12.597  17.770   7.246  1.00  0.00     0.174 HD
ENDBRANCH  26  30
ENDBRANCH  11  18
ENDBRANCH   9  10
ENDBRANCH   8   9
ENDBRANCH   4   8
BRANCH   5  33
HETATM   33  C12 UNL     1     -17.730  23.601   2.141  1.00  0.00     0.208 C 
BRANCH  33  34
HETATM   34  O7  UNL     1     -17.520  23.734   0.788  1.00  0.00    -0.386 OA
ATOM     35  H7  UNL     1     -16.899  23.116   0.419  1.00  0.00     0.210 HD
ENDBRANCH  33  34
BRANCH  33  36
HETATM   36  C13 UNL     1     -17.216  24.885   2.796  1.00  0.00     0.287 C 
BRANCH  36  37
HETATM   37  O8  UNL     1     -17.569  25.941   1.900  1.00  0.00    -0.369 OA
ATOM     38  H8  UNL     1     -17.916  26.635   2.448  1.00  0.00     0.212 HD
ENDBRANCH  36  37
BRANCH  36  39
HETATM   39  O9  UNL     1     -17.957  25.183   3.956  1.00  0.00    -0.369 OA
ATOM     40  H9  UNL     1     -17.507  24.870   4.731  1.00  0.00     0.212 HD
ENDBRANCH  36  39
ENDBRANCH  33  36
ENDBRANCH   5  33
BRANCH   1  41
HETATM   41  N5  UNL     1     -23.105  22.483   3.508  1.00  0.00    -0.047 N 
HETATM   42  C2  UNL     1     -23.770  22.868   4.575  1.00  0.00     0.740 A 
HETATM   43  N2  UNL     1     -25.046  22.411   4.463  1.00  0.00    -0.116 N 
HETATM   44  N3  UNL     1     -25.142  21.759   3.338  1.00  0.00    -0.211 N 
ATOM     45  H2  UNL     1     -25.796  22.553   5.140  1.00  0.00     0.207 HD
HETATM   46  N4  UNL     1     -23.960  21.804   2.752  1.00  0.00     0.018 NA
ATOM     47  H3  UNL     1     -25.978  21.299   2.977  1.00  0.00     0.206 HD
BRANCH  42  48
HETATM   48  N1  UNL     1     -23.348  23.605   5.692  1.00  0.00    -0.092 N 
HETATM   49  C1  UNL     1     -23.117  22.934   6.959  1.00  0.00     0.205 C 
BRANCH  48  50
HETATM   50  O1  UNL     1     -23.158  24.924   5.620  1.00  0.00    -0.274 OA
ATOM     51  H1  UNL     1     -22.288  25.250   5.419  1.00  0.00     0.245 HD
ENDBRANCH  48  50
ENDBRANCH  42  48
ENDBRANCH   1  41
BRANCH   7  52
HETATM   52  O10 UNL     1     -22.476  24.231   1.530  1.00  0.00    -0.357 OA
ATOM     53  H10 UNL     1     -22.293  24.638   0.692  1.00  0.00     0.218 HD
ENDBRANCH   7  52
TORSDOF 16
ENDMDL
