MODEL 1
REMARK VINA RESULT: -9.217599771      0.000      0.000
REMARK  15 active torsions:
REMARK  status: ('A' for Active; 'I' for Inactive)
REMARK    1  A    between atoms: C2_2  and  N1_3 
REMARK    2  A    between atoms: C2_2  and  C3_7 
REMARK    3  A    between atoms: C3_7  and  N2_8 
REMARK    4  A    between atoms: C3_7  and  N14_48 
REMARK    5  A    between atoms: N2_8  and  N3_9 
REMARK       I    between atoms: N3_9  and  C4_11 
REMARK       I    between atoms: C4_11  and  N4_13 
REMARK    6  A    between atoms: N4_13  and  C5_15 
REMARK    7  A    between atoms: C5_15  and  C6_20 
REMARK    8  A    between atoms: N5_16  and  O2_18 
REMARK    9  A    between atoms: N6_22  and  C8_23 
REMARK   10  A    between atoms: C11_29  and  N8_30 
REMARK   11  A    between atoms: C13_32  and  C14_33 
REMARK   12  A    between atoms: C14_33  and  N9_34 
REMARK   13  A    between atoms: C15_41  and  O3_42 
REMARK   14  A    between atoms: C16_53  and  C17_54 
REMARK   15  A    between atoms: C18_59  and  O4_60 
ROOT
HETATM    1  C5  UNL     1     -15.338  24.119   6.413  1.00  0.00     0.159 C 
HETATM    2  N5  UNL     1     -16.248  24.641   7.229  1.00  0.00    -0.251 N 
ATOM      3  H5  UNL     1     -16.968  25.275   6.882  1.00  0.00     0.196 HD
ENDROOT
BRANCH   1   4
HETATM    4  N4  UNL     1     -15.415  24.478   5.074  1.00  0.00    -0.290 N 
HETATM    5  C4  UNL     1     -16.560  24.875   4.389  1.00  0.00     0.337 C 
HETATM    6  N3  UNL     1     -16.470  25.210   2.986  1.00  0.00    -0.253 N 
HETATM    7  O1  UNL     1     -17.729  24.979   4.895  1.00  0.00    -0.246 OA
ATOM      8  H3  UNL     1     -15.563  25.152   2.523  1.00  0.00     0.187 HD
ATOM      9  H4  UNL     1     -14.546  24.447   4.540  1.00  0.00     0.172 HD
BRANCH   6  10
HETATM   10  N2  UNL     1     -17.566  25.607   2.250  1.00  0.00    -0.107 NA
BRANCH  10  11
HETATM   11  C3  UNL     1     -18.554  24.542   2.223  1.00  0.00     0.254 C 
BRANCH  11  12
HETATM   12  C2  UNL     1     -19.962  25.092   2.152  1.00  0.00     0.221 C 
HETATM   13  C1  UNL     1     -20.919  23.923   2.229  1.00  0.00     0.043 C 
BRANCH  12  14
HETATM   14  N1  UNL     1     -20.252  26.030   3.190  1.00  0.00    -0.072 N 
ATOM     15  H13 UNL     1     -21.249  26.240   3.248  1.00  0.00     0.274 HD
ATOM     16  H12 UNL     1     -20.132  25.623   4.118  1.00  0.00     0.274 HD
ATOM     17  H11 UNL     1     -19.690  26.872   3.066  1.00  0.00     0.274 HD
ENDBRANCH  12  14
ENDBRANCH  11  12
BRANCH  11  18
HETATM   18  N14 UNL     1     -18.297  23.789   1.015  1.00  0.00    -0.230 N 
HETATM   19  N15 UNL     1     -18.207  22.463   0.888  1.00  0.00    -0.236 N 
HETATM   20  N16 UNL     1     -17.963  22.152  -0.372  1.00  0.00    -0.279 N 
ATOM     21  H15 UNL     1     -18.312  21.791   1.648  1.00  0.00     0.208 HD
HETATM   22  C16 UNL     1     -17.886  23.277  -1.114  1.00  0.00     0.142 A 
ATOM     23  H16 UNL     1     -17.851  21.204  -0.731  1.00  0.00     0.189 HD
HETATM   24  C18 UNL     1     -18.102  24.304  -0.196  1.00  0.00     0.192 A 
BRANCH  22  25
HETATM   25  C17 UNL     1     -17.634  23.373  -2.538  1.00  0.00     0.142 C 
HETATM   26  N17 UNL     1     -17.916  24.461  -3.148  1.00  0.00    -0.386 N 
ATOM     27 2H17 UNL     1     -18.312  25.246  -2.630  1.00  0.00     0.157 HD
ATOM     28 1H17 UNL     1     -17.738  24.529  -4.150  1.00  0.00     0.157 HD
HETATM   29  N18 UNL     1     -17.088  22.292  -3.251  1.00  0.00    -0.081 NA
ENDBRANCH  22  25
BRANCH  24  30
HETATM   30  O4  UNL     1     -18.096  25.638  -0.602  1.00  0.00    -0.343 OA
ATOM     31  H4  UNL     1     -17.536  26.352  -0.321  1.00  0.00     0.219 HD
ENDBRANCH  24  30
ENDBRANCH  11  18
ENDBRANCH  10  11
ENDBRANCH   6  10
ENDBRANCH   1   4
BRANCH   1  32
HETATM   32  C6  UNL     1     -14.387  23.232   7.061  1.00  0.00     0.112 A 
HETATM   33  C7  UNL     1     -14.277  21.853   6.937  1.00  0.00     0.147 A 
HETATM   34  N6  UNL     1     -13.297  21.426   7.738  1.00  0.00    -0.277 N 
HETATM   35  N12 UNL     1     -12.798  22.499   8.356  1.00  0.00    -0.240 N 
HETATM   36  N13 UNL     1     -13.443  23.552   7.952  1.00  0.00    -0.281 N 
ATOM     37  H12 UNL     1     -12.035  22.493   9.033  1.00  0.00     0.208 HD
ATOM     38  H13 UNL     1     -13.254  24.502   8.274  1.00  0.00     0.188 HD
BRANCH  34  39
HETATM   39  C8  UNL     1     -12.784  20.116   7.985  1.00  0.00     0.171 C 
HETATM   40  C9  UNL     1     -13.773  18.996   7.774  1.00  0.00     0.211 C 
HETATM   41  C10 UNL     1     -15.199  19.402   7.830  1.00  0.00     0.042 C 
HETATM   42  N7  UNL     1     -13.436  17.957   8.747  1.00  0.00    -0.044 N 
HETATM   43  C11 UNL     1     -12.143  18.310   9.253  1.00  0.00     0.335 C 
ATOM     44  H72 UNL     1     -14.140  17.831   9.474  1.00  0.00     0.280 HD
ATOM     45  H71 UNL     1     -13.483  17.011   8.369  1.00  0.00     0.280 HD
HETATM   46  C15 UNL     1     -12.333  19.842   9.392  1.00  0.00     0.196 C 
BRANCH  43  47
HETATM   47  N8  UNL     1     -11.762  17.694  10.476  1.00  0.00    -0.251 N 
HETATM   48  C12 UNL     1     -11.451  16.406  10.693  1.00  0.00     0.138 A 
HETATM   49  C13 UNL     1     -11.139  16.252  12.023  1.00  0.00     0.066 A 
HETATM   50  N10 UNL     1     -11.273  17.467  12.580  1.00  0.00    -0.285 N 
HETATM   51  N11 UNL     1     -11.649  18.323  11.631  1.00  0.00    -0.018 NA
ATOM     52  H10 UNL     1     -11.114  17.695  13.562  1.00  0.00     0.184 HD
BRANCH  49  53
HETATM   53  C14 UNL     1     -10.731  15.027  12.757  1.00  0.00     0.288 C 
BRANCH  53  54
HETATM   54  N9  UNL     1      -9.360  14.682  12.513  1.00  0.00    -0.074 N 
ATOM     55  H93 UNL     1      -9.217  14.407  11.541  1.00  0.00     0.274 HD
ATOM     56  H92 UNL     1      -8.762  15.507  12.539  1.00  0.00     0.274 HD
ATOM     57  H91 UNL     1      -9.025  13.963  13.153  1.00  0.00     0.274 HD
ENDBRANCH  53  54
ENDBRANCH  49  53
ENDBRANCH  43  47
BRANCH  46  58
HETATM   58  O3  UNL     1     -13.326  20.083  10.349  1.00  0.00    -0.389 OA
ATOM     59  H3  UNL     1     -12.978  20.259  11.216  1.00  0.00     0.210 HD
ENDBRANCH  46  58
ENDBRANCH  34  39
ENDBRANCH   1  32
BRANCH   2  60
HETATM   60  O2  UNL     1     -16.185  24.299   8.541  1.00  0.00    -0.288 OA
ATOM     61  H2  UNL     1     -16.991  24.332   9.043  1.00  0.00     0.244 HD
ENDBRANCH   2  60
TORSDOF 15
ENDMDL
MODEL 2
REMARK VINA RESULT: -9.174138233      4.394      8.254
REMARK  15 active torsions:
REMARK  status: ('A' for Active; 'I' for Inactive)
REMARK    1  A    between atoms: C2_2  and  N1_3 
REMARK    2  A    between atoms: C2_2  and  C3_7 
REMARK    3  A    between atoms: C3_7  and  N2_8 
REMARK    4  A    between atoms: C3_7  and  N14_48 
REMARK    5  A    between atoms: N2_8  and  N3_9 
REMARK       I    between atoms: N3_9  and  C4_11 
REMARK       I    between atoms: C4_11  and  N4_13 
REMARK    6  A    between atoms: N4_13  and  C5_15 
REMARK    7  A    between atoms: C5_15  and  C6_20 
REMARK    8  A    between atoms: N5_16  and  O2_18 
REMARK    9  A    between atoms: N6_22  and  C8_23 
REMARK   10  A    between atoms: C11_29  and  N8_30 
REMARK   11  A    between atoms: C13_32  and  C14_33 
REMARK   12  A    between atoms: C14_33  and  N9_34 
REMARK   13  A    between atoms: C15_41  and  O3_42 
REMARK   14  A    between atoms: C16_53  and  C17_54 
REMARK   15  A    between atoms: C18_59  and  O4_60 
ROOT
HETATM    1  C5  UNL     1     -20.643  25.490   2.008  1.00  0.00     0.159 C 
HETATM    2  N5  UNL     1     -20.376  26.126   0.872  1.00  0.00    -0.251 N 
ATOM      3  H5  UNL     1     -21.120  26.390   0.226  1.00  0.00     0.196 HD
ENDROOT
BRANCH   1   4
HETATM    4  N4  UNL     1     -21.976  25.203   2.270  1.00  0.00    -0.290 N 
HETATM    5  C4  UNL     1     -22.521  24.860   3.505  1.00  0.00     0.337 C 
HETATM    6  N3  UNL     1     -23.935  24.584   3.607  1.00  0.00    -0.253 N 
HETATM    7  O1  UNL     1     -21.870  24.762   4.601  1.00  0.00    -0.246 OA
ATOM      8  H3  UNL     1     -24.511  24.649   2.767  1.00  0.00     0.187 HD
ATOM      9  H4  UNL     1     -22.620  25.249   1.480  1.00  0.00     0.172 HD
BRANCH   6  10
HETATM   10  N2  UNL     1     -24.535  24.236   4.798  1.00  0.00    -0.107 NA
BRANCH  10  11
HETATM   11  C3  UNL     1     -25.894  24.747   4.835  1.00  0.00     0.254 C 
BRANCH  11  12
HETATM   12  C2  UNL     1     -26.777  23.915   5.739  1.00  0.00     0.221 C 
HETATM   13  C1  UNL     1     -27.707  23.107   4.861  1.00  0.00     0.043 C 
BRANCH  12  14
HETATM   14  N1  UNL     1     -26.038  23.043   6.598  1.00  0.00    -0.072 N 
ATOM     15  H13 UNL     1     -25.727  22.202   6.113  1.00  0.00     0.274 HD
ATOM     16  H12 UNL     1     -25.123  23.425   6.835  1.00  0.00     0.274 HD
ATOM     17  H11 UNL     1     -26.589  22.826   7.429  1.00  0.00     0.274 HD
ENDBRANCH  12  14
ENDBRANCH  11  12
BRANCH  11  18
HETATM   18  N14 UNL     1     -25.804  26.081   5.387  1.00  0.00    -0.230 N 
HETATM   19  N15 UNL     1     -26.424  27.183   4.956  1.00  0.00    -0.236 N 
HETATM   20  N16 UNL     1     -26.092  28.208   5.719  1.00  0.00    -0.279 N 
ATOM     21  H15 UNL     1     -27.057  27.226   4.158  1.00  0.00     0.208 HD
HETATM   22  C16 UNL     1     -25.237  27.803   6.682  1.00  0.00     0.142 A 
ATOM     23  H16 UNL     1     -26.430  29.162   5.599  1.00  0.00     0.189 HD
HETATM   24  C18 UNL     1     -25.075  26.440   6.440  1.00  0.00     0.192 A 
BRANCH  22  25
HETATM   25  C17 UNL     1     -24.637  28.617   7.721  1.00  0.00     0.142 C 
HETATM   26  N17 UNL     1     -23.436  28.374   8.086  1.00  0.00    -0.386 N 
ATOM     27 2H17 UNL     1     -22.915  27.616   7.646  1.00  0.00     0.157 HD
ATOM     28 1H17 UNL     1     -23.014  28.946   8.817  1.00  0.00     0.157 HD
HETATM   29  N18 UNL     1     -25.355  29.661   8.328  1.00  0.00    -0.081 NA
ENDBRANCH  22  25
BRANCH  24  30
HETATM   30  O4  UNL     1     -24.245  25.664   7.249  1.00  0.00    -0.343 OA
ATOM     31  H4  UNL     1     -23.544  25.935   7.831  1.00  0.00     0.219 HD
ENDBRANCH  24  30
ENDBRANCH  11  18
ENDBRANCH  10  11
ENDBRANCH   6  10
ENDBRANCH   1   4
BRANCH   1  32
HETATM   32  C6  UNL     1     -19.475  25.190   2.818  1.00  0.00     0.112 A 
HETATM   33  C7  UNL     1     -18.780  23.992   2.914  1.00  0.00     0.147 A 
HETATM   34  N6  UNL     1     -17.795  24.135   3.805  1.00  0.00    -0.277 N 
HETATM   35  N12 UNL     1     -17.859  25.387   4.264  1.00  0.00    -0.240 N 
HETATM   36  N13 UNL     1     -18.846  25.997   3.680  1.00  0.00    -0.281 N 
ATOM     37  H12 UNL     1     -17.236  25.796   4.959  1.00  0.00     0.208 HD
ATOM     38  H13 UNL     1     -19.108  26.967   3.856  1.00  0.00     0.188 HD
BRANCH  34  39
HETATM   39  C8  UNL     1     -16.803  23.218   4.269  1.00  0.00     0.171 C 
HETATM   40  C9  UNL     1     -17.346  21.944   4.866  1.00  0.00     0.211 C 
HETATM   41  C10 UNL     1     -18.754  22.020   5.331  1.00  0.00     0.042 C 
HETATM   42  N7  UNL     1     -16.415  21.552   5.925  1.00  0.00    -0.044 N 
HETATM   43  C11 UNL     1     -15.248  22.360   5.727  1.00  0.00     0.335 C 
ATOM     44  H72 UNL     1     -16.808  21.622   6.863  1.00  0.00     0.280 HD
ATOM     45  H71 UNL     1     -16.221  20.551   5.950  1.00  0.00     0.280 HD
HETATM   46  C15 UNL     1     -15.928  23.710   5.388  1.00  0.00     0.196 C 
BRANCH  43  47
HETATM   47  N8  UNL     1     -14.362  22.457   6.835  1.00  0.00    -0.251 N 
HETATM   48  C12 UNL     1     -13.746  21.461   7.492  1.00  0.00     0.138 A 
HETATM   49  C13 UNL     1     -12.979  22.011   8.493  1.00  0.00     0.066 A 
HETATM   50  N10 UNL     1     -13.157  23.340   8.411  1.00  0.00    -0.285 N 
HETATM   51  N11 UNL     1     -13.995  23.589   7.405  1.00  0.00    -0.018 NA
ATOM     52  H10 UNL     1     -12.725  24.039   9.016  1.00  0.00     0.184 HD
BRANCH  49  53
HETATM   53  C14 UNL     1     -12.111  21.335   9.490  1.00  0.00     0.288 C 
BRANCH  53  54
HETATM   54  N9  UNL     1     -12.495  19.970   9.704  1.00  0.00    -0.074 N 
ATOM     55  H93 UNL     1     -11.757  19.449  10.178  1.00  0.00     0.274 HD
ATOM     56  H92 UNL     1     -13.225  19.898  10.413  1.00  0.00     0.274 HD
ATOM     57  H91 UNL     1     -12.775  19.509   8.839  1.00  0.00     0.274 HD
ENDBRANCH  53  54
ENDBRANCH  49  53
ENDBRANCH  43  47
BRANCH  46  58
HETATM   58  O3  UNL     1     -16.648  24.142   6.508  1.00  0.00    -0.389 OA
ATOM     59  H3  UNL     1     -16.177  24.774   7.038  1.00  0.00     0.210 HD
ENDBRANCH  46  58
ENDBRANCH  34  39
ENDBRANCH   1  32
BRANCH   2  60
HETATM   60  O2  UNL     1     -19.077  26.412   0.602  1.00  0.00    -0.288 OA
ATOM     61  H2  UNL     1     -18.801  26.390  -0.307  1.00  0.00     0.244 HD
ENDBRANCH   2  60
TORSDOF 15
ENDMDL
MODEL 3
REMARK VINA RESULT: -9.153338255      1.774      2.297
REMARK  15 active torsions:
REMARK  status: ('A' for Active; 'I' for Inactive)
REMARK    1  A    between atoms: C2_2  and  N1_3 
REMARK    2  A    between atoms: C2_2  and  C3_7 
REMARK    3  A    between atoms: C3_7  and  N2_8 
REMARK    4  A    between atoms: C3_7  and  N14_48 
REMARK    5  A    between atoms: N2_8  and  N3_9 
REMARK       I    between atoms: N3_9  and  C4_11 
REMARK       I    between atoms: C4_11  and  N4_13 
REMARK    6  A    between atoms: N4_13  and  C5_15 
REMARK    7  A    between atoms: C5_15  and  C6_20 
REMARK    8  A    between atoms: N5_16  and  O2_18 
REMARK    9  A    between atoms: N6_22  and  C8_23 
REMARK   10  A    between atoms: C11_29  and  N8_30 
REMARK   11  A    between atoms: C13_32  and  C14_33 
REMARK   12  A    between atoms: C14_33  and  N9_34 
REMARK   13  A    between atoms: C15_41  and  O3_42 
REMARK   14  A    between atoms: C16_53  and  C17_54 
REMARK   15  A    between atoms: C18_59  and  O4_60 
ROOT
HETATM    1  C5  UNL     1     -14.829  22.442   5.996  1.00  0.00     0.159 C 
HETATM    2  N5  UNL     1     -14.433  23.612   6.487  1.00  0.00    -0.251 N 
ATOM      3  H5  UNL     1     -14.799  24.491   6.119  1.00  0.00     0.196 HD
ENDROOT
BRANCH   1   4
HETATM    4  N4  UNL     1     -15.757  22.475   4.964  1.00  0.00    -0.290 N 
HETATM    5  C4  UNL     1     -16.698  23.474   4.729  1.00  0.00     0.337 C 
HETATM    6  N3  UNL     1     -17.602  23.352   3.609  1.00  0.00    -0.253 N 
HETATM    7  O1  UNL     1     -16.849  24.531   5.432  1.00  0.00    -0.246 OA
ATOM      8  H3  UNL     1     -17.530  22.532   3.006  1.00  0.00     0.187 HD
ATOM      9  H4  UNL     1     -15.749  21.689   4.314  1.00  0.00     0.172 HD
BRANCH   6  10
HETATM   10  N2  UNL     1     -18.558  24.304   3.324  1.00  0.00    -0.107 NA
BRANCH  10  11
HETATM   11  C3  UNL     1     -19.452  23.811   2.291  1.00  0.00     0.254 C 
BRANCH  11  12
HETATM   12  C2  UNL     1     -20.864  24.316   2.492  1.00  0.00     0.221 C 
HETATM   13  C1  UNL     1     -21.814  23.234   2.027  1.00  0.00     0.043 C 
BRANCH  12  14
HETATM   14  N1  UNL     1     -21.149  24.664   3.849  1.00  0.00    -0.072 N 
ATOM     15  H13 UNL     1     -21.058  25.667   4.014  1.00  0.00     0.274 HD
ATOM     16  H12 UNL     1     -22.140  24.566   4.069  1.00  0.00     0.274 HD
ATOM     17  H11 UNL     1     -20.561  24.118   4.479  1.00  0.00     0.274 HD
ENDBRANCH  12  14
ENDBRANCH  11  12
BRANCH  11  18
HETATM   18  N14 UNL     1     -18.952  24.341   1.042  1.00  0.00    -0.230 N 
HETATM   19  N15 UNL     1     -19.042  25.597   0.597  1.00  0.00    -0.236 N 
HETATM   20  N16 UNL     1     -18.464  25.694  -0.585  1.00  0.00    -0.279 N 
ATOM     21  H15 UNL     1     -19.490  26.366   1.097  1.00  0.00     0.208 HD
HETATM   22  C16 UNL     1     -17.973  24.492  -0.954  1.00  0.00     0.142 A 
ATOM     23  H16 UNL     1     -18.399  26.548  -1.138  1.00  0.00     0.189 HD
HETATM   24  C18 UNL     1     -18.303  23.651   0.109  1.00  0.00     0.192 A 
BRANCH  22  25
HETATM   25  C17 UNL     1     -17.266  24.171  -2.178  1.00  0.00     0.142 C 
HETATM   26  N17 UNL     1     -16.679  25.107  -2.821  1.00  0.00    -0.386 N 
ATOM     27 2H17 UNL     1     -16.712  26.064  -2.470  1.00  0.00     0.157 HD
ATOM     28 1H17 UNL     1     -16.181  24.881  -3.683  1.00  0.00     0.157 HD
HETATM   29  N18 UNL     1     -17.220  22.853  -2.662  1.00  0.00    -0.081 NA
ENDBRANCH  22  25
BRANCH  24  30
HETATM   30  O4  UNL     1     -17.950  22.302   0.087  1.00  0.00    -0.343 OA
ATOM     31  H4  UNL     1     -17.118  21.892   0.290  1.00  0.00     0.219 HD
ENDBRANCH  24  30
ENDBRANCH  11  18
ENDBRANCH  10  11
ENDBRANCH   6  10
ENDBRANCH   1   4
BRANCH   1  32
HETATM   32  C6  UNL     1     -14.220  21.287   6.632  1.00  0.00     0.112 A 
HETATM   33  C7  UNL     1     -14.449  20.788   7.907  1.00  0.00     0.147 A 
HETATM   34  N6  UNL     1     -13.650  19.737   8.109  1.00  0.00    -0.277 N 
HETATM   35  N12 UNL     1     -12.931  19.570   6.997  1.00  0.00    -0.240 N 
HETATM   36  N13 UNL     1     -13.273  20.483   6.137  1.00  0.00    -0.281 N 
ATOM     37  H12 UNL     1     -12.229  18.846   6.846  1.00  0.00     0.208 HD
ATOM     38  H13 UNL     1     -12.870  20.575   5.204  1.00  0.00     0.188 HD
BRANCH  34  39
HETATM   39  C8  UNL     1     -13.490  18.876   9.237  1.00  0.00     0.171 C 
HETATM   40  C9  UNL     1     -12.882  19.529  10.454  1.00  0.00     0.211 C 
HETATM   41  C10 UNL     1     -12.107  20.765  10.179  1.00  0.00     0.042 C 
HETATM   42  N7  UNL     1     -12.093  18.497  11.128  1.00  0.00    -0.044 N 
HETATM   43  C11 UNL     1     -12.489  17.258  10.526  1.00  0.00     0.335 C 
ATOM     44  H72 UNL     1     -11.087  18.664  11.097  1.00  0.00     0.280 HD
ATOM     45  H71 UNL     1     -12.187  18.508  12.143  1.00  0.00     0.280 HD
HETATM   46  C15 UNL     1     -12.565  17.707   9.045  1.00  0.00     0.196 C 
BRANCH  43  47
HETATM   47  N8  UNL     1     -11.606  16.161  10.720  1.00  0.00    -0.251 N 
HETATM   48  C12 UNL     1     -11.920  14.875  10.945  1.00  0.00     0.138 A 
HETATM   49  C13 UNL     1     -10.753  14.158  11.069  1.00  0.00     0.066 A 
HETATM   50  N10 UNL     1      -9.754  15.042  10.913  1.00  0.00    -0.285 N 
HETATM   51  N11 UNL     1     -10.288  16.245  10.704  1.00  0.00    -0.018 NA
ATOM     52  H10 UNL     1      -8.757  14.830  10.950  1.00  0.00     0.184 HD
BRANCH  49  53
HETATM   53  C14 UNL     1     -10.565  12.706  11.320  1.00  0.00     0.288 C 
BRANCH  53  54
HETATM   54  N9  UNL     1      -9.377  12.438  12.077  1.00  0.00    -0.074 N 
ATOM     55  H93 UNL     1      -9.152  13.216  12.698  1.00  0.00     0.274 HD
ATOM     56  H92 UNL     1      -9.541  11.714  12.777  1.00  0.00     0.274 HD
ATOM     57  H91 UNL     1      -8.586  12.201  11.480  1.00  0.00     0.274 HD
ENDBRANCH  53  54
ENDBRANCH  49  53
ENDBRANCH  43  47
BRANCH  46  58
HETATM   58  O3  UNL     1     -11.283  18.077   8.624  1.00  0.00    -0.389 OA
ATOM     59  H3  UNL     1     -10.596  17.805   9.222  1.00  0.00     0.210 HD
ENDBRANCH  46  58
ENDBRANCH  34  39
ENDBRANCH   1  32
BRANCH   2  60
HETATM   60  O2  UNL     1     -13.527  23.596   7.496  1.00  0.00    -0.288 OA
ATOM     61  H2  UNL     1     -13.508  24.344   8.083  1.00  0.00     0.244 HD
ENDBRANCH   2  60
TORSDOF 15
ENDMDL
MODEL 4
REMARK VINA RESULT: -9.022575486      1.560      1.944
REMARK  15 active torsions:
REMARK  status: ('A' for Active; 'I' for Inactive)
REMARK    1  A    between atoms: C2_2  and  N1_3 
REMARK    2  A    between atoms: C2_2  and  C3_7 
REMARK    3  A    between atoms: C3_7  and  N2_8 
REMARK    4  A    between atoms: C3_7  and  N14_48 
REMARK    5  A    between atoms: N2_8  and  N3_9 
REMARK       I    between atoms: N3_9  and  C4_11 
REMARK       I    between atoms: C4_11  and  N4_13 
REMARK    6  A    between atoms: N4_13  and  C5_15 
REMARK    7  A    between atoms: C5_15  and  C6_20 
REMARK    8  A    between atoms: N5_16  and  O2_18 
REMARK    9  A    between atoms: N6_22  and  C8_23 
REMARK   10  A    between atoms: C11_29  and  N8_30 
REMARK   11  A    between atoms: C13_32  and  C14_33 
REMARK   12  A    between atoms: C14_33  and  N9_34 
REMARK   13  A    between atoms: C15_41  and  O3_42 
REMARK   14  A    between atoms: C16_53  and  C17_54 
REMARK   15  A    between atoms: C18_59  and  O4_60 
ROOT
HETATM    1  C5  UNL     1     -15.339  23.870   6.590  1.00  0.00     0.159 C 
HETATM    2  N5  UNL     1     -16.267  24.477   7.324  1.00  0.00    -0.251 N 
ATOM      3  H5  UNL     1     -17.034  24.989   6.888  1.00  0.00     0.196 HD
ENDROOT
BRANCH   1   4
HETATM    4  N4  UNL     1     -15.465  23.967   5.211  1.00  0.00    -0.290 N 
HETATM    5  C4  UNL     1     -16.524  24.546   4.516  1.00  0.00     0.337 C 
HETATM    6  N3  UNL     1     -16.505  24.559   3.071  1.00  0.00    -0.253 N 
HETATM    7  O1  UNL     1     -17.552  25.090   5.048  1.00  0.00    -0.246 OA
ATOM      8  H3  UNL     1     -15.710  24.143   2.586  1.00  0.00     0.187 HD
ATOM      9  H4  UNL     1     -14.707  23.576   4.651  1.00  0.00     0.172 HD
BRANCH   6  10
HETATM   10  N2  UNL     1     -17.523  25.112   2.325  1.00  0.00    -0.107 NA
BRANCH  10  11
HETATM   11  C3  UNL     1     -18.613  24.160   2.193  1.00  0.00     0.254 C 
BRANCH  11  12
HETATM   12  C2  UNL     1     -19.941  24.858   2.001  1.00  0.00     0.221 C 
HETATM   13  C1  UNL     1     -20.625  24.931   3.348  1.00  0.00     0.043 C 
BRANCH  12  14
HETATM   14  N1  UNL     1     -19.811  26.171   1.448  1.00  0.00    -0.072 N 
ATOM     15  H13 UNL     1     -20.693  26.683   1.469  1.00  0.00     0.274 HD
ATOM     16  H12 UNL     1     -19.267  26.787   2.052  1.00  0.00     0.274 HD
ATOM     17  H11 UNL     1     -19.422  26.115   0.507  1.00  0.00     0.274 HD
ENDBRANCH  12  14
ENDBRANCH  11  12
BRANCH  11  18
HETATM   18  N14 UNL     1     -18.327  23.388   1.003  1.00  0.00    -0.230 N 
HETATM   19  N15 UNL     1     -18.295  22.058   0.885  1.00  0.00    -0.236 N 
HETATM   20  N16 UNL     1     -17.999  21.729  -0.358  1.00  0.00    -0.279 N 
ATOM     21  H15 UNL     1     -18.473  21.397   1.641  1.00  0.00     0.208 HD
HETATM   22  C16 UNL     1     -17.826  22.844  -1.099  1.00  0.00     0.142 A 
ATOM     23  H16 UNL     1     -17.912  20.775  -0.708  1.00  0.00     0.189 HD
HETATM   24  C18 UNL     1     -18.043  23.886  -0.197  1.00  0.00     0.192 A 
BRANCH  22  25
HETATM   25  C17 UNL     1     -17.494  22.920  -2.507  1.00  0.00     0.142 C 
HETATM   26  N17 UNL     1     -17.876  23.936  -3.184  1.00  0.00    -0.386 N 
ATOM     27 2H17 UNL     1     -18.407  24.678  -2.729  1.00  0.00     0.157 HD
ATOM     28 1H17 UNL     1     -17.642  23.990  -4.175  1.00  0.00     0.157 HD
HETATM   29  N18 UNL     1     -16.761  21.898  -3.134  1.00  0.00    -0.081 NA
ENDBRANCH  22  25
BRANCH  24  30
HETATM   30  O4  UNL     1     -17.950  25.216  -0.607  1.00  0.00    -0.343 OA
ATOM     31  H4  UNL     1     -17.419  25.600  -1.294  1.00  0.00     0.219 HD
ENDBRANCH  24  30
ENDBRANCH  11  18
ENDBRANCH  10  11
ENDBRANCH   6  10
ENDBRANCH   1   4
BRANCH   1  32
HETATM   32  C6  UNL     1     -14.319  23.181   7.361  1.00  0.00     0.112 A 
HETATM   33  C7  UNL     1     -14.319  21.865   7.804  1.00  0.00     0.147 A 
HETATM   34  N6  UNL     1     -13.209  21.649   8.515  1.00  0.00    -0.277 N 
HETATM   35  N12 UNL     1     -12.521  22.793   8.527  1.00  0.00    -0.240 N 
HETATM   36  N13 UNL     1     -13.180  23.685   7.848  1.00  0.00    -0.281 N 
ATOM     37  H12 UNL     1     -11.626  22.943   8.992  1.00  0.00     0.208 HD
ATOM     38  H13 UNL     1     -12.867  24.646   7.704  1.00  0.00     0.188 HD
BRANCH  34  39
HETATM   39  C8  UNL     1     -12.730  20.483   9.184  1.00  0.00     0.171 C 
HETATM   40  C9  UNL     1     -11.518  19.841   8.554  1.00  0.00     0.211 C 
HETATM   41  C10 UNL     1     -11.301  20.182   7.126  1.00  0.00     0.042 C 
HETATM   42  N7  UNL     1     -11.643  18.402   8.786  1.00  0.00    -0.044 N 
HETATM   43  C11 UNL     1     -12.679  18.260   9.766  1.00  0.00     0.335 C 
ATOM     44  H72 UNL     1     -11.807  17.862   7.936  1.00  0.00     0.280 HD
ATOM     45  H71 UNL     1     -10.767  17.951   9.048  1.00  0.00     0.280 HD
HETATM   46  C15 UNL     1     -13.679  19.318   9.235  1.00  0.00     0.196 C 
BRANCH  43  47
HETATM   47  N8  UNL     1     -13.260  16.967   9.877  1.00  0.00    -0.251 N 
HETATM   48  C12 UNL     1     -12.753  15.880  10.480  1.00  0.00     0.138 A 
HETATM   49  C13 UNL     1     -13.654  14.850  10.349  1.00  0.00     0.066 A 
HETATM   50  N10 UNL     1     -14.694  15.350   9.660  1.00  0.00    -0.285 N 
HETATM   51  N11 UNL     1     -14.438  16.628   9.384  1.00  0.00    -0.018 NA
ATOM     52  H10 UNL     1     -15.535  14.838   9.394  1.00  0.00     0.184 HD
BRANCH  49  53
HETATM   53  C14 UNL     1     -13.561  13.452  10.842  1.00  0.00     0.288 C 
BRANCH  53  54
HETATM   54  N9  UNL     1     -13.757  12.494   9.793  1.00  0.00    -0.074 N 
ATOM     55  H93 UNL     1     -14.609  12.692   9.268  1.00  0.00     0.274 HD
ATOM     56  H92 UNL     1     -13.074  12.619   9.046  1.00  0.00     0.274 HD
ATOM     57  H91 UNL     1     -13.752  11.536  10.141  1.00  0.00     0.274 HD
ENDBRANCH  53  54
ENDBRANCH  49  53
ENDBRANCH  43  47
BRANCH  46  58
HETATM   58  O3  UNL     1     -14.129  18.914   7.973  1.00  0.00    -0.389 OA
ATOM     59  H3  UNL     1     -13.430  18.818   7.337  1.00  0.00     0.210 HD
ENDBRANCH  46  58
ENDBRANCH  34  39
ENDBRANCH   1  32
BRANCH   2  60
HETATM   60  O2  UNL     1     -16.156  24.391   8.673  1.00  0.00    -0.288 OA
ATOM     61  H2  UNL     1     -16.897  24.677   9.194  1.00  0.00     0.244 HD
ENDBRANCH   2  60
TORSDOF 15
ENDMDL
MODEL 5
REMARK VINA RESULT: -9.008600642      4.805      8.783
REMARK  15 active torsions:
REMARK  status: ('A' for Active; 'I' for Inactive)
REMARK    1  A    between atoms: C2_2  and  N1_3 
REMARK    2  A    between atoms: C2_2  and  C3_7 
REMARK    3  A    between atoms: C3_7  and  N2_8 
REMARK    4  A    between atoms: C3_7  and  N14_48 
REMARK    5  A    between atoms: N2_8  and  N3_9 
REMARK       I    between atoms: N3_9  and  C4_11 
REMARK       I    between atoms: C4_11  and  N4_13 
REMARK    6  A    between atoms: N4_13  and  C5_15 
REMARK    7  A    between atoms: C5_15  and  C6_20 
REMARK    8  A    between atoms: N5_16  and  O2_18 
REMARK    9  A    between atoms: N6_22  and  C8_23 
REMARK   10  A    between atoms: C11_29  and  N8_30 
REMARK   11  A    between atoms: C13_32  and  C14_33 
REMARK   12  A    between atoms: C14_33  and  N9_34 
REMARK   13  A    between atoms: C15_41  and  O3_42 
REMARK   14  A    between atoms: C16_53  and  C17_54 
REMARK   15  A    between atoms: C18_59  and  O4_60 
ROOT
HETATM    1  C5  UNL     1     -21.252  25.273   2.043  1.00  0.00     0.159 C 
HETATM    2  N5  UNL     1     -21.125  25.744   0.807  1.00  0.00    -0.251 N 
ATOM      3  H5  UNL     1     -21.943  25.935   0.227  1.00  0.00     0.196 HD
ENDROOT
BRANCH   1   4
HETATM    4  N4  UNL     1     -22.544  25.053   2.503  1.00  0.00    -0.290 N 
HETATM    5  C4  UNL     1     -23.054  25.426   3.744  1.00  0.00     0.337 C 
HETATM    6  N3  UNL     1     -24.426  25.115   4.072  1.00  0.00    -0.253 N 
HETATM    7  O1  UNL     1     -22.406  26.042   4.658  1.00  0.00    -0.246 OA
ATOM      8  H3  UNL     1     -24.999  24.627   3.382  1.00  0.00     0.187 HD
ATOM      9  H4  UNL     1     -23.182  24.572   1.869  1.00  0.00     0.172 HD
BRANCH   6  10
HETATM   10  N2  UNL     1     -24.990  25.453   5.284  1.00  0.00    -0.107 NA
BRANCH  10  11
HETATM   11  C3  UNL     1     -25.242  26.883   5.329  1.00  0.00     0.254 C 
BRANCH  11  12
HETATM   12  C2  UNL     1     -26.724  27.185   5.384  1.00  0.00     0.221 C 
HETATM   13  C1  UNL     1     -26.905  28.663   5.118  1.00  0.00     0.043 C 
BRANCH  12  14
HETATM   14  N1  UNL     1     -27.487  26.424   4.445  1.00  0.00    -0.072 N 
ATOM     15  H13 UNL     1     -28.411  26.826   4.288  1.00  0.00     0.274 HD
ATOM     16  H12 UNL     1     -27.124  26.510   3.497  1.00  0.00     0.274 HD
ATOM     17  H11 UNL     1     -27.540  25.450   4.748  1.00  0.00     0.274 HD
ENDBRANCH  12  14
ENDBRANCH  11  12
BRANCH  11  18
HETATM   18  N14 UNL     1     -24.635  27.357   6.553  1.00  0.00    -0.230 N 
HETATM   19  N15 UNL     1     -23.673  28.274   6.682  1.00  0.00    -0.236 N 
HETATM   20  N16 UNL     1     -23.382  28.439   7.958  1.00  0.00    -0.279 N 
ATOM     21  H15 UNL     1     -23.230  28.773   5.910  1.00  0.00     0.208 HD
HETATM   22  C16 UNL     1     -24.152  27.626   8.712  1.00  0.00     0.142 A 
ATOM     23  H16 UNL     1     -22.680  29.083   8.322  1.00  0.00     0.189 HD
HETATM   24  C18 UNL     1     -24.940  26.949   7.782  1.00  0.00     0.192 A 
BRANCH  22  25
HETATM   25  C17 UNL     1     -24.147  27.502  10.156  1.00  0.00     0.142 C 
HETATM   26  N17 UNL     1     -23.844  28.521  10.867  1.00  0.00    -0.386 N 
ATOM     27 2H17 UNL     1     -23.611  29.405  10.415  1.00  0.00     0.157 HD
ATOM     28 1H17 UNL     1     -23.840  28.434  11.884  1.00  0.00     0.157 HD
HETATM   29  N18 UNL     1     -24.468  26.285  10.779  1.00  0.00    -0.081 NA
ENDBRANCH  22  25
BRANCH  24  30
HETATM   30  O4  UNL     1     -25.879  26.004   8.195  1.00  0.00    -0.343 OA
ATOM     31  H4  UNL     1     -25.856  25.057   8.123  1.00  0.00     0.219 HD
ENDBRANCH  24  30
ENDBRANCH  11  18
ENDBRANCH  10  11
ENDBRANCH   6  10
ENDBRANCH   1   4
BRANCH   1  32
HETATM   32  C6  UNL     1     -19.994  25.060   2.738  1.00  0.00     0.112 A 
HETATM   33  C7  UNL     1     -19.288  23.875   2.893  1.00  0.00     0.147 A 
HETATM   34  N6  UNL     1     -18.204  24.113   3.635  1.00  0.00    -0.277 N 
HETATM   35  N12 UNL     1     -18.217  25.411   3.946  1.00  0.00    -0.240 N 
HETATM   36  N13 UNL     1     -19.270  25.958   3.415  1.00  0.00    -0.281 N 
ATOM     37  H12 UNL     1     -17.516  25.894   4.508  1.00  0.00     0.208 HD
ATOM     38  H13 UNL     1     -19.513  26.945   3.504  1.00  0.00     0.188 HD
BRANCH  34  39
HETATM   39  C8  UNL     1     -17.159  23.248   4.084  1.00  0.00     0.171 C 
HETATM   40  C9  UNL     1     -17.628  21.958   4.710  1.00  0.00     0.211 C 
HETATM   41  C10 UNL     1     -19.025  21.976   5.211  1.00  0.00     0.042 C 
HETATM   42  N7  UNL     1     -16.653  21.622   5.748  1.00  0.00    -0.044 N 
HETATM   43  C11 UNL     1     -15.530  22.479   5.510  1.00  0.00     0.335 C 
ATOM     44  H72 UNL     1     -17.024  21.686   6.695  1.00  0.00     0.280 HD
ATOM     45  H71 UNL     1     -16.413  20.632   5.779  1.00  0.00     0.280 HD
HETATM   46  C15 UNL     1     -16.278  23.793   5.173  1.00  0.00     0.196 C 
BRANCH  43  47
HETATM   47  N8  UNL     1     -14.620  22.631   6.592  1.00  0.00    -0.251 N 
HETATM   48  C12 UNL     1     -13.953  21.671   7.253  1.00  0.00     0.138 A 
HETATM   49  C13 UNL     1     -13.182  22.268   8.223  1.00  0.00     0.066 A 
HETATM   50  N10 UNL     1     -13.409  23.588   8.119  1.00  0.00    -0.285 N 
HETATM   51  N11 UNL     1     -14.279  23.787   7.130  1.00  0.00    -0.018 NA
ATOM     52  H10 UNL     1     -12.987  24.314   8.699  1.00  0.00     0.184 HD
BRANCH  49  53
HETATM   53  C14 UNL     1     -12.266  21.644   9.212  1.00  0.00     0.288 C 
BRANCH  53  54
HETATM   54  N9  UNL     1     -11.502  20.574   8.640  1.00  0.00    -0.074 N 
ATOM     55  H93 UNL     1     -10.767  20.264   9.277  1.00  0.00     0.274 HD
ATOM     56  H92 UNL     1     -12.048  19.714   8.592  1.00  0.00     0.274 HD
ATOM     57  H91 UNL     1     -11.119  20.819   7.727  1.00  0.00     0.274 HD
ENDBRANCH  53  54
ENDBRANCH  49  53
ENDBRANCH  43  47
BRANCH  46  58
HETATM   58  O3  UNL     1     -16.988  24.206   6.306  1.00  0.00    -0.389 OA
ATOM     59  H3  UNL     1     -16.571  24.922   6.772  1.00  0.00     0.210 HD
ENDBRANCH  46  58
ENDBRANCH  34  39
ENDBRANCH   1  32
BRANCH   2  60
HETATM   60  O2  UNL     1     -19.869  25.964   0.344  1.00  0.00    -0.288 OA
ATOM     61  H2  UNL     1     -19.774  26.501  -0.434  1.00  0.00     0.244 HD
ENDBRANCH   2  60
TORSDOF 15
ENDMDL
