MODEL 1
REMARK VINA RESULT: -8.861434046      0.000      0.000
REMARK  16 active torsions:
REMARK  status: ('A' for Active; 'I' for Inactive)
REMARK    1  A    between atoms: N1_1  and  C1_4 
REMARK    2  A    between atoms: C3_9  and  N4_10 
REMARK    3  A    between atoms: N6_15  and  C4_16 
REMARK    4  A    between atoms: C5_19  and  C6_20 
REMARK    5  A    between atoms: C6_20  and  O1_21 
REMARK    6  A    between atoms: C6_20  and  O2_23 
REMARK    7  A    between atoms: C7_26  and  C8_27 
REMARK    8  A    between atoms: N12_37  and  C11_38 
REMARK    9  A    between atoms: C11_38  and  C12_39 
REMARK   10  A    between atoms: C12_39  and  C13_40 
REMARK   11  A    between atoms: C13_40  and  O3_41 
REMARK   12  A    between atoms: C13_40  and  C14_43 
REMARK   13  A    between atoms: C14_43  and  N13_44 
REMARK   14  A    between atoms: C16_46  and  O4_47 
REMARK   15  A    between atoms: N14_49  and  N15_50 
REMARK   16  A    between atoms: N16_54  and  N17_56 
ROOT
HETATM    1  C1  UNL     1     -18.827  20.723   5.632  1.00  0.00     0.705 A 
HETATM    2  N2  UNL     1     -17.706  21.420   5.797  1.00  0.00    -0.020 N 
ATOM      3  H2  UNL     1     -16.991  21.087   6.443  1.00  0.00     0.203 HD
HETATM    4  C2  UNL     1     -17.515  22.560   5.115  1.00  0.00     0.731 A 
HETATM    5  N3  UNL     1     -18.487  23.005   4.244  1.00  0.00     0.094 N 
HETATM    6  C3  UNL     1     -19.599  22.304   4.087  1.00  0.00     0.727 A 
HETATM    7  N5  UNL     1     -19.776  21.149   4.786  1.00  0.00    -0.020 N 
ATOM      8  H5  UNL     1     -20.632  20.608   4.667  1.00  0.00     0.203 HD
HETATM    9  N6  UNL     1     -18.348  24.191   3.546  1.00  0.00    -0.238 N 
HETATM   10  C9  UNL     1     -16.962  24.715   3.463  1.00  0.00     0.173 C 
HETATM   11  C10 UNL     1     -16.432  24.730   4.921  1.00  0.00     0.163 C 
HETATM   12  N12 UNL     1     -16.312  23.300   5.262  1.00  0.00    -0.213 N 
ENDROOT
BRANCH  12  13
HETATM   13  C11 UNL     1     -15.058  22.765   5.674  1.00  0.00     0.144 C 
BRANCH  13  14
HETATM   14  C12 UNL     1     -14.448  23.426   6.832  1.00  0.00     0.054 C 
BRANCH  14  15
HETATM   15  C13 UNL     1     -14.697  22.645   8.138  1.00  0.00     0.138 C 
BRANCH  15  16
HETATM   16  O3  UNL     1     -15.591  23.355   8.896  1.00  0.00    -0.394 OA
ATOM     17  H3  UNL     1     -16.342  22.798   9.066  1.00  0.00     0.210 HD
ENDBRANCH  15  16
BRANCH  15  18
HETATM   18  C14 UNL     1     -13.420  22.331   8.861  1.00  0.00     0.178 C 
BRANCH  18  19
HETATM   19  N13 UNL     1     -12.944  20.985   8.646  1.00  0.00    -0.184 N 
HETATM   20  C15 UNL     1     -12.797  20.319   7.491  1.00  0.00     0.167 A 
HETATM   21  C16 UNL     1     -12.307  19.067   7.744  1.00  0.00     0.195 A 
HETATM   22  N14 UNL     1     -12.145  18.955   9.087  1.00  0.00    -0.067 N 
HETATM   23  C17 UNL     1     -12.533  20.117   9.610  1.00  0.00     0.721 A 
HETATM   24  N16 UNL     1     -12.540  20.431  10.851  1.00  0.00    -0.137 N 
ATOM     25  H16 UNL     1     -12.862  21.359  11.123  1.00  0.00     0.205 HD
BRANCH  21  26
HETATM   26  O4  UNL     1     -12.018  18.082   6.842  1.00  0.00    -0.343 OA
ATOM     27  H4  UNL     1     -11.407  17.361   6.942  1.00  0.00     0.219 HD
ENDBRANCH  21  26
BRANCH  22  28
HETATM   28  N15 UNL     1     -11.653  17.824   9.771  1.00  0.00    -0.322 N 
ATOM     29 2H15 UNL     1     -11.273  16.968   9.368  1.00  0.00     0.178 HD
ATOM     30 1H15 UNL     1     -11.616  17.705  10.784  1.00  0.00     0.178 HD
ENDBRANCH  22  28
BRANCH  24  31
HETATM   31  N17 UNL     1     -12.127  19.559  11.830  1.00  0.00    -0.331 N 
ATOM     32 2H17 UNL     1     -11.588  18.741  11.544  1.00  0.00     0.177 HD
ATOM     33 1H17 UNL     1     -12.341  19.706  12.816  1.00  0.00     0.177 HD
ENDBRANCH  24  31
ENDBRANCH  18  19
ENDBRANCH  15  18
ENDBRANCH  14  15
ENDBRANCH  13  14
ENDBRANCH  12  13
BRANCH   1  34
HETATM   34  N1  UNL     1     -19.029  19.607   6.289  1.00  0.00    -0.234 N 
ATOM     35  H12 UNL     1     -18.337  19.315   6.979  1.00  0.00     0.174 HD
ATOM     36  H11 UNL     1     -19.860  19.040   6.117  1.00  0.00     0.174 HD
ENDBRANCH   1  34
BRANCH   6  37
HETATM   37  N4  UNL     1     -20.518  22.691   3.265  1.00  0.00    -0.232 N 
ATOM     38  H42 UNL     1     -21.218  23.362   3.581  1.00  0.00     0.174 HD
ATOM     39  H41 UNL     1     -20.559  22.325   2.313  1.00  0.00     0.174 HD
ENDBRANCH   6  37
BRANCH   9  40
HETATM   40  C4  UNL     1     -19.383  24.958   2.935  1.00  0.00     0.145 A 
HETATM   41  N7  UNL     1     -20.275  25.557   3.704  1.00  0.00    -0.334 N 
HETATM   42  C5  UNL     1     -21.192  26.319   3.184  1.00  0.00     0.108 A 
ATOM     43  H7  UNL     1     -20.243  25.422   4.714  1.00  0.00     0.168 HD
HETATM   44  S1  UNL     1     -20.846  26.237   1.518  1.00  0.00    -0.064 SA
HETATM   45  C7  UNL     1     -19.475  25.177   1.596  1.00  0.00     0.099 A 
BRANCH  42  46
HETATM   46  C6  UNL     1     -22.268  27.061   3.900  1.00  0.00     0.312 C 
BRANCH  46  47
HETATM   47  O1  UNL     1     -22.806  26.250   4.917  1.00  0.00    -0.365 OA
ATOM     48  H1  UNL     1     -23.681  26.548   5.133  1.00  0.00     0.213 HD
ENDBRANCH  46  47
BRANCH  46  49
HETATM   49  O2  UNL     1     -23.234  27.567   3.071  1.00  0.00    -0.365 OA
ATOM     50  H2  UNL     1     -23.615  28.380   3.380  1.00  0.00     0.213 HD
ENDBRANCH  46  49
ENDBRANCH  42  46
BRANCH  45  51
HETATM   51  C8  UNL     1     -18.678  24.676   0.457  1.00  0.00     0.155 A 
HETATM   52  N8  UNL     1     -18.179  23.485   0.198  1.00  0.00    -0.266 N 
HETATM   53  N9  UNL     1     -17.555  23.573  -0.967  1.00  0.00    -0.005 NA
ATOM     54  H8  UNL     1     -18.257  22.654   0.783  1.00  0.00     0.186 HD
HETATM   55  N10 UNL     1     -17.653  24.815  -1.451  1.00  0.00    -0.225 N 
HETATM   56  N11 UNL     1     -18.342  25.491  -0.577  1.00  0.00    -0.270 N 
ATOM     57  H10 UNL     1     -17.266  25.162  -2.328  1.00  0.00     0.205 HD
ATOM     58  H11 UNL     1     -18.590  26.478  -0.656  1.00  0.00     0.190 HD
ENDBRANCH  45  51
ENDBRANCH   9  40
TORSDOF 16
ENDMDL
MODEL 2
REMARK VINA RESULT: -8.699919442      3.649      7.740
REMARK  16 active torsions:
REMARK  status: ('A' for Active; 'I' for Inactive)
REMARK    1  A    between atoms: N1_1  and  C1_4 
REMARK    2  A    between atoms: C3_9  and  N4_10 
REMARK    3  A    between atoms: N6_15  and  C4_16 
REMARK    4  A    between atoms: C5_19  and  C6_20 
REMARK    5  A    between atoms: C6_20  and  O1_21 
REMARK    6  A    between atoms: C6_20  and  O2_23 
REMARK    7  A    between atoms: C7_26  and  C8_27 
REMARK    8  A    between atoms: N12_37  and  C11_38 
REMARK    9  A    between atoms: C11_38  and  C12_39 
REMARK   10  A    between atoms: C12_39  and  C13_40 
REMARK   11  A    between atoms: C13_40  and  O3_41 
REMARK   12  A    between atoms: C13_40  and  C14_43 
REMARK   13  A    between atoms: C14_43  and  N13_44 
REMARK   14  A    between atoms: C16_46  and  O4_47 
REMARK   15  A    between atoms: N14_49  and  N15_50 
REMARK   16  A    between atoms: N16_54  and  N17_56 
ROOT
HETATM    1  C1  UNL     1     -16.106  23.400   5.815  1.00  0.00     0.705 A 
HETATM    2  N2  UNL     1     -16.986  22.408   5.722  1.00  0.00    -0.020 N 
ATOM      3  H2  UNL     1     -16.984  21.660   6.415  1.00  0.00     0.203 HD
HETATM    4  C2  UNL     1     -17.878  22.388   4.719  1.00  0.00     0.731 A 
HETATM    5  N3  UNL     1     -17.874  23.402   3.784  1.00  0.00     0.094 N 
HETATM    6  C3  UNL     1     -16.993  24.386   3.885  1.00  0.00     0.727 A 
HETATM    7  N5  UNL     1     -16.098  24.389   4.910  1.00  0.00    -0.020 N 
ATOM      8  H5  UNL     1     -15.418  25.146   4.990  1.00  0.00     0.203 HD
HETATM    9  N6  UNL     1     -18.751  23.406   2.714  1.00  0.00    -0.238 N 
HETATM   10  C9  UNL     1     -19.932  22.522   2.864  1.00  0.00     0.173 C 
HETATM   11  C10 UNL     1     -19.368  21.132   3.262  1.00  0.00     0.163 C 
HETATM   12  N12 UNL     1     -18.840  21.349   4.622  1.00  0.00    -0.213 N 
ENDROOT
BRANCH  12  13
HETATM   13  C11 UNL     1     -19.316  20.561   5.709  1.00  0.00     0.144 C 
BRANCH  13  14
HETATM   14  C12 UNL     1     -20.764  20.330   5.725  1.00  0.00     0.054 C 
BRANCH  14  15
HETATM   15  C13 UNL     1     -21.478  21.226   6.759  1.00  0.00     0.138 C 
BRANCH  15  16
HETATM   16  O3  UNL     1     -21.328  20.652   7.994  1.00  0.00    -0.394 OA
ATOM     17  H3  UNL     1     -21.844  21.152   8.617  1.00  0.00     0.210 HD
ENDBRANCH  15  16
BRANCH  15  18
HETATM   18  C14 UNL     1     -22.909  21.482   6.391  1.00  0.00     0.178 C 
BRANCH  18  19
HETATM   19  N13 UNL     1     -23.118  22.733   5.701  1.00  0.00    -0.184 N 
HETATM   20  C15 UNL     1     -23.106  22.979   4.382  1.00  0.00     0.167 A 
HETATM   21  C16 UNL     1     -23.359  24.306   4.161  1.00  0.00     0.195 A 
HETATM   22  N14 UNL     1     -23.533  24.896   5.371  1.00  0.00    -0.067 N 
HETATM   23  C17 UNL     1     -23.384  23.935   6.282  1.00  0.00     0.721 A 
HETATM   24  N16 UNL     1     -23.470  24.068   7.552  1.00  0.00    -0.137 N 
ATOM     25  H16 UNL     1     -23.335  23.249   8.144  1.00  0.00     0.205 HD
BRANCH  21  26
HETATM   26  O4  UNL     1     -23.433  24.957   2.962  1.00  0.00    -0.343 OA
ATOM     27  H4  UNL     1     -23.433  25.894   2.807  1.00  0.00     0.219 HD
ENDBRANCH  21  26
BRANCH  22  28
HETATM   28  N15 UNL     1     -23.822  26.257   5.596  1.00  0.00    -0.322 N 
ATOM     29 2H15 UNL     1     -24.694  26.750   5.400  1.00  0.00     0.178 HD
ATOM     30 1H15 UNL     1     -23.183  26.950   5.986  1.00  0.00     0.178 HD
ENDBRANCH  22  28
BRANCH  24  31
HETATM   31  N17 UNL     1     -23.738  25.278   8.146  1.00  0.00    -0.331 N 
ATOM     32 2H17 UNL     1     -23.662  26.118   7.572  1.00  0.00     0.177 HD
ATOM     33 1H17 UNL     1     -24.007  25.355   9.127  1.00  0.00     0.177 HD
ENDBRANCH  24  31
ENDBRANCH  18  19
ENDBRANCH  15  18
ENDBRANCH  14  15
ENDBRANCH  13  14
ENDBRANCH  12  13
BRANCH   1  34
HETATM   34  N1  UNL     1     -15.231  23.435   6.790  1.00  0.00    -0.234 N 
ATOM     35  H12 UNL     1     -14.748  22.574   7.043  1.00  0.00     0.174 HD
ATOM     36  H11 UNL     1     -15.034  24.305   7.287  1.00  0.00     0.174 HD
ENDBRANCH   1  34
BRANCH   6  37
HETATM   37  N4  UNL     1     -16.979  25.356   3.032  1.00  0.00    -0.232 N 
ATOM     38  H42 UNL     1     -17.841  25.605   2.548  1.00  0.00     0.174 HD
ATOM     39  H41 UNL     1     -16.117  25.864   2.829  1.00  0.00     0.174 HD
ENDBRANCH   6  37
BRANCH   9  40
HETATM   40  C4  UNL     1     -18.622  24.137   1.497  1.00  0.00     0.145 A 
HETATM   41  N7  UNL     1     -17.811  23.681   0.559  1.00  0.00    -0.334 N 
HETATM   42  C5  UNL     1     -17.720  24.287  -0.589  1.00  0.00     0.108 A 
ATOM     43  H7  UNL     1     -17.251  22.847   0.736  1.00  0.00     0.168 HD
HETATM   44  S1  UNL     1     -18.809  25.585  -0.415  1.00  0.00    -0.064 SA
HETATM   45  C7  UNL     1     -19.342  25.252   1.202  1.00  0.00     0.099 A 
BRANCH  42  46
HETATM   46  C6  UNL     1     -16.859  23.911  -1.747  1.00  0.00     0.312 C 
BRANCH  46  47
HETATM   47  O1  UNL     1     -16.781  24.989  -2.647  1.00  0.00    -0.365 OA
ATOM     48  H1  UNL     1     -16.475  25.764  -2.191  1.00  0.00     0.213 HD
ENDBRANCH  46  47
BRANCH  46  49
HETATM   49  O2  UNL     1     -17.239  22.746  -2.360  1.00  0.00    -0.365 OA
ATOM     50  H2  UNL     1     -16.782  22.577  -3.175  1.00  0.00     0.213 HD
ENDBRANCH  46  49
ENDBRANCH  42  46
BRANCH  45  51
HETATM   51  C8  UNL     1     -20.316  26.035   1.991  1.00  0.00     0.155 A 
HETATM   52  N8  UNL     1     -20.449  26.209   3.290  1.00  0.00    -0.266 N 
HETATM   53  N9  UNL     1     -21.482  27.017   3.468  1.00  0.00    -0.005 NA
ATOM     54  H8  UNL     1     -19.866  25.799   4.019  1.00  0.00     0.186 HD
HETATM   55  N10 UNL     1     -22.010  27.358   2.288  1.00  0.00    -0.225 N 
HETATM   56  N11 UNL     1     -21.295  26.756   1.383  1.00  0.00    -0.270 N 
ATOM     57  H10 UNL     1     -22.812  27.968   2.130  1.00  0.00     0.205 HD
ATOM     58  H11 UNL     1     -21.445  26.815   0.375  1.00  0.00     0.190 HD
ENDBRANCH  45  51
ENDBRANCH   9  40
TORSDOF 16
ENDMDL
MODEL 3
REMARK VINA RESULT: -8.575131822      5.559      8.808
REMARK  16 active torsions:
REMARK  status: ('A' for Active; 'I' for Inactive)
REMARK    1  A    between atoms: N1_1  and  C1_4 
REMARK    2  A    between atoms: C3_9  and  N4_10 
REMARK    3  A    between atoms: N6_15  and  C4_16 
REMARK    4  A    between atoms: C5_19  and  C6_20 
REMARK    5  A    between atoms: C6_20  and  O1_21 
REMARK    6  A    between atoms: C6_20  and  O2_23 
REMARK    7  A    between atoms: C7_26  and  C8_27 
REMARK    8  A    between atoms: N12_37  and  C11_38 
REMARK    9  A    between atoms: C11_38  and  C12_39 
REMARK   10  A    between atoms: C12_39  and  C13_40 
REMARK   11  A    between atoms: C13_40  and  O3_41 
REMARK   12  A    between atoms: C13_40  and  C14_43 
REMARK   13  A    between atoms: C14_43  and  N13_44 
REMARK   14  A    between atoms: C16_46  and  O4_47 
REMARK   15  A    between atoms: N14_49  and  N15_50 
REMARK   16  A    between atoms: N16_54  and  N17_56 
ROOT
HETATM    1  C1  UNL     1     -17.305  21.428  -1.938  1.00  0.00     0.705 A 
HETATM    2  N2  UNL     1     -17.729  20.360  -1.269  1.00  0.00    -0.020 N 
ATOM      3  H2  UNL     1     -17.662  19.435  -1.693  1.00  0.00     0.203 HD
HETATM    4  C2  UNL     1     -18.244  20.496  -0.037  1.00  0.00     0.731 A 
HETATM    5  N3  UNL     1     -18.333  21.750   0.529  1.00  0.00     0.094 N 
HETATM    6  C3  UNL     1     -17.908  22.808  -0.146  1.00  0.00     0.727 A 
HETATM    7  N5  UNL     1     -17.387  22.650  -1.393  1.00  0.00    -0.020 N 
ATOM      8  H5  UNL     1     -17.060  23.463  -1.915  1.00  0.00     0.203 HD
HETATM    9  N6  UNL     1     -18.888  21.944   1.782  1.00  0.00    -0.238 N 
HETATM   10  C9  UNL     1     -18.982  20.726   2.624  1.00  0.00     0.173 C 
HETATM   11  C10 UNL     1     -19.678  19.658   1.741  1.00  0.00     0.163 C 
HETATM   12  N12 UNL     1     -18.677  19.362   0.699  1.00  0.00    -0.213 N 
ENDROOT
BRANCH  12  13
HETATM   13  C11 UNL     1     -18.207  18.030   0.515  1.00  0.00     0.144 C 
BRANCH  13  14
HETATM   14  C12 UNL     1     -18.650  17.067   1.527  1.00  0.00     0.054 C 
BRANCH  14  15
HETATM   15  C13 UNL     1     -17.898  15.724   1.411  1.00  0.00     0.138 C 
BRANCH  15  16
HETATM   16  O3  UNL     1     -17.003  15.647   2.446  1.00  0.00    -0.394 OA
ATOM     17  H3  UNL     1     -16.282  15.090   2.172  1.00  0.00     0.210 HD
ENDBRANCH  15  16
BRANCH  15  18
HETATM   18  C14 UNL     1     -17.266  15.546   0.062  1.00  0.00     0.178 C 
BRANCH  18  19
HETATM   19  N13 UNL     1     -18.133  14.923  -0.909  1.00  0.00    -0.184 N 
HETATM   20  C15 UNL     1     -18.920  13.845  -0.766  1.00  0.00     0.167 A 
HETATM   21  C16 UNL     1     -19.581  13.601  -1.939  1.00  0.00     0.195 A 
HETATM   22  N14 UNL     1     -19.196  14.551  -2.830  1.00  0.00    -0.067 N 
HETATM   23  C17 UNL     1     -18.327  15.334  -2.192  1.00  0.00     0.721 A 
HETATM   24  N16 UNL     1     -17.723  16.354  -2.674  1.00  0.00    -0.137 N 
ATOM     25  H16 UNL     1     -17.078  16.873  -2.078  1.00  0.00     0.205 HD
BRANCH  21  26
HETATM   26  O4  UNL     1     -20.472  12.601  -2.208  1.00  0.00    -0.343 OA
ATOM     27  H4  UNL     1     -20.725  12.259  -3.057  1.00  0.00     0.219 HD
ENDBRANCH  21  26
BRANCH  22  28
HETATM   28  N15 UNL     1     -19.647  14.671  -4.160  1.00  0.00    -0.322 N 
ATOM     29 2H15 UNL     1     -20.450  14.211  -4.590  1.00  0.00     0.178 HD
ATOM     30 1H15 UNL     1     -19.219  15.241  -4.890  1.00  0.00     0.178 HD
ENDBRANCH  22  28
BRANCH  24  31
HETATM   31  N17 UNL     1     -17.913  16.775  -3.968  1.00  0.00    -0.331 N 
ATOM     32 2H17 UNL     1     -18.866  16.985  -4.266  1.00  0.00     0.177 HD
ATOM     33 1H17 UNL     1     -17.140  16.882  -4.625  1.00  0.00     0.177 HD
ENDBRANCH  24  31
ENDBRANCH  18  19
ENDBRANCH  15  18
ENDBRANCH  14  15
ENDBRANCH  13  14
ENDBRANCH  12  13
BRANCH   1  34
HETATM   34  N1  UNL     1     -16.797  21.311  -3.141  1.00  0.00    -0.234 N 
ATOM     35  H12 UNL     1     -15.955  20.749  -3.262  1.00  0.00     0.174 HD
ATOM     36  H11 UNL     1     -17.234  21.770  -3.941  1.00  0.00     0.174 HD
ENDBRANCH   1  34
BRANCH   6  37
HETATM   37  N4  UNL     1     -17.965  23.992   0.369  1.00  0.00    -0.232 N 
ATOM     38  H42 UNL     1     -18.869  24.365   0.659  1.00  0.00     0.174 HD
ATOM     39  H41 UNL     1     -17.123  24.558   0.476  1.00  0.00     0.174 HD
ENDBRANCH   6  37
BRANCH   9  40
HETATM   40  C4  UNL     1     -19.393  23.163   2.322  1.00  0.00     0.145 A 
HETATM   41  N7  UNL     1     -20.501  23.676   1.817  1.00  0.00    -0.334 N 
HETATM   42  C5  UNL     1     -21.025  24.750   2.330  1.00  0.00     0.108 A 
ATOM     43  H7  UNL     1     -20.949  23.227   1.019  1.00  0.00     0.168 HD
HETATM   44  S1  UNL     1     -19.954  25.121   3.601  1.00  0.00    -0.064 SA
HETATM   45  C7  UNL     1     -18.842  23.806   3.386  1.00  0.00     0.099 A 
BRANCH  42  46
HETATM   46  C6  UNL     1     -22.260  25.458   1.885  1.00  0.00     0.312 C 
BRANCH  46  47
HETATM   47  O1  UNL     1     -23.291  25.241   2.817  1.00  0.00    -0.365 OA
ATOM     48  H1  UNL     1     -23.935  24.649   2.448  1.00  0.00     0.213 HD
ENDBRANCH  46  47
BRANCH  46  49
HETATM   49  O2  UNL     1     -22.640  25.151   0.605  1.00  0.00    -0.365 OA
ATOM     50  H2  UNL     1     -23.389  24.570   0.558  1.00  0.00     0.213 HD
ENDBRANCH  46  49
ENDBRANCH  42  46
BRANCH  45  51
HETATM   51  C8  UNL     1     -17.628  23.535   4.182  1.00  0.00     0.155 A 
HETATM   52  N8  UNL     1     -16.433  24.089   4.170  1.00  0.00    -0.266 N 
HETATM   53  N9  UNL     1     -15.713  23.477   5.097  1.00  0.00    -0.005 NA
ATOM     54  H8  UNL     1     -16.122  24.846   3.562  1.00  0.00     0.186 HD
HETATM   55  N10 UNL     1     -16.442  22.533   5.700  1.00  0.00    -0.225 N 
HETATM   56  N11 UNL     1     -17.617  22.569   5.139  1.00  0.00    -0.270 N 
ATOM     57  H10 UNL     1     -16.139  21.910   6.449  1.00  0.00     0.205 HD
ATOM     58  H11 UNL     1     -18.404  21.966   5.379  1.00  0.00     0.190 HD
ENDBRANCH  45  51
ENDBRANCH   9  40
TORSDOF 16
ENDMDL
MODEL 4
REMARK VINA RESULT: -8.512377559      5.742      8.993
REMARK  16 active torsions:
REMARK  status: ('A' for Active; 'I' for Inactive)
REMARK    1  A    between atoms: N1_1  and  C1_4 
REMARK    2  A    between atoms: C3_9  and  N4_10 
REMARK    3  A    between atoms: N6_15  and  C4_16 
REMARK    4  A    between atoms: C5_19  and  C6_20 
REMARK    5  A    between atoms: C6_20  and  O1_21 
REMARK    6  A    between atoms: C6_20  and  O2_23 
REMARK    7  A    between atoms: C7_26  and  C8_27 
REMARK    8  A    between atoms: N12_37  and  C11_38 
REMARK    9  A    between atoms: C11_38  and  C12_39 
REMARK   10  A    between atoms: C12_39  and  C13_40 
REMARK   11  A    between atoms: C13_40  and  O3_41 
REMARK   12  A    between atoms: C13_40  and  C14_43 
REMARK   13  A    between atoms: C14_43  and  N13_44 
REMARK   14  A    between atoms: C16_46  and  O4_47 
REMARK   15  A    between atoms: N14_49  and  N15_50 
REMARK   16  A    between atoms: N16_54  and  N17_56 
ROOT
HETATM    1  C1  UNL     1     -17.288  21.383  -1.947  1.00  0.00     0.705 A 
HETATM    2  N2  UNL     1     -17.702  20.311  -1.279  1.00  0.00    -0.020 N 
ATOM      3  H2  UNL     1     -17.627  19.387  -1.704  1.00  0.00     0.203 HD
HETATM    4  C2  UNL     1     -18.219  20.442  -0.047  1.00  0.00     0.731 A 
HETATM    5  N3  UNL     1     -18.319  21.695   0.520  1.00  0.00     0.094 N 
HETATM    6  C3  UNL     1     -17.904  22.756  -0.154  1.00  0.00     0.727 A 
HETATM    7  N5  UNL     1     -17.381  22.604  -1.402  1.00  0.00    -0.020 N 
ATOM      8  H5  UNL     1     -17.061  23.420  -1.923  1.00  0.00     0.203 HD
HETATM    9  N6  UNL     1     -18.876  21.882   1.773  1.00  0.00    -0.238 N 
HETATM   10  C9  UNL     1     -18.959  20.663   2.614  1.00  0.00     0.173 C 
HETATM   11  C10 UNL     1     -19.646  19.589   1.730  1.00  0.00     0.163 C 
HETATM   12  N12 UNL     1     -18.642  19.303   0.688  1.00  0.00    -0.213 N 
ENDROOT
BRANCH  12  13
HETATM   13  C11 UNL     1     -18.160  17.976   0.503  1.00  0.00     0.144 C 
BRANCH  13  14
HETATM   14  C12 UNL     1     -19.193  16.966   0.251  1.00  0.00     0.054 C 
BRANCH  14  15
HETATM   15  C13 UNL     1     -18.584  15.575  -0.020  1.00  0.00     0.138 C 
BRANCH  15  16
HETATM   16  O3  UNL     1     -17.219  15.693   0.018  1.00  0.00    -0.394 OA
ATOM     17  H3  UNL     1     -16.875  14.975   0.537  1.00  0.00     0.210 HD
ENDBRANCH  15  16
BRANCH  15  18
HETATM   18  C14 UNL     1     -19.094  14.975  -1.297  1.00  0.00     0.178 C 
BRANCH  18  19
HETATM   19  N13 UNL     1     -18.076  14.801  -2.306  1.00  0.00    -0.184 N 
HETATM   20  C15 UNL     1     -17.470  13.672  -2.705  1.00  0.00     0.167 A 
HETATM   21  C16 UNL     1     -16.571  13.960  -3.696  1.00  0.00     0.195 A 
HETATM   22  N14 UNL     1     -16.621  15.299  -3.917  1.00  0.00    -0.067 N 
HETATM   23  C17 UNL     1     -17.530  15.784  -3.073  1.00  0.00     0.721 A 
HETATM   24  N16 UNL     1     -17.885  17.009  -2.955  1.00  0.00    -0.137 N 
ATOM     25  H16 UNL     1     -18.596  17.252  -2.266  1.00  0.00     0.205 HD
BRANCH  21  26
HETATM   26  O4  UNL     1     -15.756  13.093  -4.367  1.00  0.00    -0.343 OA
ATOM     27  H4  UNL     1     -15.085  13.300  -5.006  1.00  0.00     0.219 HD
ENDBRANCH  21  26
BRANCH  22  28
HETATM   28  N15 UNL     1     -15.859  16.011  -4.865  1.00  0.00    -0.322 N 
ATOM     29 2H15 UNL     1     -16.096  16.204  -5.838  1.00  0.00     0.178 HD
ATOM     30 1H15 UNL     1     -14.945  16.434  -4.703  1.00  0.00     0.178 HD
ENDBRANCH  22  28
BRANCH  24  31
HETATM   31  N17 UNL     1     -17.338  18.007  -3.725  1.00  0.00    -0.331 N 
ATOM     32 2H17 UNL     1     -17.384  17.906  -4.739  1.00  0.00     0.177 HD
ATOM     33 1H17 UNL     1     -16.897  18.831  -3.316  1.00  0.00     0.177 HD
ENDBRANCH  24  31
ENDBRANCH  18  19
ENDBRANCH  15  18
ENDBRANCH  14  15
ENDBRANCH  13  14
ENDBRANCH  12  13
BRANCH   1  34
HETATM   34  N1  UNL     1     -16.779  21.272  -3.150  1.00  0.00    -0.234 N 
ATOM     35  H12 UNL     1     -15.790  21.041  -3.242  1.00  0.00     0.174 HD
ATOM     36  H11 UNL     1     -17.357  21.411  -3.979  1.00  0.00     0.174 HD
ENDBRANCH   1  34
BRANCH   6  37
HETATM   37  N4  UNL     1     -17.972  23.939   0.361  1.00  0.00    -0.232 N 
ATOM     38  H42 UNL     1     -18.681  24.134   1.067  1.00  0.00     0.174 HD
ATOM     39  H41 UNL     1     -17.335  24.679   0.063  1.00  0.00     0.174 HD
ENDBRANCH   6  37
BRANCH   9  40
HETATM   40  C4  UNL     1     -19.392  23.096   2.314  1.00  0.00     0.145 A 
HETATM   41  N7  UNL     1     -20.503  23.601   1.808  1.00  0.00    -0.334 N 
HETATM   42  C5  UNL     1     -21.037  24.670   2.321  1.00  0.00     0.108 A 
ATOM     43  H7  UNL     1     -20.946  23.149   1.008  1.00  0.00     0.168 HD
HETATM   44  S1  UNL     1     -19.971  25.047   3.595  1.00  0.00    -0.064 SA
HETATM   45  C7  UNL     1     -18.849  23.742   3.379  1.00  0.00     0.099 A 
BRANCH  42  46
HETATM   46  C6  UNL     1     -22.277  25.368   1.875  1.00  0.00     0.312 C 
BRANCH  46  47
HETATM   47  O1  UNL     1     -23.312  25.129   2.797  1.00  0.00    -0.365 OA
ATOM     48  H1  UNL     1     -23.633  25.956   3.138  1.00  0.00     0.213 HD
ENDBRANCH  46  47
BRANCH  46  49
HETATM   49  O2  UNL     1     -22.644  25.071   0.589  1.00  0.00    -0.365 OA
ATOM     50  H2  UNL     1     -23.571  24.890   0.489  1.00  0.00     0.213 HD
ENDBRANCH  46  49
ENDBRANCH  42  46
BRANCH  45  51
HETATM   51  C8  UNL     1     -17.634  23.480   4.178  1.00  0.00     0.155 A 
HETATM   52  N8  UNL     1     -16.444  24.044   4.168  1.00  0.00    -0.266 N 
HETATM   53  N9  UNL     1     -15.720  23.436   5.096  1.00  0.00    -0.005 NA
ATOM     54  H8  UNL     1     -16.137  24.804   3.561  1.00  0.00     0.186 HD
HETATM   55  N10 UNL     1     -16.443  22.486   5.696  1.00  0.00    -0.225 N 
HETATM   56  N11 UNL     1     -17.616  22.513   5.133  1.00  0.00    -0.270 N 
ATOM     57  H10 UNL     1     -16.136  21.865   6.445  1.00  0.00     0.205 HD
ATOM     58  H11 UNL     1     -18.400  21.904   5.371  1.00  0.00     0.190 HD
ENDBRANCH  45  51
ENDBRANCH   9  40
TORSDOF 16
ENDMDL
MODEL 5
REMARK VINA RESULT: -8.340986291      1.294      1.627
REMARK  16 active torsions:
REMARK  status: ('A' for Active; 'I' for Inactive)
REMARK    1  A    between atoms: N1_1  and  C1_4 
REMARK    2  A    between atoms: C3_9  and  N4_10 
REMARK    3  A    between atoms: N6_15  and  C4_16 
REMARK    4  A    between atoms: C5_19  and  C6_20 
REMARK    5  A    between atoms: C6_20  and  O1_21 
REMARK    6  A    between atoms: C6_20  and  O2_23 
REMARK    7  A    between atoms: C7_26  and  C8_27 
REMARK    8  A    between atoms: N12_37  and  C11_38 
REMARK    9  A    between atoms: C11_38  and  C12_39 
REMARK   10  A    between atoms: C12_39  and  C13_40 
REMARK   11  A    between atoms: C13_40  and  O3_41 
REMARK   12  A    between atoms: C13_40  and  C14_43 
REMARK   13  A    between atoms: C14_43  and  N13_44 
REMARK   14  A    between atoms: C16_46  and  O4_47 
REMARK   15  A    between atoms: N14_49  and  N15_50 
REMARK   16  A    between atoms: N16_54  and  N17_56 
ROOT
HETATM    1  C1  UNL     1     -18.845  20.659   5.672  1.00  0.00     0.705 A 
HETATM    2  N2  UNL     1     -17.736  21.367   5.868  1.00  0.00    -0.020 N 
ATOM      3  H2  UNL     1     -17.029  21.033   6.522  1.00  0.00     0.203 HD
HETATM    4  C2  UNL     1     -17.547  22.520   5.207  1.00  0.00     0.731 A 
HETATM    5  N3  UNL     1     -18.509  22.966   4.326  1.00  0.00     0.094 N 
HETATM    6  C3  UNL     1     -19.609  22.254   4.139  1.00  0.00     0.727 A 
HETATM    7  N5  UNL     1     -19.784  21.087   4.816  1.00  0.00    -0.020 N 
ATOM      8  H5  UNL     1     -20.631  20.537   4.673  1.00  0.00     0.203 HD
HETATM    9  N6  UNL     1     -18.372  24.165   3.649  1.00  0.00    -0.238 N 
HETATM   10  C9  UNL     1     -16.993  24.708   3.600  1.00  0.00     0.173 C 
HETATM   11  C10 UNL     1     -16.488  24.707   5.067  1.00  0.00     0.163 C 
HETATM   12  N12 UNL     1     -16.357  23.273   5.387  1.00  0.00    -0.213 N 
ENDROOT
BRANCH  12  13
HETATM   13  C11 UNL     1     -15.104  22.747   5.814  1.00  0.00     0.144 C 
BRANCH  13  14
HETATM   14  C12 UNL     1     -14.632  23.235   7.114  1.00  0.00     0.054 C 
BRANCH  14  15
HETATM   15  C13 UNL     1     -13.741  22.198   7.829  1.00  0.00     0.138 C 
BRANCH  15  16
HETATM   16  O3  UNL     1     -12.585  22.824   8.214  1.00  0.00    -0.394 OA
ATOM     17  H3  UNL     1     -12.159  22.281   8.868  1.00  0.00     0.210 HD
ENDBRANCH  15  16
BRANCH  15  18
HETATM   18  C14 UNL     1     -13.506  20.979   6.986  1.00  0.00     0.178 C 
BRANCH  18  19
HETATM   19  N13 UNL     1     -13.245  19.783   7.752  1.00  0.00    -0.184 N 
HETATM   20  C15 UNL     1     -12.085  19.351   8.268  1.00  0.00     0.167 A 
HETATM   21  C16 UNL     1     -12.289  18.171   8.931  1.00  0.00     0.195 A 
HETATM   22  N14 UNL     1     -13.608  17.866   8.824  1.00  0.00    -0.067 N 
HETATM   23  C17 UNL     1     -14.163  18.846   8.113  1.00  0.00     0.721 A 
HETATM   24  N16 UNL     1     -15.397  18.944   7.783  1.00  0.00    -0.137 N 
ATOM     25  H16 UNL     1     -15.697  19.749   7.233  1.00  0.00     0.205 HD
BRANCH  21  26
HETATM   26  O4  UNL     1     -11.368  17.410   9.592  1.00  0.00    -0.343 OA
ATOM     27  H4  UNL     1     -10.641  17.708  10.126  1.00  0.00     0.219 HD
ENDBRANCH  21  26
BRANCH  22  28
HETATM   28  N15 UNL     1     -14.244  16.734   9.373  1.00  0.00    -0.322 N 
ATOM     29 2H15 UNL     1     -15.199  16.416   9.211  1.00  0.00     0.178 HD
ATOM     30 1H15 UNL     1     -13.827  16.069  10.025  1.00  0.00     0.178 HD
ENDBRANCH  22  28
BRANCH  24  31
HETATM   31  N17 UNL     1     -16.329  18.002   8.143  1.00  0.00    -0.331 N 
ATOM     32 2H17 UNL     1     -16.920  18.200   8.951  1.00  0.00     0.177 HD
ATOM     33 1H17 UNL     1     -16.444  17.126   7.632  1.00  0.00     0.177 HD
ENDBRANCH  24  31
ENDBRANCH  18  19
ENDBRANCH  15  18
ENDBRANCH  14  15
ENDBRANCH  13  14
ENDBRANCH  12  13
BRANCH   1  34
HETATM   34  N1  UNL     1     -19.044  19.530   6.307  1.00  0.00    -0.234 N 
ATOM     35  H12 UNL     1     -19.949  19.373   6.750  1.00  0.00     0.174 HD
ATOM     36  H11 UNL     1     -18.312  18.821   6.358  1.00  0.00     0.174 HD
ENDBRANCH   1  34
BRANCH   6  37
HETATM   37  N4  UNL     1     -20.518  22.643   3.306  1.00  0.00    -0.232 N 
ATOM     38  H42 UNL     1     -20.247  23.205   2.500  1.00  0.00     0.174 HD
ATOM     39  H41 UNL     1     -21.500  22.405   3.453  1.00  0.00     0.174 HD
ENDBRANCH   6  37
BRANCH   9  40
HETATM   40  C4  UNL     1     -19.406  24.929   3.032  1.00  0.00     0.145 A 
HETATM   41  N7  UNL     1     -20.308  25.520   3.795  1.00  0.00    -0.334 N 
HETATM   42  C5  UNL     1     -21.225  26.279   3.269  1.00  0.00     0.108 A 
ATOM     43  H7  UNL     1     -20.286  25.381   4.805  1.00  0.00     0.168 HD
HETATM   44  S1  UNL     1     -20.864  26.206   1.606  1.00  0.00    -0.064 SA
HETATM   45  C7  UNL     1     -19.487  25.153   1.693  1.00  0.00     0.099 A 
BRANCH  42  46
HETATM   46  C6  UNL     1     -22.312  27.012   3.979  1.00  0.00     0.312 C 
BRANCH  46  47
HETATM   47  O1  UNL     1     -22.879  26.181   4.963  1.00  0.00    -0.365 OA
ATOM     48  H1  UNL     1     -23.718  26.533   5.233  1.00  0.00     0.213 HD
ENDBRANCH  46  47
BRANCH  46  49
HETATM   49  O2  UNL     1     -23.255  27.546   3.140  1.00  0.00    -0.365 OA
ATOM     50  H2  UNL     1     -23.921  26.926   2.870  1.00  0.00     0.213 HD
ENDBRANCH  46  49
ENDBRANCH  42  46
BRANCH  45  51
HETATM   51  C8  UNL     1     -18.677  24.661   0.560  1.00  0.00     0.155 A 
HETATM   52  N8  UNL     1     -18.168  23.474   0.301  1.00  0.00    -0.266 N 
HETATM   53  N9  UNL     1     -17.535  23.570  -0.858  1.00  0.00    -0.005 NA
ATOM     54  H8  UNL     1     -18.246  22.640   0.882  1.00  0.00     0.186 HD
HETATM   55  N10 UNL     1     -17.636  24.813  -1.339  1.00  0.00    -0.225 N 
HETATM   56  N11 UNL     1     -18.337  25.482  -0.469  1.00  0.00    -0.270 N 
ATOM     57  H10 UNL     1     -17.244  25.165  -2.212  1.00  0.00     0.205 HD
ATOM     58  H11 UNL     1     -18.591  26.467  -0.547  1.00  0.00     0.190 HD
ENDBRANCH  45  51
ENDBRANCH   9  40
TORSDOF 16
ENDMDL
