MODEL 1
REMARK VINA RESULT: -7.869703340      0.000      0.000
REMARK  11 active torsions:
REMARK  status: ('A' for Active; 'I' for Inactive)
REMARK    1  A    between atoms: N1_1  and  C1_5 
REMARK    2  A    between atoms: C1_5  and  O1_6 
REMARK    3  A    between atoms: C1_5  and  C2_8 
REMARK    4  A    between atoms: C4_10  and  O2_11 
REMARK    5  A    between atoms: C5_13  and  N2_14 
REMARK    6  A    between atoms: N3_16  and  N4_18 
REMARK       I    between atoms: N4_18  and  C6_20 
REMARK    7  A    between atoms: C6_20  and  C7_22 
REMARK    8  A    between atoms: N6_26  and  O5_27 
REMARK    9  A    between atoms: C8_29  and  O6_30 
REMARK   10  A    between atoms: O6_30  and  N7_31 
REMARK   11  A    between atoms: C9_38  and  N12_39 
ROOT
HETATM    1  N2  UNL     1      16.080  82.891  -2.673  1.00  0.00    -0.280 N 
ATOM      2  H2  UNL     1      16.140  83.890  -2.479  1.00  0.00     0.188 HD
HETATM    3  N3  UNL     1      16.321  82.514  -3.855  1.00  0.00    -0.239 N 
ATOM      4  H3  UNL     1      16.564  83.207  -4.563  1.00  0.00     0.208 HD
ENDROOT
BRANCH   3   5
HETATM    5  N4  UNL     1      16.259  81.143  -4.213  1.00  0.00    -0.250 N 
HETATM    6  C6  UNL     1      16.191  80.809  -5.569  1.00  0.00     0.294 C 
HETATM    7  O3  UNL     1      16.183  81.754  -6.433  1.00  0.00    -0.264 OA
ATOM      8  H4  UNL     1      16.265  80.417  -3.496  1.00  0.00     0.192 HD
BRANCH   6   9
HETATM    9  C7  UNL     1      16.129  79.458  -6.057  1.00  0.00     0.183 A 
HETATM   10  N5  UNL     1      17.138  78.799  -6.726  1.00  0.00    -0.229 N 
HETATM   11  O4  UNL     1      16.738  77.602  -7.010  1.00  0.00    -0.125 OA
ATOM     12  H5  UNL     1      18.050  79.190  -6.960  1.00  0.00     0.197 HD
HETATM   13  N6  UNL     1      15.530  77.427  -6.575  1.00  0.00    -0.073 N 
HETATM   14  C8  UNL     1      15.093  78.570  -5.960  1.00  0.00     0.261 A 
BRANCH  13  15
HETATM   15  O5  UNL     1      14.771  76.276  -6.694  1.00  0.00    -0.259 OA
ATOM     16  H5  UNL     1      13.849  76.182  -6.483  1.00  0.00     0.247 HD
ENDBRANCH  13  15
BRANCH  14  17
HETATM   17  O6  UNL     1      13.838  78.696  -5.385  1.00  0.00    -0.173 OA
BRANCH  17  18
HETATM   18  N7  UNL     1      13.663  78.564  -4.007  1.00  0.00    -0.059 N 
HETATM   19  N8  UNL     1      14.418  77.935  -3.132  1.00  0.00    -0.184 N 
HETATM   20  N9  UNL     1      13.880  78.064  -1.933  1.00  0.00     0.012 NA
ATOM     21  H8  UNL     1      15.279  77.430  -3.345  1.00  0.00     0.209 HD
HETATM   22  N10 UNL     1      12.761  78.789  -2.048  1.00  0.00     0.012 NA
HETATM   23  N11 UNL     1      12.657  79.080  -3.336  1.00  0.00    -0.184 N 
ATOM     24  H11 UNL     1      11.902  79.628  -3.750  1.00  0.00     0.209 HD
ENDBRANCH  17  18
ENDBRANCH  14  17
ENDBRANCH   6   9
ENDBRANCH   3   5
BRANCH   1  25
HETATM   25  C5  UNL     1      15.734  82.042  -1.601  1.00  0.00     0.133 A 
HETATM   26  C4  UNL     1      16.662  81.494  -0.751  1.00  0.00     0.099 A 
HETATM   27  C3  UNL     1      16.288  80.668   0.287  1.00  0.00     0.068 A 
HETATM   28  C2  UNL     1      14.959  80.392   0.469  1.00  0.00     0.069 A 
HETATM   29  N13 UNL     1      14.072  80.935  -0.370  1.00  0.00    -0.335 N 
HETATM   30  C9  UNL     1      14.408  81.747  -1.394  1.00  0.00     0.205 A 
ATOM     31  H13 UNL     1      13.085  80.725  -0.227  1.00  0.00     0.167 HD
BRANCH  26  32
HETATM   32  O2  UNL     1      18.012  81.812  -0.984  1.00  0.00    -0.358 OA
ATOM     33  H2  UNL     1      18.303  82.154  -1.822  1.00  0.00     0.217 HD
ENDBRANCH  26  32
BRANCH  28  34
HETATM   34  C1  UNL     1      14.503  79.499   1.583  1.00  0.00     0.367 C 
BRANCH  34  35
HETATM   35  N1  UNL     1      15.097  80.007   2.805  1.00  0.00    -0.047 N 
ATOM     36  H13 UNL     1      14.402  80.174   3.533  1.00  0.00     0.277 HD
ATOM     37  H12 UNL     1      15.647  79.300   3.292  1.00  0.00     0.277 HD
ATOM     38  H11 UNL     1      15.642  80.841   2.590  1.00  0.00     0.277 HD
ENDBRANCH  34  35
BRANCH  34  39
HETATM   39  O1  UNL     1      13.134  79.514   1.707  1.00  0.00    -0.365 OA
ATOM     40  H1  UNL     1      12.755  78.949   1.044  1.00  0.00     0.212 HD
ENDBRANCH  34  39
ENDBRANCH  28  34
BRANCH  30  41
HETATM   41  N12 UNL     1      13.362  82.253  -2.204  1.00  0.00    -0.095 N 
HETATM   42  O7  UNL     1      12.470  82.927  -1.673  1.00  0.00    -0.530 OA
HETATM   43  O8  UNL     1      13.414  81.956  -3.546  1.00  0.00    -0.530 OA
ENDBRANCH  30  41
ENDBRANCH   1  25
TORSDOF 11
ENDMDL
MODEL 2
REMARK VINA RESULT: -7.839041015      4.659      9.191
REMARK  11 active torsions:
REMARK  status: ('A' for Active; 'I' for Inactive)
REMARK    1  A    between atoms: N1_1  and  C1_5 
REMARK    2  A    between atoms: C1_5  and  O1_6 
REMARK    3  A    between atoms: C1_5  and  C2_8 
REMARK    4  A    between atoms: C4_10  and  O2_11 
REMARK    5  A    between atoms: C5_13  and  N2_14 
REMARK    6  A    between atoms: N3_16  and  N4_18 
REMARK       I    between atoms: N4_18  and  C6_20 
REMARK    7  A    between atoms: C6_20  and  C7_22 
REMARK    8  A    between atoms: N6_26  and  O5_27 
REMARK    9  A    between atoms: C8_29  and  O6_30 
REMARK   10  A    between atoms: O6_30  and  N7_31 
REMARK   11  A    between atoms: C9_38  and  N12_39 
ROOT
HETATM    1  N2  UNL     1      21.206  77.838  -7.993  1.00  0.00    -0.280 N 
ATOM      2  H2  UNL     1      22.183  77.937  -7.715  1.00  0.00     0.188 HD
HETATM    3  N3  UNL     1      20.334  77.911  -7.082  1.00  0.00    -0.239 N 
ATOM      4  H3  UNL     1      20.628  78.065  -6.117  1.00  0.00     0.208 HD
ENDROOT
BRANCH   3   5
HETATM    5  N4  UNL     1      18.953  77.783  -7.378  1.00  0.00    -0.250 N 
HETATM    6  C6  UNL     1      18.073  77.462  -6.340  1.00  0.00     0.294 C 
HETATM    7  O3  UNL     1      18.551  77.292  -5.164  1.00  0.00    -0.264 OA
ATOM      8  H4  UNL     1      18.609  77.922  -8.329  1.00  0.00     0.192 HD
BRANCH   6   9
HETATM    9  C7  UNL     1      16.654  77.309  -6.513  1.00  0.00     0.183 A 
HETATM   10  N5  UNL     1      16.042  76.539  -7.478  1.00  0.00    -0.229 N 
HETATM   11  O4  UNL     1      14.760  76.632  -7.336  1.00  0.00    -0.125 OA
ATOM     12  H5  UNL     1      16.521  75.985  -8.189  1.00  0.00     0.197 HD
HETATM   13  N6  UNL     1      14.484  77.416  -6.342  1.00  0.00    -0.073 N 
HETATM   14  C8  UNL     1      15.647  77.874  -5.781  1.00  0.00     0.261 A 
BRANCH  13  15
HETATM   15  O5  UNL     1      13.221  77.757  -5.889  1.00  0.00    -0.259 OA
ATOM     16  H5  UNL     1      13.007  78.135  -5.043  1.00  0.00     0.247 HD
ENDBRANCH  13  15
BRANCH  14  17
HETATM   17  O6  UNL     1      15.683  78.730  -4.691  1.00  0.00    -0.173 OA
BRANCH  17  18
HETATM   18  N7  UNL     1      14.644  78.750  -3.759  1.00  0.00    -0.059 N 
HETATM   19  N8  UNL     1      14.309  77.838  -2.871  1.00  0.00    -0.184 N 
HETATM   20  N9  UNL     1      13.261  78.267  -2.193  1.00  0.00     0.012 NA
ATOM     21  H8  UNL     1      14.782  76.945  -2.730  1.00  0.00     0.209 HD
HETATM   22  N10 UNL     1      12.923  79.476  -2.659  1.00  0.00     0.012 NA
HETATM   23  N11 UNL     1      13.794  79.743  -3.621  1.00  0.00    -0.184 N 
ATOM     24  H11 UNL     1      13.803  80.598  -4.177  1.00  0.00     0.209 HD
ENDBRANCH  17  18
ENDBRANCH  14  17
ENDBRANCH   6   9
ENDBRANCH   3   5
BRANCH   1  25
HETATM   25  C5  UNL     1      20.940  77.630  -9.362  1.00  0.00     0.133 A 
HETATM   26  C4  UNL     1      21.323  78.512 -10.342  1.00  0.00     0.099 A 
HETATM   27  C3  UNL     1      21.045  78.277 -11.671  1.00  0.00     0.068 A 
HETATM   28  C2  UNL     1      20.372  77.134 -12.016  1.00  0.00     0.069 A 
HETATM   29  N13 UNL     1      20.008  76.290 -11.047  1.00  0.00    -0.335 N 
HETATM   30  C9  UNL     1      20.266  76.493  -9.738  1.00  0.00     0.205 A 
ATOM     31  H13 UNL     1      19.507  75.442 -11.312  1.00  0.00     0.167 HD
BRANCH  26  32
HETATM   32  O2  UNL     1      22.012  79.667  -9.930  1.00  0.00    -0.358 OA
ATOM     33  H2  UNL     1      21.897  80.497 -10.377  1.00  0.00     0.217 HD
ENDBRANCH  26  32
BRANCH  28  34
HETATM   34  C1  UNL     1      20.047  76.834 -13.447  1.00  0.00     0.367 C 
BRANCH  34  35
HETATM   35  N1  UNL     1      20.827  77.747 -14.261  1.00  0.00    -0.047 N 
ATOM     36  H13 UNL     1      21.798  77.808 -13.953  1.00  0.00     0.277 HD
ATOM     37  H12 UNL     1      20.996  77.383 -15.199  1.00  0.00     0.277 HD
ATOM     38  H11 UNL     1      20.368  78.657 -14.276  1.00  0.00     0.277 HD
ENDBRANCH  34  35
BRANCH  34  39
HETATM   39  O1  UNL     1      20.380  75.542 -13.776  1.00  0.00    -0.365 OA
ATOM     40  H1  UNL     1      19.585  75.048 -13.941  1.00  0.00     0.212 HD
ENDBRANCH  34  39
ENDBRANCH  28  34
BRANCH  30  41
HETATM   41  N12 UNL     1      19.821  75.511  -8.819  1.00  0.00    -0.095 N 
HETATM   42  O7  UNL     1      18.651  75.113  -8.890  1.00  0.00    -0.530 OA
HETATM   43  O8  UNL     1      20.738  75.061  -7.897  1.00  0.00    -0.530 OA
ENDBRANCH  30  41
ENDBRANCH   1  25
TORSDOF 11
ENDMDL
MODEL 3
REMARK VINA RESULT: -7.779503253      2.527      5.927
REMARK  11 active torsions:
REMARK  status: ('A' for Active; 'I' for Inactive)
REMARK    1  A    between atoms: N1_1  and  C1_5 
REMARK    2  A    between atoms: C1_5  and  O1_6 
REMARK    3  A    between atoms: C1_5  and  C2_8 
REMARK    4  A    between atoms: C4_10  and  O2_11 
REMARK    5  A    between atoms: C5_13  and  N2_14 
REMARK    6  A    between atoms: N3_16  and  N4_18 
REMARK       I    between atoms: N4_18  and  C6_20 
REMARK    7  A    between atoms: C6_20  and  C7_22 
REMARK    8  A    between atoms: N6_26  and  O5_27 
REMARK    9  A    between atoms: C8_29  and  O6_30 
REMARK   10  A    between atoms: O6_30  and  N7_31 
REMARK   11  A    between atoms: C9_38  and  N12_39 
ROOT
HETATM    1  N2  UNL     1      16.781  82.838  -2.780  1.00  0.00    -0.280 N 
ATOM      2  H2  UNL     1      17.382  83.365  -3.414  1.00  0.00     0.188 HD
HETATM    3  N3  UNL     1      17.335  82.256  -1.805  1.00  0.00    -0.239 N 
ATOM      4  H3  UNL     1      18.346  82.330  -1.685  1.00  0.00     0.208 HD
ENDROOT
BRANCH   3   5
HETATM    5  N4  UNL     1      16.576  81.500  -0.875  1.00  0.00    -0.250 N 
HETATM    6  C6  UNL     1      17.138  81.217   0.374  1.00  0.00     0.294 C 
HETATM    7  O3  UNL     1      18.318  81.648   0.626  1.00  0.00    -0.264 OA
ATOM      8  H4  UNL     1      15.640  81.171  -1.113  1.00  0.00     0.192 HD
BRANCH   6   9
HETATM    9  C7  UNL     1      16.468  80.466   1.400  1.00  0.00     0.183 A 
HETATM   10  N5  UNL     1      16.819  80.437   2.732  1.00  0.00    -0.229 N 
HETATM   11  O4  UNL     1      15.997  79.663   3.363  1.00  0.00    -0.125 OA
ATOM     12  H5  UNL     1      17.599  80.942   3.152  1.00  0.00     0.197 HD
HETATM   13  N6  UNL     1      15.126  79.177   2.535  1.00  0.00    -0.073 N 
HETATM   14  C8  UNL     1      15.375  79.653   1.276  1.00  0.00     0.261 A 
BRANCH  13  15
HETATM   15  O5  UNL     1      14.092  78.310   2.843  1.00  0.00    -0.259 OA
ATOM     16  H5  UNL     1      13.213  78.552   3.113  1.00  0.00     0.247 HD
ENDBRANCH  13  15
BRANCH  14  17
HETATM   17  O6  UNL     1      14.611  79.318   0.169  1.00  0.00    -0.173 OA
BRANCH  17  18
HETATM   18  N7  UNL     1      13.322  79.828   0.006  1.00  0.00    -0.059 N 
HETATM   19  N8  UNL     1      12.173  79.319   0.397  1.00  0.00    -0.184 N 
HETATM   20  N9  UNL     1      11.200  80.135   0.033  1.00  0.00     0.012 NA
ATOM     21  H8  UNL     1      12.054  78.439   0.898  1.00  0.00     0.209 HD
HETATM   22  N10 UNL     1      11.741  81.183  -0.600  1.00  0.00     0.012 NA
HETATM   23  N11 UNL     1      13.047  80.962  -0.600  1.00  0.00    -0.184 N 
ATOM     24  H11 UNL     1      13.742  81.585  -1.012  1.00  0.00     0.209 HD
ENDBRANCH  17  18
ENDBRANCH  14  17
ENDBRANCH   6   9
ENDBRANCH   3   5
BRANCH   1  25
HETATM   25  C5  UNL     1      15.400  82.818  -3.063  1.00  0.00     0.133 A 
HETATM   26  C4  UNL     1      14.537  83.804  -2.653  1.00  0.00     0.099 A 
HETATM   27  C3  UNL     1      13.192  83.752  -2.947  1.00  0.00     0.068 A 
HETATM   28  C2  UNL     1      12.711  82.689  -3.666  1.00  0.00     0.069 A 
HETATM   29  N13 UNL     1      13.567  81.741  -4.055  1.00  0.00    -0.335 N 
HETATM   30  C9  UNL     1      14.888  81.765  -3.782  1.00  0.00     0.205 A 
ATOM     31  H13 UNL     1      13.201  80.954  -4.590  1.00  0.00     0.167 HD
BRANCH  26  32
HETATM   32  O2  UNL     1      15.086  84.871  -1.919  1.00  0.00    -0.358 OA
ATOM     33  H2  UNL     1      15.363  84.761  -1.017  1.00  0.00     0.217 HD
ENDBRANCH  26  32
BRANCH  28  34
HETATM   34  C1  UNL     1      11.256  82.588  -4.011  1.00  0.00     0.367 C 
BRANCH  34  35
HETATM   35  N1  UNL     1      10.520  83.245  -2.946  1.00  0.00    -0.047 N 
ATOM     36  H13 UNL     1       9.995  84.053  -3.280  1.00  0.00     0.277 HD
ATOM     37  H12 UNL     1       9.731  82.687  -2.619  1.00  0.00     0.277 HD
ATOM     38  H11 UNL     1      11.164  83.484  -2.193  1.00  0.00     0.277 HD
ENDBRANCH  34  35
BRANCH  34  39
HETATM   39  O1  UNL     1      10.980  83.215  -5.202  1.00  0.00    -0.365 OA
ATOM     40  H1  UNL     1      11.429  84.052  -5.226  1.00  0.00     0.212 HD
ENDBRANCH  34  39
ENDBRANCH  28  34
BRANCH  30  41
HETATM   41  N12 UNL     1      15.679  80.691  -4.259  1.00  0.00    -0.095 N 
HETATM   42  O7  UNL     1      16.167  79.900  -3.441  1.00  0.00    -0.530 OA
HETATM   43  O8  UNL     1      15.850  80.600  -5.621  1.00  0.00    -0.530 OA
ENDBRANCH  30  41
ENDBRANCH   1  25
TORSDOF 11
ENDMDL
MODEL 4
REMARK VINA RESULT: -7.748615105      2.497      4.884
REMARK  11 active torsions:
REMARK  status: ('A' for Active; 'I' for Inactive)
REMARK    1  A    between atoms: N1_1  and  C1_5 
REMARK    2  A    between atoms: C1_5  and  O1_6 
REMARK    3  A    between atoms: C1_5  and  C2_8 
REMARK    4  A    between atoms: C4_10  and  O2_11 
REMARK    5  A    between atoms: C5_13  and  N2_14 
REMARK    6  A    between atoms: N3_16  and  N4_18 
REMARK       I    between atoms: N4_18  and  C6_20 
REMARK    7  A    between atoms: C6_20  and  C7_22 
REMARK    8  A    between atoms: N6_26  and  O5_27 
REMARK    9  A    between atoms: C8_29  and  O6_30 
REMARK   10  A    between atoms: O6_30  and  N7_31 
REMARK   11  A    between atoms: C9_38  and  N12_39 
ROOT
HETATM    1  N2  UNL     1      14.649  80.843  -1.405  1.00  0.00    -0.280 N 
ATOM      2  H2  UNL     1      15.019  81.303  -0.573  1.00  0.00     0.188 HD
HETATM    3  N3  UNL     1      15.167  79.740  -1.737  1.00  0.00    -0.239 N 
ATOM      4  H3  UNL     1      15.923  79.351  -1.174  1.00  0.00     0.208 HD
ENDROOT
BRANCH   3   5
HETATM    5  N4  UNL     1      14.713  79.033  -2.880  1.00  0.00    -0.250 N 
HETATM    6  C6  UNL     1      15.330  79.283  -4.110  1.00  0.00     0.294 C 
HETATM    7  O3  UNL     1      16.278  80.144  -4.155  1.00  0.00    -0.264 OA
ATOM      8  H4  UNL     1      13.953  78.356  -2.806  1.00  0.00     0.192 HD
BRANCH   6   9
HETATM    9  C7  UNL     1      14.963  78.629  -5.336  1.00  0.00     0.183 A 
HETATM   10  N5  UNL     1      13.799  77.923  -5.552  1.00  0.00    -0.229 N 
HETATM   11  O4  UNL     1      13.801  77.476  -6.765  1.00  0.00    -0.125 OA
ATOM     12  H5  UNL     1      13.057  77.778  -4.867  1.00  0.00     0.197 HD
HETATM   13  N6  UNL     1      14.891  77.837  -7.365  1.00  0.00    -0.073 N 
HETATM   14  C8  UNL     1      15.666  78.571  -6.507  1.00  0.00     0.261 A 
BRANCH  13  15
HETATM   15  O5  UNL     1      15.248  77.544  -8.670  1.00  0.00    -0.259 OA
ATOM     16  H5  UNL     1      16.114  77.631  -9.052  1.00  0.00     0.247 HD
ENDBRANCH  13  15
BRANCH  14  17
HETATM   17  O6  UNL     1      16.897  79.106  -6.858  1.00  0.00    -0.173 OA
BRANCH  17  18
HETATM   18  N7  UNL     1      17.989  78.278  -7.124  1.00  0.00    -0.059 N 
HETATM   19  N8  UNL     1      18.928  77.856  -6.304  1.00  0.00    -0.184 N 
HETATM   20  N9  UNL     1      19.769  77.091  -6.976  1.00  0.00     0.012 NA
ATOM     21  H8  UNL     1      18.995  78.083  -5.311  1.00  0.00     0.209 HD
HETATM   22  N10 UNL     1      19.356  77.026  -8.248  1.00  0.00     0.012 NA
HETATM   23  N11 UNL     1      18.260  77.767  -8.304  1.00  0.00    -0.184 N 
ATOM     24  H11 UNL     1      17.703  77.920  -9.146  1.00  0.00     0.209 HD
ENDBRANCH  17  18
ENDBRANCH  14  17
ENDBRANCH   6   9
ENDBRANCH   3   5
BRANCH   1  25
HETATM   25  C5  UNL     1      13.601  81.491  -2.090  1.00  0.00     0.133 A 
HETATM   26  C4  UNL     1      13.814  82.450  -3.050  1.00  0.00     0.099 A 
HETATM   27  C3  UNL     1      12.764  83.064  -3.700  1.00  0.00     0.068 A 
HETATM   28  C2  UNL     1      11.482  82.705  -3.375  1.00  0.00     0.069 A 
HETATM   29  N13 UNL     1      11.298  81.771  -2.439  1.00  0.00    -0.335 N 
HETATM   30  C9  UNL     1      12.304  81.153  -1.786  1.00  0.00     0.205 A 
ATOM     31  H13 UNL     1      10.340  81.509  -2.203  1.00  0.00     0.167 HD
BRANCH  26  32
HETATM   32  O2  UNL     1      15.150  82.778  -3.343  1.00  0.00    -0.358 OA
ATOM     33  H2  UNL     1      15.873  82.339  -2.911  1.00  0.00     0.217 HD
ENDBRANCH  26  32
BRANCH  28  34
HETATM   34  C1  UNL     1      10.309  83.344  -4.054  1.00  0.00     0.367 C 
BRANCH  34  35
HETATM   35  N1  UNL     1       9.128  82.604  -3.649  1.00  0.00    -0.047 N 
ATOM     36  H13 UNL     1       8.283  82.942  -4.108  1.00  0.00     0.277 HD
ATOM     37  H12 UNL     1       9.121  81.653  -4.017  1.00  0.00     0.277 HD
ATOM     38  H11 UNL     1       9.053  82.626  -2.632  1.00  0.00     0.277 HD
ENDBRANCH  34  35
BRANCH  34  39
HETATM   39  O1  UNL     1      10.168  84.658  -3.676  1.00  0.00    -0.365 OA
ATOM     40  H1  UNL     1      10.597  85.213  -4.316  1.00  0.00     0.212 HD
ENDBRANCH  34  39
ENDBRANCH  28  34
BRANCH  30  41
HETATM   41  N12 UNL     1      11.961  80.179  -0.816  1.00  0.00    -0.095 N 
HETATM   42  O7  UNL     1      11.181  80.492   0.093  1.00  0.00    -0.530 OA
HETATM   43  O8  UNL     1      12.527  78.933  -0.956  1.00  0.00    -0.530 OA
ENDBRANCH  30  41
ENDBRANCH   1  25
TORSDOF 11
ENDMDL
MODEL 5
REMARK VINA RESULT: -7.546994494      2.047      5.340
REMARK  11 active torsions:
REMARK  status: ('A' for Active; 'I' for Inactive)
REMARK    1  A    between atoms: N1_1  and  C1_5 
REMARK    2  A    between atoms: C1_5  and  O1_6 
REMARK    3  A    between atoms: C1_5  and  C2_8 
REMARK    4  A    between atoms: C4_10  and  O2_11 
REMARK    5  A    between atoms: C5_13  and  N2_14 
REMARK    6  A    between atoms: N3_16  and  N4_18 
REMARK       I    between atoms: N4_18  and  C6_20 
REMARK    7  A    between atoms: C6_20  and  C7_22 
REMARK    8  A    between atoms: N6_26  and  O5_27 
REMARK    9  A    between atoms: C8_29  and  O6_30 
REMARK   10  A    between atoms: O6_30  and  N7_31 
REMARK   11  A    between atoms: C9_38  and  N12_39 
ROOT
HETATM    1  N2  UNL     1      14.279  83.154  -3.503  1.00  0.00    -0.280 N 
ATOM      2  H2  UNL     1      13.963  83.815  -4.214  1.00  0.00     0.188 HD
HETATM    3  N3  UNL     1      14.585  83.622  -2.371  1.00  0.00    -0.239 N 
ATOM      4  H3  UNL     1      14.510  84.625  -2.205  1.00  0.00     0.208 HD
ENDROOT
BRANCH   3   5
HETATM    5  N4  UNL     1      15.034  82.774  -1.325  1.00  0.00    -0.250 N 
HETATM    6  C6  UNL     1      16.407  82.540  -1.197  1.00  0.00     0.294 C 
HETATM    7  O3  UNL     1      17.203  83.097  -2.031  1.00  0.00    -0.264 OA
ATOM      8  H4  UNL     1      14.369  82.345  -0.682  1.00  0.00     0.192 HD
BRANCH   6   9
HETATM    9  C7  UNL     1      16.982  81.706  -0.178  1.00  0.00     0.183 A 
HETATM   10  N5  UNL     1      18.330  81.501   0.025  1.00  0.00    -0.229 N 
HETATM   11  O4  UNL     1      18.484  80.699   1.027  1.00  0.00    -0.125 OA
ATOM     12  H5  UNL     1      19.083  81.914  -0.525  1.00  0.00     0.197 HD
HETATM   13  N6  UNL     1      17.326  80.357   1.500  1.00  0.00    -0.073 N 
HETATM   14  C8  UNL     1      16.337  80.967   0.775  1.00  0.00     0.261 A 
BRANCH  13  15
HETATM   15  O5  UNL     1      17.091  79.511   2.570  1.00  0.00    -0.259 OA
ATOM     16  H5  UNL     1      16.313  78.983   2.712  1.00  0.00     0.247 HD
ENDBRANCH  13  15
BRANCH  14  17
HETATM   17  O6  UNL     1      14.986  80.803   1.040  1.00  0.00    -0.173 OA
BRANCH  17  18
HETATM   18  N7  UNL     1      14.211  79.913   0.295  1.00  0.00    -0.059 N 
HETATM   19  N8  UNL     1      14.563  79.162  -0.727  1.00  0.00    -0.184 N 
HETATM   20  N9  UNL     1      13.513  78.471  -1.131  1.00  0.00     0.012 NA
ATOM     21  H8  UNL     1      15.495  79.120  -1.140  1.00  0.00     0.209 HD
HETATM   22  N10 UNL     1      12.473  78.789  -0.350  1.00  0.00     0.012 NA
HETATM   23  N11 UNL     1      12.937  79.678   0.516  1.00  0.00    -0.184 N 
ATOM     24  H11 UNL     1      12.383  80.119   1.251  1.00  0.00     0.209 HD
ENDBRANCH  17  18
ENDBRANCH  14  17
ENDBRANCH   6   9
ENDBRANCH   3   5
BRANCH   1  25
HETATM   25  C5  UNL     1      14.336  81.792  -3.866  1.00  0.00     0.133 A 
HETATM   26  C4  UNL     1      15.432  81.224  -4.469  1.00  0.00     0.099 A 
HETATM   27  C3  UNL     1      15.453  79.889  -4.810  1.00  0.00     0.068 A 
HETATM   28  C2  UNL     1      14.354  79.117  -4.540  1.00  0.00     0.069 A 
HETATM   29  N13 UNL     1      13.299  79.690  -3.954  1.00  0.00    -0.335 N 
HETATM   30  C9  UNL     1      13.249  80.993  -3.608  1.00  0.00     0.205 A 
ATOM     31  H13 UNL     1      12.485  79.108  -3.756  1.00  0.00     0.167 HD
BRANCH  26  32
HETATM   32  O2  UNL     1      16.532  82.063  -4.721  1.00  0.00    -0.358 OA
ATOM     33  H2  UNL     1      16.798  82.731  -4.100  1.00  0.00     0.217 HD
ENDBRANCH  26  32
BRANCH  28  34
HETATM   34  C1  UNL     1      14.330  77.661  -4.893  1.00  0.00     0.367 C 
BRANCH  34  35
HETATM   35  N1  UNL     1      14.006  76.934  -3.679  1.00  0.00    -0.047 N 
ATOM     36  H13 UNL     1      13.512  77.514  -3.001  1.00  0.00     0.277 HD
ATOM     37  H12 UNL     1      13.278  76.235  -3.828  1.00  0.00     0.277 HD
ATOM     38  H11 UNL     1      14.859  76.529  -3.296  1.00  0.00     0.277 HD
ENDBRANCH  34  35
BRANCH  34  39
HETATM   39  O1  UNL     1      13.376  77.393  -5.846  1.00  0.00    -0.365 OA
ATOM     40  H1  UNL     1      13.630  76.616  -6.330  1.00  0.00     0.212 HD
ENDBRANCH  34  39
ENDBRANCH  28  34
BRANCH  30  41
HETATM   41  N12 UNL     1      12.065  81.466  -2.991  1.00  0.00    -0.095 N 
HETATM   42  O7  UNL     1      11.011  81.461  -3.641  1.00  0.00    -0.530 OA
HETATM   43  O8  UNL     1      12.171  81.902  -1.690  1.00  0.00    -0.530 OA
ENDBRANCH  30  41
ENDBRANCH   1  25
TORSDOF 11
ENDMDL
