MODEL 1
REMARK VINA RESULT: -7.496114542      0.000      0.000
REMARK  9 active torsions:
REMARK  status: ('A' for Active; 'I' for Inactive)
REMARK    1  A    between atoms: C2_2  and  C3_4 
REMARK    2  A    between atoms: C3_4  and  N1_5 
REMARK    3  A    between atoms: C3_4  and  C4_9 
REMARK    4  A    between atoms: C5_14  and  C6_15 
REMARK    5  A    between atoms: C7_16  and  O2_17 
REMARK    6  A    between atoms: C8_19  and  O3_20 
REMARK    7  A    between atoms: C10_24  and  N5_25 
REMARK       I    between atoms: N5_25  and  C11_27 
REMARK       I    between atoms: C11_27  and  N6_28 
REMARK       I    between atoms: C11_27  and  N7_32 
REMARK    8  A    between atoms: N8_36  and  C12_37 
REMARK    9  A    between atoms: C13_43  and  N11_44 
ROOT
HETATM    1  C6  UNL     1      13.354  81.391  -1.302  1.00  0.00     0.113 A 
HETATM    2  C7  UNL     1      12.937  80.395  -0.390  1.00  0.00     0.131 A 
HETATM    3  C8  UNL     1      13.780  79.837   0.518  1.00  0.00     0.129 A 
HETATM    4  C9  UNL     1      15.106  80.294   0.516  1.00  0.00     0.126 A 
HETATM    5  N4  UNL     1      15.937  79.661   1.496  1.00  0.00    -0.095 NA
HETATM    6  C10 UNL     1      15.529  81.257  -0.358  1.00  0.00     0.140 A 
HETATM    7  N8  UNL     1      14.612  81.773  -1.247  1.00  0.00    -0.272 N 
ENDROOT
BRANCH   1   8
HETATM    8  C5  UNL     1      12.351  81.867  -2.264  1.00  0.00     0.154 A 
HETATM    9  N3  UNL     1      11.512  82.880  -1.914  1.00  0.00    -0.291 N 
HETATM   10  N2  UNL     1      10.630  83.350  -2.775  1.00  0.00    -0.280 N 
ATOM     11  H3  UNL     1      11.565  83.279  -0.977  1.00  0.00     0.187 HD
HETATM   12  C4  UNL     1      10.501  82.876  -4.023  1.00  0.00     0.180 A 
ATOM     13  H2  UNL     1      10.018  84.110  -2.477  1.00  0.00     0.189 HD
HETATM   14  O6  UNL     1      11.298  81.903  -4.376  1.00  0.00    -0.256 OA
HETATM   15  C14 UNL     1      12.203  81.399  -3.538  1.00  0.00     0.320 A 
HETATM   16  O5  UNL     1      12.912  80.476  -3.984  1.00  0.00    -0.257 OA
BRANCH  12  17
HETATM   17  C3  UNL     1       9.480  83.442  -4.969  1.00  0.00     0.327 C 
BRANCH  17  18
HETATM   18  C2  UNL     1       9.708  84.882  -5.194  1.00  0.00     0.161 C 
HETATM   19  C1  UNL     1      10.335  85.344  -6.456  1.00  0.00     0.093 C 
HETATM   20  O1  UNL     1       9.394  85.737  -4.368  1.00  0.00    -0.296 OA
ENDBRANCH  17  18
BRANCH  17  21
HETATM   21  N1  UNL     1       8.153  83.208  -4.525  1.00  0.00    -0.061 N 
ATOM     22  H13 UNL     1       7.605  84.068  -4.499  1.00  0.00     0.275 HD
ATOM     23  H12 UNL     1       7.605  82.700  -5.220  1.00  0.00     0.275 HD
ATOM     24  H11 UNL     1       8.154  82.733  -3.623  1.00  0.00     0.275 HD
ENDBRANCH  17  21
ENDBRANCH  12  17
ENDBRANCH   1   8
BRANCH   2  25
HETATM   25  O2  UNL     1      11.610  80.012  -0.468  1.00  0.00    -0.356 OA
ATOM     26  H2  UNL     1      11.206  79.730   0.344  1.00  0.00     0.218 HD
ENDBRANCH   2  25
BRANCH   7  27
HETATM   27  C12 UNL     1      15.095  82.747  -2.188  1.00  0.00     0.182 A 
HETATM   28  N9  UNL     1      15.022  84.102  -2.011  1.00  0.00    -0.221 N 
HETATM   29  O4  UNL     1      15.539  84.658  -3.051  1.00  0.00    -0.153 OA
ATOM     30  H9  UNL     1      14.630  84.585  -1.203  1.00  0.00     0.198 HD
HETATM   31  N10 UNL     1      15.947  83.794  -3.897  1.00  0.00    -0.222 N 
HETATM   32  C13 UNL     1      15.692  82.577  -3.405  1.00  0.00     0.168 A 
ATOM     33  H10 UNL     1      16.390  83.997  -4.794  1.00  0.00     0.198 HD
BRANCH  32  34
HETATM   34  N11 UNL     1      15.990  81.482  -4.006  1.00  0.00    -0.381 N 
ATOM     35 2H11 UNL     1      15.854  80.555  -3.603  1.00  0.00     0.157 HD
ATOM     36 1H11 UNL     1      16.381  81.354  -4.939  1.00  0.00     0.157 HD
ENDBRANCH  32  34
ENDBRANCH   7  27
BRANCH   3  37
HETATM   37  O3  UNL     1      13.376  78.863   1.411  1.00  0.00    -0.356 OA
ATOM     38  H3  UNL     1      13.886  78.081   1.583  1.00  0.00     0.218 HD
ENDBRANCH   3  37
BRANCH   6  39
HETATM   39  N5  UNL     1      16.714  81.662  -0.371  1.00  0.00    -0.325 N 
HETATM   40  C11 UNL     1      17.946  81.237   0.110  1.00  0.00     0.481 C 
HETATM   41  N6  UNL     1      19.050  81.993  -0.540  1.00  0.00    -0.033 N 
HETATM   42  N7  UNL     1      18.114  81.583   1.536  1.00  0.00    -0.033 N 
ATOM     43  H63 UNL     1      19.000  81.936  -1.557  1.00  0.00     0.278 HD
ATOM     44  H62 UNL     1      18.931  83.001  -0.438  1.00  0.00     0.278 HD
ATOM     45  H61 UNL     1      19.954  81.681  -0.187  1.00  0.00     0.278 HD
ATOM     46  H73 UNL     1      17.973  82.580   1.699  1.00  0.00     0.278 HD
ATOM     47  H72 UNL     1      17.346  81.221   2.103  1.00  0.00     0.278 HD
ATOM     48  H71 UNL     1      19.019  81.270   1.889  1.00  0.00     0.278 HD
ATOM     49  H5  UNL     1      16.798  82.547  -0.872  1.00  0.00     0.165 HD
ENDBRANCH   6  39
TORSDOF 9
ENDMDL
MODEL 2
REMARK VINA RESULT: -7.312445451      3.379      5.990
REMARK  9 active torsions:
REMARK  status: ('A' for Active; 'I' for Inactive)
REMARK    1  A    between atoms: C2_2  and  C3_4 
REMARK    2  A    between atoms: C3_4  and  N1_5 
REMARK    3  A    between atoms: C3_4  and  C4_9 
REMARK    4  A    between atoms: C5_14  and  C6_15 
REMARK    5  A    between atoms: C7_16  and  O2_17 
REMARK    6  A    between atoms: C8_19  and  O3_20 
REMARK    7  A    between atoms: C10_24  and  N5_25 
REMARK       I    between atoms: N5_25  and  C11_27 
REMARK       I    between atoms: C11_27  and  N6_28 
REMARK       I    between atoms: C11_27  and  N7_32 
REMARK    8  A    between atoms: N8_36  and  C12_37 
REMARK    9  A    between atoms: C13_43  and  N11_44 
ROOT
HETATM    1  C6  UNL     1      13.504  80.820  -2.919  1.00  0.00     0.113 A 
HETATM    2  C7  UNL     1      12.744  80.247  -1.873  1.00  0.00     0.131 A 
HETATM    3  C8  UNL     1      11.965  80.990  -1.045  1.00  0.00     0.129 A 
HETATM    4  C9  UNL     1      11.942  82.374  -1.269  1.00  0.00     0.126 A 
HETATM    5  N4  UNL     1      11.103  83.094  -0.359  1.00  0.00    -0.095 NA
HETATM    6  C10 UNL     1      12.669  82.948  -2.275  1.00  0.00     0.140 A 
HETATM    7  N8  UNL     1      13.434  82.124  -3.072  1.00  0.00    -0.272 N 
ENDROOT
BRANCH   1   8
HETATM    8  C5  UNL     1      14.344  79.904  -3.703  1.00  0.00     0.154 A 
HETATM    9  N3  UNL     1      13.785  79.170  -4.703  1.00  0.00    -0.291 N 
HETATM   10  N2  UNL     1      14.527  78.372  -5.445  1.00  0.00    -0.280 N 
ATOM     11  H3  UNL     1      12.783  79.238  -4.880  1.00  0.00     0.187 HD
HETATM   12  C4  UNL     1      15.850  78.231  -5.273  1.00  0.00     0.180 A 
ATOM     13  H2  UNL     1      14.074  77.837  -6.186  1.00  0.00     0.189 HD
HETATM   14  O6  UNL     1      16.404  78.928  -4.317  1.00  0.00    -0.256 OA
HETATM   15  C14 UNL     1      15.691  79.746  -3.544  1.00  0.00     0.320 A 
HETATM   16  O5  UNL     1      16.324  80.364  -2.666  1.00  0.00    -0.257 OA
BRANCH  12  17
HETATM   17  C3  UNL     1      16.655  77.307  -6.142  1.00  0.00     0.327 C 
BRANCH  17  18
HETATM   18  C2  UNL     1      18.091  77.642  -6.083  1.00  0.00     0.161 C 
HETATM   19  C1  UNL     1      18.699  78.485  -7.141  1.00  0.00     0.093 C 
HETATM   20  O1  UNL     1      18.824  77.248  -5.178  1.00  0.00    -0.296 OA
ENDBRANCH  17  18
BRANCH  17  21
HETATM   21  N1  UNL     1      16.198  77.304  -7.486  1.00  0.00    -0.061 N 
ATOM     22  H13 UNL     1      16.753  77.924  -8.076  1.00  0.00     0.275 HD
ATOM     23  H12 UNL     1      16.405  76.422  -7.954  1.00  0.00     0.275 HD
ATOM     24  H11 UNL     1      15.205  77.531  -7.528  1.00  0.00     0.275 HD
ENDBRANCH  17  21
ENDBRANCH  12  17
ENDBRANCH   1   8
BRANCH   2  25
HETATM   25  O2  UNL     1      12.835  78.873  -1.734  1.00  0.00    -0.356 OA
ATOM     26  H2  UNL     1      13.144  78.557  -0.894  1.00  0.00     0.218 HD
ENDBRANCH   2  25
BRANCH   7  27
HETATM   27  C12 UNL     1      14.227  82.759  -4.090  1.00  0.00     0.182 A 
HETATM   28  N9  UNL     1      13.797  83.018  -5.363  1.00  0.00    -0.221 N 
HETATM   29  O4  UNL     1      14.769  83.580  -5.994  1.00  0.00    -0.153 OA
ATOM     30  H9  UNL     1      12.875  82.804  -5.743  1.00  0.00     0.198 HD
HETATM   31  N10 UNL     1      15.799  83.716  -5.255  1.00  0.00    -0.222 N 
HETATM   32  C13 UNL     1      15.514  83.217  -4.048  1.00  0.00     0.168 A 
ATOM     33  H10 UNL     1      16.687  84.134  -5.536  1.00  0.00     0.198 HD
BRANCH  32  34
HETATM   34  N11 UNL     1      16.335  83.210  -3.061  1.00  0.00    -0.381 N 
ATOM     35 2H11 UNL     1      17.152  82.601  -3.003  1.00  0.00     0.157 HD
ATOM     36 1H11 UNL     1      16.324  83.784  -2.218  1.00  0.00     0.157 HD
ENDBRANCH  32  34
ENDBRANCH   7  27
BRANCH   3  37
HETATM   37  O3  UNL     1      11.221  80.433  -0.022  1.00  0.00    -0.356 OA
ATOM     38  H3  UNL     1      10.764  80.958   0.625  1.00  0.00     0.218 HD
ENDBRANCH   3  37
BRANCH   6  39
HETATM   39  N5  UNL     1      12.660  84.185  -2.474  1.00  0.00    -0.325 N 
HETATM   40  C11 UNL     1      13.525  85.256  -2.293  1.00  0.00     0.481 C 
HETATM   41  N6  UNL     1      13.056  86.442  -3.058  1.00  0.00    -0.033 N 
HETATM   42  N7  UNL     1      13.496  85.740  -0.898  1.00  0.00    -0.033 N 
ATOM     43  H63 UNL     1      12.921  86.226  -4.046  1.00  0.00     0.278 HD
ATOM     44  H62 UNL     1      12.094  86.688  -2.824  1.00  0.00     0.278 HD
ATOM     45  H61 UNL     1      13.691  87.228  -2.925  1.00  0.00     0.278 HD
ATOM     46  H73 UNL     1      12.548  85.971  -0.601  1.00  0.00     0.278 HD
ATOM     47  H72 UNL     1      13.688  84.988  -0.236  1.00  0.00     0.278 HD
ATOM     48  H71 UNL     1      14.131  86.527  -0.764  1.00  0.00     0.278 HD
ATOM     49  H5  UNL     1      11.775  84.489  -2.881  1.00  0.00     0.165 HD
ENDBRANCH   6  39
TORSDOF 9
ENDMDL
MODEL 3
REMARK VINA RESULT: -7.308059135      0.979      1.106
REMARK  9 active torsions:
REMARK  status: ('A' for Active; 'I' for Inactive)
REMARK    1  A    between atoms: C2_2  and  C3_4 
REMARK    2  A    between atoms: C3_4  and  N1_5 
REMARK    3  A    between atoms: C3_4  and  C4_9 
REMARK    4  A    between atoms: C5_14  and  C6_15 
REMARK    5  A    between atoms: C7_16  and  O2_17 
REMARK    6  A    between atoms: C8_19  and  O3_20 
REMARK    7  A    between atoms: C10_24  and  N5_25 
REMARK       I    between atoms: N5_25  and  C11_27 
REMARK       I    between atoms: C11_27  and  N6_28 
REMARK       I    between atoms: C11_27  and  N7_32 
REMARK    8  A    between atoms: N8_36  and  C12_37 
REMARK    9  A    between atoms: C13_43  and  N11_44 
ROOT
HETATM    1  C6  UNL     1      13.485  81.605  -1.422  1.00  0.00     0.113 A 
HETATM    2  C7  UNL     1      12.967  80.599  -0.573  1.00  0.00     0.131 A 
HETATM    3  C8  UNL     1      13.731  79.959   0.351  1.00  0.00     0.129 A 
HETATM    4  C9  UNL     1      15.078  80.341   0.433  1.00  0.00     0.126 A 
HETATM    5  N4  UNL     1      15.823  79.625   1.425  1.00  0.00    -0.095 NA
HETATM    6  C10 UNL     1      15.598  81.312  -0.378  1.00  0.00     0.140 A 
HETATM    7  N8  UNL     1      14.756  81.913  -1.289  1.00  0.00    -0.272 N 
ENDROOT
BRANCH   1   8
HETATM    8  C5  UNL     1      12.559  82.174  -2.411  1.00  0.00     0.154 A 
HETATM    9  N3  UNL     1      11.762  83.221  -2.062  1.00  0.00    -0.291 N 
HETATM   10  N2  UNL     1      10.953  83.772  -2.944  1.00  0.00    -0.280 N 
ATOM     11  H3  UNL     1      11.791  83.581  -1.108  1.00  0.00     0.187 HD
HETATM   12  C4  UNL     1      10.860  83.354  -4.215  1.00  0.00     0.180 A 
ATOM     13  H2  UNL     1      10.371  84.555  -2.647  1.00  0.00     0.189 HD
HETATM   14  O6  UNL     1      11.618  82.350  -4.569  1.00  0.00    -0.256 OA
HETATM   15  C14 UNL     1      12.450  81.763  -3.708  1.00  0.00     0.320 A 
HETATM   16  O5  UNL     1      13.127  80.817  -4.156  1.00  0.00    -0.257 OA
BRANCH  12  17
HETATM   17  C3  UNL     1       9.922  84.012  -5.187  1.00  0.00     0.327 C 
BRANCH  17  18
HETATM   18  C2  UNL     1       8.576  83.413  -5.112  1.00  0.00     0.161 C 
HETATM   19  C1  UNL     1       7.608  83.629  -6.215  1.00  0.00     0.093 C 
HETATM   20  O1  UNL     1       8.210  82.727  -4.160  1.00  0.00    -0.296 OA
ENDBRANCH  17  18
BRANCH  17  21
HETATM   21  N1  UNL     1      10.415  83.971  -6.517  1.00  0.00    -0.061 N 
ATOM     22  H13 UNL     1      10.069  83.157  -7.024  1.00  0.00     0.275 HD
ATOM     23  H12 UNL     1      10.000  84.700  -7.097  1.00  0.00     0.275 HD
ATOM     24  H11 UNL     1      11.434  84.016  -6.524  1.00  0.00     0.275 HD
ENDBRANCH  17  21
ENDBRANCH  12  17
ENDBRANCH   1   8
BRANCH   2  25
HETATM   25  O2  UNL     1      11.627  80.295  -0.732  1.00  0.00    -0.356 OA
ATOM     26  H2  UNL     1      11.388  79.383  -0.618  1.00  0.00     0.218 HD
ENDBRANCH   2  25
BRANCH   7  27
HETATM   27  C12 UNL     1      15.340  82.894  -2.163  1.00  0.00     0.182 A 
HETATM   28  N9  UNL     1      15.369  84.239  -1.913  1.00  0.00    -0.221 N 
HETATM   29  O4  UNL     1      15.956  84.807  -2.910  1.00  0.00    -0.153 OA
ATOM     30  H9  UNL     1      14.995  84.708  -1.089  1.00  0.00     0.198 HD
HETATM   31  N10 UNL     1      16.316  83.960  -3.792  1.00  0.00    -0.222 N 
HETATM   32  C13 UNL     1      15.954  82.743  -3.375  1.00  0.00     0.168 A 
ATOM     33  H10 UNL     1      16.797  84.174  -4.667  1.00  0.00     0.198 HD
BRANCH  32  34
HETATM   34  N11 UNL     1      16.180  81.661  -4.029  1.00  0.00    -0.381 N 
ATOM     35 2H11 UNL     1      15.897  81.510  -4.996  1.00  0.00     0.157 HD
ATOM     36 1H11 UNL     1      16.665  80.819  -3.718  1.00  0.00     0.157 HD
ENDBRANCH  32  34
ENDBRANCH   7  27
BRANCH   3  37
HETATM   37  O3  UNL     1      13.229  78.976   1.182  1.00  0.00    -0.356 OA
ATOM     38  H3  UNL     1      13.679  78.154   1.334  1.00  0.00     0.218 HD
ENDBRANCH   3  37
BRANCH   6  39
HETATM   39  N5  UNL     1      16.802  81.650  -0.316  1.00  0.00    -0.325 N 
HETATM   40  C11 UNL     1      17.977  81.152   0.232  1.00  0.00     0.481 C 
HETATM   41  N6  UNL     1      19.158  81.850  -0.342  1.00  0.00    -0.033 N 
HETATM   42  N7  UNL     1      18.078  81.476   1.670  1.00  0.00    -0.033 N 
ATOM     43  H63 UNL     1      19.166  81.805  -1.361  1.00  0.00     0.278 HD
ATOM     44  H62 UNL     1      19.090  82.862  -0.235  1.00  0.00     0.278 HD
ATOM     45  H61 UNL     1      20.021  81.484   0.061  1.00  0.00     0.278 HD
ATOM     46  H73 UNL     1      17.984  82.478   1.836  1.00  0.00     0.278 HD
ATOM     47  H72 UNL     1      17.259  81.153   2.185  1.00  0.00     0.278 HD
ATOM     48  H71 UNL     1      18.941  81.110   2.073  1.00  0.00     0.278 HD
ATOM     49  H5  UNL     1      16.965  82.533  -0.801  1.00  0.00     0.165 HD
ENDBRANCH   6  39
TORSDOF 9
ENDMDL
MODEL 4
REMARK VINA RESULT: -7.306155368      1.795      3.701
REMARK  9 active torsions:
REMARK  status: ('A' for Active; 'I' for Inactive)
REMARK    1  A    between atoms: C2_2  and  C3_4 
REMARK    2  A    between atoms: C3_4  and  N1_5 
REMARK    3  A    between atoms: C3_4  and  C4_9 
REMARK    4  A    between atoms: C5_14  and  C6_15 
REMARK    5  A    between atoms: C7_16  and  O2_17 
REMARK    6  A    between atoms: C8_19  and  O3_20 
REMARK    7  A    between atoms: C10_24  and  N5_25 
REMARK       I    between atoms: N5_25  and  C11_27 
REMARK       I    between atoms: C11_27  and  N6_28 
REMARK       I    between atoms: C11_27  and  N7_32 
REMARK    8  A    between atoms: N8_36  and  C12_37 
REMARK    9  A    between atoms: C13_43  and  N11_44 
ROOT
HETATM    1  C6  UNL     1      14.818  82.264  -1.773  1.00  0.00     0.113 A 
HETATM    2  C7  UNL     1      16.005  83.016  -1.932  1.00  0.00     0.131 A 
HETATM    3  C8  UNL     1      17.119  82.786  -1.189  1.00  0.00     0.129 A 
HETATM    4  C9  UNL     1      17.047  81.755  -0.241  1.00  0.00     0.126 A 
HETATM    5  N4  UNL     1      18.255  81.571   0.506  1.00  0.00    -0.095 NA
HETATM    6  C10 UNL     1      15.908  81.017  -0.071  1.00  0.00     0.140 A 
HETATM    7  N8  UNL     1      14.821  81.313  -0.865  1.00  0.00    -0.272 N 
ENDROOT
BRANCH   1   8
HETATM    8  C5  UNL     1      13.672  82.656  -2.605  1.00  0.00     0.154 A 
HETATM    9  N3  UNL     1      12.969  83.779  -2.294  1.00  0.00    -0.291 N 
HETATM   10  N2  UNL     1      11.963  84.172  -3.050  1.00  0.00    -0.280 N 
ATOM     11  H3  UNL     1      13.222  84.321  -1.468  1.00  0.00     0.187 HD
HETATM   12  C4  UNL     1      11.571  83.512  -4.150  1.00  0.00     0.180 A 
ATOM     13  H2  UNL     1      11.458  85.019  -2.785  1.00  0.00     0.189 HD
HETATM   14  O6  UNL     1      12.235  82.432  -4.464  1.00  0.00    -0.256 OA
HETATM   15  C14 UNL     1      13.259  82.000  -3.729  1.00  0.00     0.320 A 
HETATM   16  O5  UNL     1      13.821  80.961  -4.126  1.00  0.00    -0.257 OA
BRANCH  12  17
HETATM   17  C3  UNL     1      10.417  83.997  -4.980  1.00  0.00     0.327 C 
BRANCH  17  18
HETATM   18  C2  UNL     1       9.176  83.278  -4.635  1.00  0.00     0.161 C 
HETATM   19  C1  UNL     1       8.009  83.334  -5.548  1.00  0.00     0.093 C 
HETATM   20  O1  UNL     1       9.061  82.618  -3.604  1.00  0.00    -0.296 OA
ENDBRANCH  17  18
BRANCH  17  21
HETATM   21  N1  UNL     1      10.681  83.899  -6.372  1.00  0.00    -0.061 N 
ATOM     22  H13 UNL     1       9.940  83.400  -6.863  1.00  0.00     0.275 HD
ATOM     23  H12 UNL     1      10.594  84.802  -6.838  1.00  0.00     0.275 HD
ATOM     24  H11 UNL     1      11.595  83.475  -6.535  1.00  0.00     0.275 HD
ENDBRANCH  17  21
ENDBRANCH  12  17
ENDBRANCH   1   8
BRANCH   2  25
HETATM   25  O2  UNL     1      15.975  84.010  -2.893  1.00  0.00    -0.356 OA
ATOM     26  H2  UNL     1      16.707  84.615  -2.894  1.00  0.00     0.218 HD
ENDBRANCH   2  25
BRANCH   7  27
HETATM   27  C12 UNL     1      13.622  80.554  -0.632  1.00  0.00     0.182 A 
HETATM   28  N9  UNL     1      12.577  80.970   0.148  1.00  0.00    -0.221 N 
HETATM   29  O4  UNL     1      11.689  80.038   0.136  1.00  0.00    -0.153 OA
ATOM     30  H9  UNL     1      12.514  81.856   0.649  1.00  0.00     0.198 HD
HETATM   31  N10 UNL     1      12.051  79.047  -0.580  1.00  0.00    -0.222 N 
HETATM   32  C13 UNL     1      13.259  79.318  -1.086  1.00  0.00     0.168 A 
ATOM     33  H10 UNL     1      11.512  78.195  -0.739  1.00  0.00     0.198 HD
BRANCH  32  34
HETATM   34  N11 UNL     1      13.905  78.528  -1.865  1.00  0.00    -0.381 N 
ATOM     35 2H11 UNL     1      13.610  78.293  -2.813  1.00  0.00     0.157 HD
ATOM     36 1H11 UNL     1      14.781  78.036  -1.688  1.00  0.00     0.157 HD
ENDBRANCH  32  34
ENDBRANCH   7  27
BRANCH   3  37
HETATM   37  O3  UNL     1      18.281  83.518  -1.341  1.00  0.00    -0.356 OA
ATOM     38  H3  UNL     1      19.145  83.137  -1.236  1.00  0.00     0.218 HD
ENDBRANCH   3  37
BRANCH   6  39
HETATM   39  N5  UNL     1      15.835  80.102   0.781  1.00  0.00    -0.325 N 
HETATM   40  C11 UNL     1      15.655  79.996   2.154  1.00  0.00     0.481 C 
HETATM   41  N6  UNL     1      15.308  78.598   2.528  1.00  0.00    -0.033 N 
HETATM   42  N7  UNL     1      16.921  80.220   2.881  1.00  0.00    -0.033 N 
ATOM     43  H63 UNL     1      14.497  78.258   2.012  1.00  0.00     0.278 HD
ATOM     44  H62 UNL     1      15.998  77.931   2.184  1.00  0.00     0.278 HD
ATOM     45  H61 UNL     1      15.176  78.520   3.537  1.00  0.00     0.278 HD
ATOM     46  H73 UNL     1      17.658  79.596   2.551  1.00  0.00     0.278 HD
ATOM     47  H72 UNL     1      17.346  81.112   2.627  1.00  0.00     0.278 HD
ATOM     48  H71 UNL     1      16.789  80.142   3.889  1.00  0.00     0.278 HD
ATOM     49  H5  UNL     1      15.934  79.183   0.348  1.00  0.00     0.165 HD
ENDBRANCH   6  39
TORSDOF 9
ENDMDL
MODEL 5
REMARK VINA RESULT: -7.258410606      2.471      4.242
REMARK  9 active torsions:
REMARK  status: ('A' for Active; 'I' for Inactive)
REMARK    1  A    between atoms: C2_2  and  C3_4 
REMARK    2  A    between atoms: C3_4  and  N1_5 
REMARK    3  A    between atoms: C3_4  and  C4_9 
REMARK    4  A    between atoms: C5_14  and  C6_15 
REMARK    5  A    between atoms: C7_16  and  O2_17 
REMARK    6  A    between atoms: C8_19  and  O3_20 
REMARK    7  A    between atoms: C10_24  and  N5_25 
REMARK       I    between atoms: N5_25  and  C11_27 
REMARK       I    between atoms: C11_27  and  N6_28 
REMARK       I    between atoms: C11_27  and  N7_32 
REMARK    8  A    between atoms: N8_36  and  C12_37 
REMARK    9  A    between atoms: C13_43  and  N11_44 
ROOT
HETATM    1  C6  UNL     1      16.029  82.095  -1.533  1.00  0.00     0.113 A 
HETATM    2  C7  UNL     1      17.270  82.613  -1.092  1.00  0.00     0.131 A 
HETATM    3  C8  UNL     1      17.885  82.172   0.037  1.00  0.00     0.129 A 
HETATM    4  C9  UNL     1      17.231  81.165   0.763  1.00  0.00     0.126 A 
HETATM    5  N4  UNL     1      17.934  80.752   1.940  1.00  0.00    -0.095 NA
HETATM    6  C10 UNL     1      16.031  80.652   0.353  1.00  0.00     0.140 A 
HETATM    7  N8  UNL     1      15.474  81.153  -0.803  1.00  0.00    -0.272 N 
ENDROOT
BRANCH   1   8
HETATM    8  C5  UNL     1      15.454  82.702  -2.740  1.00  0.00     0.154 A 
HETATM    9  N3  UNL     1      14.805  83.895  -2.649  1.00  0.00    -0.291 N 
HETATM   10  N2  UNL     1      14.316  84.478  -3.726  1.00  0.00    -0.280 N 
ATOM     11  H3  UNL     1      14.696  84.342  -1.739  1.00  0.00     0.187 HD
HETATM   12  C4  UNL     1      14.420  83.951  -4.955  1.00  0.00     0.180 A 
ATOM     13  H2  UNL     1      13.836  85.371  -3.619  1.00  0.00     0.189 HD
HETATM   14  O6  UNL     1      15.040  82.806  -5.062  1.00  0.00    -0.256 OA
HETATM   15  C14 UNL     1      15.549  82.183  -4.000  1.00  0.00     0.320 A 
HETATM   16  O5  UNL     1      16.122  81.099  -4.221  1.00  0.00    -0.257 OA
BRANCH  12  17
HETATM   17  C3  UNL     1      13.845  84.650  -6.154  1.00  0.00     0.327 C 
BRANCH  17  18
HETATM   18  C2  UNL     1      12.406  84.358  -6.299  1.00  0.00     0.161 C 
HETATM   19  C1  UNL     1      11.706  84.694  -7.562  1.00  0.00     0.093 C 
HETATM   20  O1  UNL     1      11.745  83.836  -5.403  1.00  0.00    -0.296 OA
ENDBRANCH  17  18
BRANCH  17  21
HETATM   21  N1  UNL     1      14.544  84.327  -7.347  1.00  0.00    -0.061 N 
ATOM     22  H13 UNL     1      13.907  84.069  -8.101  1.00  0.00     0.275 HD
ATOM     23  H12 UNL     1      14.962  85.153  -7.776  1.00  0.00     0.275 HD
ATOM     24  H11 UNL     1      15.237  83.600  -7.172  1.00  0.00     0.275 HD
ENDBRANCH  17  21
ENDBRANCH  12  17
ENDBRANCH   1   8
BRANCH   2  25
HETATM   25  O2  UNL     1      17.833  83.602  -1.877  1.00  0.00    -0.356 OA
ATOM     26  H2  UNL     1      17.234  84.249  -2.229  1.00  0.00     0.218 HD
ENDBRANCH   2  25
BRANCH   7  27
HETATM   27  C12 UNL     1      14.189  80.630  -1.184  1.00  0.00     0.182 A 
HETATM   28  N9  UNL     1      12.989  81.119  -0.743  1.00  0.00    -0.221 N 
HETATM   29  O4  UNL     1      12.060  80.405  -1.278  1.00  0.00    -0.153 OA
ATOM     30  H9  UNL     1      12.854  81.904  -0.107  1.00  0.00     0.198 HD
HETATM   31  N10 UNL     1      12.536  79.492  -2.030  1.00  0.00    -0.222 N 
HETATM   32  C13 UNL     1      13.870  79.588  -2.007  1.00  0.00     0.168 A 
ATOM     33  H10 UNL     1      11.994  78.808  -2.558  1.00  0.00     0.198 HD
BRANCH  32  34
HETATM   34  N11 UNL     1      14.657  78.821  -2.671  1.00  0.00    -0.381 N 
ATOM     35 2H11 UNL     1      15.670  78.804  -2.554  1.00  0.00     0.157 HD
ATOM     36 1H11 UNL     1      14.421  78.126  -3.379  1.00  0.00     0.157 HD
ENDBRANCH  32  34
ENDBRANCH   7  27
BRANCH   3  37
HETATM   37  O3  UNL     1      19.096  82.674   0.471  1.00  0.00    -0.356 OA
ATOM     38  H3  UNL     1      19.622  82.244   1.135  1.00  0.00     0.218 HD
ENDBRANCH   3  37
BRANCH   6  39
HETATM   39  N5  UNL     1      15.438  79.760   1.002  1.00  0.00    -0.325 N 
HETATM   40  C11 UNL     1      14.498  79.692   2.023  1.00  0.00     0.481 C 
HETATM   41  N6  UNL     1      13.933  78.319   2.121  1.00  0.00    -0.033 N 
HETATM   42  N7  UNL     1      15.127  79.877   3.346  1.00  0.00    -0.033 N 
ATOM     43  H63 UNL     1      13.549  78.003   1.230  1.00  0.00     0.278 HD
ATOM     44  H62 UNL     1      14.662  77.615   2.230  1.00  0.00     0.278 HD
ATOM     45  H61 UNL     1      13.242  78.269   2.870  1.00  0.00     0.278 HD
ATOM     46  H73 UNL     1      15.889  79.215   3.495  1.00  0.00     0.278 HD
ATOM     47  H72 UNL     1      15.663  80.744   3.388  1.00  0.00     0.278 HD
ATOM     48  H71 UNL     1      14.437  79.827   4.095  1.00  0.00     0.278 HD
ATOM     49  H5  UNL     1      15.723  78.828   0.699  1.00  0.00     0.165 HD
ENDBRANCH   6  39
TORSDOF 9
ENDMDL
