MODEL 1
REMARK VINA RESULT: -9.127175157      0.000      0.000
REMARK  9 active torsions:
REMARK  status: ('A' for Active; 'I' for Inactive)
REMARK    1  A    between atoms: C2_2  and  C3_4 
REMARK    2  A    between atoms: C3_4  and  C8_27 
REMARK    3  A    between atoms: N1_5  and  N2_7 
REMARK    4  A    between atoms: N2_7  and  C4_9 
REMARK    5  A    between atoms: C5_12  and  N4_13 
REMARK    6  A    between atoms: N4_13  and  N5_15 
REMARK       I    between atoms: N5_15  and  C6_17 
REMARK    7  A    between atoms: C9_30  and  C10_31 
REMARK    8  A    between atoms: C14_40  and  N13_41 
REMARK    9  A    between atoms: N14_44  and  N15_45 
ROOT
HETATM    1  C3  UNL     1      13.862  79.649  -0.937  1.00  0.00     0.139 C 
HETATM    2  N1  UNL     1      14.249  78.832  -1.853  1.00  0.00    -0.295 N 
ATOM      3  H1  UNL     1      15.227  78.544  -1.825  1.00  0.00     0.187 HD
ENDROOT
BRANCH   1   4
HETATM    4  C2  UNL     1      12.506  80.139  -0.859  1.00  0.00     0.177 C 
HETATM    5  C1  UNL     1      12.160  81.468  -1.383  1.00  0.00     0.098 C 
HETATM    6  O1  UNL     1      11.629  79.396  -0.331  1.00  0.00    -0.291 OA
ENDBRANCH   1   4
BRANCH   1   7
HETATM    7  C8  UNL     1      14.922  80.039   0.023  1.00  0.00     0.161 A 
HETATM    8  N10 UNL     1      15.969  80.797  -0.319  1.00  0.00    -0.335 N 
HETATM    9  C9  UNL     1      16.941  81.168   0.512  1.00  0.00     0.090 A 
ATOM     10  H10 UNL     1      16.027  81.115  -1.286  1.00  0.00     0.168 HD
HETATM   11  C13 UNL     1      16.901  80.761   1.828  1.00  0.00     0.084 A 
HETATM   12  C14 UNL     1      15.834  79.977   2.210  1.00  0.00     0.124 A 
HETATM   13  N14 UNL     1      14.885  79.639   1.314  1.00  0.00    -0.228 N 
BRANCH   9  14
HETATM   14  C10 UNL     1      18.054  82.010   0.035  1.00  0.00     0.191 A 
HETATM   15  N11 UNL     1      18.202  82.457  -1.225  1.00  0.00    -0.276 N 
HETATM   16  N12 UNL     1      19.331  83.181  -1.249  1.00  0.00    -0.281 N 
ATOM     17  H11 UNL     1      17.576  82.280  -2.011  1.00  0.00     0.189 HD
HETATM   18  C11 UNL     1      19.867  83.174  -0.016  1.00  0.00     0.136 A 
ATOM     19  H12 UNL     1      19.717  83.657  -2.065  1.00  0.00     0.189 HD
HETATM   20  C12 UNL     1      21.122  83.853   0.404  1.00  0.00     0.099 C 
HETATM   21  O2  UNL     1      19.070  82.460   0.721  1.00  0.00    -0.276 OA
ENDBRANCH   9  14
BRANCH  12  22
HETATM   22  N13 UNL     1      15.705  79.542   3.426  1.00  0.00    -0.384 N 
ATOM     23 2H13 UNL     1      16.350  79.898   4.132  1.00  0.00     0.157 HD
ATOM     24 1H13 UNL     1      14.985  78.866   3.682  1.00  0.00     0.157 HD
ENDBRANCH  12  22
BRANCH  13  25
HETATM   25  N15 UNL     1      13.819  78.841   1.749  1.00  0.00    -0.335 N 
ATOM     26 2H15 UNL     1      12.955  78.855   1.207  1.00  0.00     0.177 HD
ATOM     27 1H15 UNL     1      13.936  78.272   2.587  1.00  0.00     0.177 HD
ENDBRANCH  13  25
ENDBRANCH   1   7
BRANCH   2  28
HETATM   28  N2  UNL     1      13.481  78.307  -2.868  1.00  0.00    -0.294 N 
ATOM     29  H2  UNL     1      12.694  77.696  -2.646  1.00  0.00     0.184 HD
BRANCH  28  30
HETATM   30  C4  UNL     1      13.789  78.623  -4.265  1.00  0.00     0.320 A 
HETATM   31  N3  UNL     1      14.786  77.735  -4.799  1.00  0.00    -0.185 N 
HETATM   32  C5  UNL     1      15.942  78.065  -5.244  1.00  0.00     0.696 A 
ATOM     33  H3  UNL     1      14.549  76.743  -4.826  1.00  0.00     0.181 HD
HETATM   34  N8  UNL     1      16.325  79.427  -5.233  1.00  0.00    -0.187 N 
HETATM   35  C7  UNL     1      15.544  80.344  -4.789  1.00  0.00     0.196 A 
ATOM     36  H8  UNL     1      17.246  79.688  -5.586  1.00  0.00     0.185 HD
HETATM   37  N9  UNL     1      14.274  79.981  -4.298  1.00  0.00    -0.347 N 
ATOM     38  H9  UNL     1      13.665  80.719  -3.947  1.00  0.00     0.164 HD
BRANCH  32  39
HETATM   39  N4  UNL     1      16.863  77.093  -5.755  1.00  0.00    -0.130 N 
ATOM     40  H4  UNL     1      16.500  76.203  -6.095  1.00  0.00     0.205 HD
BRANCH  39  41
HETATM   41  N5  UNL     1      18.231  77.319  -5.806  1.00  0.00    -0.260 N 
HETATM   42  C6  UNL     1      18.845  77.354  -7.101  1.00  0.00     0.201 C 
HETATM   43  N6  UNL     1      19.982  77.936  -7.312  1.00  0.00    -0.372 N 
HETATM   44  N7  UNL     1      18.216  76.741  -8.219  1.00  0.00    -0.062 NA
ATOM     45  H62 UNL     1      20.433  78.376  -6.509  1.00  0.00     0.158 HD
ATOM     46  H61 UNL     1      20.418  77.961  -8.233  1.00  0.00     0.158 HD
ATOM     47  H5  UNL     1      18.778  77.455  -4.955  1.00  0.00     0.190 HD
ENDBRANCH  39  41
ENDBRANCH  32  39
ENDBRANCH  28  30
ENDBRANCH   2  28
TORSDOF 9
ENDMDL
MODEL 2
REMARK VINA RESULT: -9.069314975      1.284      1.442
REMARK  9 active torsions:
REMARK  status: ('A' for Active; 'I' for Inactive)
REMARK    1  A    between atoms: C2_2  and  C3_4 
REMARK    2  A    between atoms: C3_4  and  C8_27 
REMARK    3  A    between atoms: N1_5  and  N2_7 
REMARK    4  A    between atoms: N2_7  and  C4_9 
REMARK    5  A    between atoms: C5_12  and  N4_13 
REMARK    6  A    between atoms: N4_13  and  N5_15 
REMARK       I    between atoms: N5_15  and  C6_17 
REMARK    7  A    between atoms: C9_30  and  C10_31 
REMARK    8  A    between atoms: C14_40  and  N13_41 
REMARK    9  A    between atoms: N14_44  and  N15_45 
ROOT
HETATM    1  C3  UNL     1      13.950  79.648  -0.960  1.00  0.00     0.139 C 
HETATM    2  N1  UNL     1      14.333  78.840  -1.885  1.00  0.00    -0.295 N 
ATOM      3  H1  UNL     1      15.321  78.589  -1.893  1.00  0.00     0.187 HD
ENDROOT
BRANCH   1   4
HETATM    4  C2  UNL     1      12.580  80.087  -0.833  1.00  0.00     0.177 C 
HETATM    5  C1  UNL     1      12.172  81.412  -1.318  1.00  0.00     0.098 C 
HETATM    6  O1  UNL     1      11.747  79.302  -0.296  1.00  0.00    -0.291 OA
ENDBRANCH   1   4
BRANCH   1   7
HETATM    7  C8  UNL     1      15.031  80.086  -0.045  1.00  0.00     0.161 A 
HETATM    8  N10 UNL     1      16.056  80.847  -0.441  1.00  0.00    -0.335 N 
HETATM    9  C9  UNL     1      17.046  81.259   0.348  1.00  0.00     0.090 A 
ATOM     10  H10 UNL     1      16.082  81.132  -1.420  1.00  0.00     0.168 HD
HETATM   11  C13 UNL     1      17.049  80.897   1.678  1.00  0.00     0.084 A 
HETATM   12  C14 UNL     1      16.004  80.112   2.117  1.00  0.00     0.124 A 
HETATM   13  N14 UNL     1      15.036  79.730   1.260  1.00  0.00    -0.228 N 
BRANCH   9  14
HETATM   14  C10 UNL     1      18.132  82.100  -0.189  1.00  0.00     0.191 A 
HETATM   15  N11 UNL     1      19.194  82.534   0.513  1.00  0.00    -0.276 N 
HETATM   16  N12 UNL     1      19.943  83.262  -0.329  1.00  0.00    -0.281 N 
ATOM     17  H11 UNL     1      19.393  82.346   1.496  1.00  0.00     0.189 HD
HETATM   18  C11 UNL     1      19.342  83.273  -1.531  1.00  0.00     0.136 A 
ATOM     19  H12 UNL     1      20.820  83.729  -0.096  1.00  0.00     0.189 HD
HETATM   20  C12 UNL     1      19.831  83.962  -2.755  1.00  0.00     0.099 C 
HETATM   21  O2  UNL     1      18.261  82.564  -1.402  1.00  0.00    -0.276 OA
ENDBRANCH   9  14
BRANCH  12  22
HETATM   22  N13 UNL     1      15.916  79.717   3.350  1.00  0.00    -0.384 N 
ATOM     23 2H13 UNL     1      16.487  78.923   3.639  1.00  0.00     0.157 HD
ATOM     24 1H13 UNL     1      15.301  80.178   4.020  1.00  0.00     0.157 HD
ENDBRANCH  12  22
BRANCH  13  25
HETATM   25  N15 UNL     1      13.995  78.933   1.752  1.00  0.00    -0.335 N 
ATOM     26 2H15 UNL     1      13.038  79.270   1.644  1.00  0.00     0.177 HD
ATOM     27 1H15 UNL     1      14.220  78.044   2.199  1.00  0.00     0.177 HD
ENDBRANCH  13  25
ENDBRANCH   1   7
BRANCH   2  28
HETATM   28  N2  UNL     1      13.547  78.278  -2.866  1.00  0.00    -0.294 N 
ATOM     29  H2  UNL     1      12.981  77.456  -2.655  1.00  0.00     0.184 HD
BRANCH  28  30
HETATM   30  C4  UNL     1      13.520  78.858  -4.212  1.00  0.00     0.320 A 
HETATM   31  N3  UNL     1      13.700  77.851  -5.222  1.00  0.00    -0.185 N 
HETATM   32  C5  UNL     1      14.657  77.787  -6.073  1.00  0.00     0.696 A 
ATOM     33  H3  UNL     1      12.997  77.114  -5.267  1.00  0.00     0.181 HD
HETATM   34  N8  UNL     1      15.663  78.783  -6.060  1.00  0.00    -0.187 N 
HETATM   35  C7  UNL     1      15.642  79.752  -5.218  1.00  0.00     0.196 A 
ATOM     36  H8  UNL     1      16.424  78.730  -6.737  1.00  0.00     0.185 HD
HETATM   37  N9  UNL     1      14.592  79.821  -4.282  1.00  0.00    -0.347 N 
ATOM     38  H9  UNL     1      14.588  80.594  -3.618  1.00  0.00     0.164 HD
BRANCH  32  39
HETATM   39  N4  UNL     1      14.742  76.734  -7.042  1.00  0.00    -0.130 N 
ATOM     40  H4  UNL     1      13.907  76.487  -7.573  1.00  0.00     0.205 HD
BRANCH  39  41
HETATM   41  N5  UNL     1      15.918  76.039  -7.285  1.00  0.00    -0.260 N 
HETATM   42  C6  UNL     1      16.844  76.617  -8.214  1.00  0.00     0.201 C 
HETATM   43  N6  UNL     1      18.100  76.303  -8.225  1.00  0.00    -0.372 N 
HETATM   44  N7  UNL     1      16.409  77.573  -9.173  1.00  0.00    -0.062 NA
ATOM     45  H62 UNL     1      18.412  75.617  -7.536  1.00  0.00     0.158 HD
ATOM     46  H61 UNL     1      18.758  76.714  -8.885  1.00  0.00     0.158 HD
ATOM     47  H5  UNL     1      16.115  75.152  -6.821  1.00  0.00     0.190 HD
ENDBRANCH  39  41
ENDBRANCH  32  39
ENDBRANCH  28  30
ENDBRANCH   2  28
TORSDOF 9
ENDMDL
MODEL 3
REMARK VINA RESULT: -9.049021674      3.417      6.032
REMARK  9 active torsions:
REMARK  status: ('A' for Active; 'I' for Inactive)
REMARK    1  A    between atoms: C2_2  and  C3_4 
REMARK    2  A    between atoms: C3_4  and  C8_27 
REMARK    3  A    between atoms: N1_5  and  N2_7 
REMARK    4  A    between atoms: N2_7  and  C4_9 
REMARK    5  A    between atoms: C5_12  and  N4_13 
REMARK    6  A    between atoms: N4_13  and  N5_15 
REMARK       I    between atoms: N5_15  and  C6_17 
REMARK    7  A    between atoms: C9_30  and  C10_31 
REMARK    8  A    between atoms: C14_40  and  N13_41 
REMARK    9  A    between atoms: N14_44  and  N15_45 
ROOT
HETATM    1  C3  UNL     1      14.657  80.354  -3.344  1.00  0.00     0.139 C 
HETATM    2  N1  UNL     1      14.686  79.319  -4.109  1.00  0.00    -0.295 N 
ATOM      3  H1  UNL     1      13.807  78.817  -4.231  1.00  0.00     0.187 HD
ENDROOT
BRANCH   1   4
HETATM    4  C2  UNL     1      15.828  81.157  -3.083  1.00  0.00     0.177 C 
HETATM    5  C1  UNL     1      16.158  82.301  -3.944  1.00  0.00     0.098 C 
HETATM    6  O1  UNL     1      16.558  80.850  -2.097  1.00  0.00    -0.291 OA
ENDBRANCH   1   4
BRANCH   1   7
HETATM    7  C8  UNL     1      13.326  80.647  -2.760  1.00  0.00     0.161 A 
HETATM    8  N10 UNL     1      12.437  81.455  -3.346  1.00  0.00    -0.335 N 
HETATM    9  C9  UNL     1      11.234  81.744  -2.854  1.00  0.00     0.090 A 
ATOM     10  H10 UNL     1      12.700  81.882  -4.234  1.00  0.00     0.168 HD
HETATM   11  C13 UNL     1      10.839  81.188  -1.657  1.00  0.00     0.084 A 
HETATM   12  C14 UNL     1      11.734  80.350  -1.029  1.00  0.00     0.124 A 
HETATM   13  N14 UNL     1      12.937  80.103  -1.584  1.00  0.00    -0.228 N 
BRANCH   9  14
HETATM   14  C10 UNL     1      10.325  82.649  -3.582  1.00  0.00     0.191 A 
HETATM   15  N11 UNL     1      10.369  83.993  -3.534  1.00  0.00    -0.276 N 
HETATM   16  N12 UNL     1       9.383  84.441  -4.327  1.00  0.00    -0.281 N 
ATOM     17  H11 UNL     1      11.025  84.562  -2.999  1.00  0.00     0.189 HD
HETATM   18  C11 UNL     1       8.745  83.381  -4.851  1.00  0.00     0.136 A 
ATOM     19  H12 UNL     1       9.158  85.420  -4.502  1.00  0.00     0.189 HD
HETATM   20  C12 UNL     1       7.588  83.421  -5.785  1.00  0.00     0.099 C 
HETATM   21  O2  UNL     1       9.341  82.328  -4.378  1.00  0.00    -0.276 OA
ENDBRANCH   9  14
BRANCH  12  22
HETATM   22  N13 UNL     1      11.458  79.778   0.103  1.00  0.00    -0.384 N 
ATOM     23 2H13 UNL     1      10.529  79.923   0.497  1.00  0.00     0.157 HD
ATOM     24 1H13 UNL     1      12.139  79.197   0.592  1.00  0.00     0.157 HD
ENDBRANCH  12  22
BRANCH  13  25
HETATM   25  N15 UNL     1      13.814  79.244  -0.910  1.00  0.00    -0.335 N 
ATOM     26 2H15 UNL     1      14.769  79.158  -1.259  1.00  0.00     0.177 HD
ATOM     27 1H15 UNL     1      13.477  78.734  -0.093  1.00  0.00     0.177 HD
ENDBRANCH  13  25
ENDBRANCH   1   7
BRANCH   2  28
HETATM   28  N2  UNL     1      15.779  78.820  -4.779  1.00  0.00    -0.294 N 
ATOM     29  H2  UNL     1      16.659  79.337  -4.773  1.00  0.00     0.184 HD
BRANCH  28  30
HETATM   30  C4  UNL     1      15.684  77.548  -5.501  1.00  0.00     0.320 A 
HETATM   31  N3  UNL     1      16.916  77.229  -6.171  1.00  0.00    -0.185 N 
HETATM   32  C5  UNL     1      17.081  77.083  -7.433  1.00  0.00     0.696 A 
ATOM     33  H3  UNL     1      17.740  77.108  -5.582  1.00  0.00     0.181 HD
HETATM   34  N8  UNL     1      15.973  77.239  -8.300  1.00  0.00    -0.187 N 
HETATM   35  C7  UNL     1      14.803  77.523  -7.854  1.00  0.00     0.196 A 
ATOM     36  H8  UNL     1      16.107  77.123  -9.304  1.00  0.00     0.185 HD
HETATM   37  N9  UNL     1      14.622  77.685  -6.467  1.00  0.00    -0.347 N 
ATOM     38  H9  UNL     1      13.688  77.912  -6.127  1.00  0.00     0.164 HD
BRANCH  32  39
HETATM   39  N4  UNL     1      18.359  76.764  -7.999  1.00  0.00    -0.130 N 
ATOM     40  H4  UNL     1      18.398  76.141  -8.805  1.00  0.00     0.205 HD
BRANCH  39  41
HETATM   41  N5  UNL     1      19.546  77.272  -7.490  1.00  0.00    -0.260 N 
HETATM   42  C6  UNL     1      20.736  76.500  -7.698  1.00  0.00     0.201 C 
HETATM   43  N6  UNL     1      21.918  77.023  -7.642  1.00  0.00    -0.372 N 
HETATM   44  N7  UNL     1      20.657  75.108  -7.978  1.00  0.00    -0.062 NA
ATOM     45  H62 UNL     1      21.974  78.022  -7.441  1.00  0.00     0.158 HD
ATOM     46  H61 UNL     1      22.764  76.474  -7.789  1.00  0.00     0.158 HD
ATOM     47  H5  UNL     1      19.571  78.160  -6.988  1.00  0.00     0.190 HD
ENDBRANCH  39  41
ENDBRANCH  32  39
ENDBRANCH  28  30
ENDBRANCH   2  28
TORSDOF 9
ENDMDL
MODEL 4
REMARK VINA RESULT: -9.021029955      1.795      2.471
REMARK  9 active torsions:
REMARK  status: ('A' for Active; 'I' for Inactive)
REMARK    1  A    between atoms: C2_2  and  C3_4 
REMARK    2  A    between atoms: C3_4  and  C8_27 
REMARK    3  A    between atoms: N1_5  and  N2_7 
REMARK    4  A    between atoms: N2_7  and  C4_9 
REMARK    5  A    between atoms: C5_12  and  N4_13 
REMARK    6  A    between atoms: N4_13  and  N5_15 
REMARK       I    between atoms: N5_15  and  C6_17 
REMARK    7  A    between atoms: C9_30  and  C10_31 
REMARK    8  A    between atoms: C14_40  and  N13_41 
REMARK    9  A    between atoms: N14_44  and  N15_45 
ROOT
HETATM    1  C3  UNL     1      14.474  80.116  -3.163  1.00  0.00     0.139 C 
HETATM    2  N1  UNL     1      15.222  79.391  -3.920  1.00  0.00    -0.295 N 
ATOM      3  H1  UNL     1      16.033  78.957  -3.480  1.00  0.00     0.187 HD
ENDROOT
BRANCH   1   4
HETATM    4  C2  UNL     1      13.295  80.789  -3.656  1.00  0.00     0.177 C 
HETATM    5  C1  UNL     1      13.259  82.254  -3.757  1.00  0.00     0.098 C 
HETATM    6  O1  UNL     1      12.301  80.086  -3.997  1.00  0.00    -0.291 OA
ENDBRANCH   1   4
BRANCH   1   7
HETATM    7  C8  UNL     1      14.925  80.197  -1.754  1.00  0.00     0.161 A 
HETATM    8  N10 UNL     1      16.014  80.875  -1.378  1.00  0.00    -0.335 N 
HETATM    9  C9  UNL     1      16.453  80.972  -0.124  1.00  0.00     0.090 A 
ATOM     10  H10 UNL     1      16.548  81.354  -2.103  1.00  0.00     0.168 HD
HETATM   11  C13 UNL     1      15.762  80.340   0.887  1.00  0.00     0.084 A 
HETATM   12  C14 UNL     1      14.635  79.633   0.530  1.00  0.00     0.124 A 
HETATM   13  N14 UNL     1      14.249  79.577  -0.760  1.00  0.00    -0.228 N 
BRANCH   9  14
HETATM   14  C10 UNL     1      17.668  81.748   0.187  1.00  0.00     0.191 A 
HETATM   15  N11 UNL     1      18.292  81.765   1.378  1.00  0.00    -0.276 N 
HETATM   16  N12 UNL     1      19.346  82.586   1.251  1.00  0.00    -0.281 N 
ATOM     17  H11 UNL     1      18.018  81.253   2.216  1.00  0.00     0.189 HD
HETATM   18  C11 UNL     1      19.362  83.065  -0.004  1.00  0.00     0.136 A 
ATOM     19  H12 UNL     1      20.020  82.808   1.984  1.00  0.00     0.189 HD
HETATM   20  C12 UNL     1      20.360  84.010  -0.574  1.00  0.00     0.099 C 
HETATM   21  O2  UNL     1      18.339  82.538  -0.607  1.00  0.00    -0.276 OA
ENDBRANCH   9  14
BRANCH  12  22
HETATM   22  N13 UNL     1      13.915  79.003   1.407  1.00  0.00    -0.384 N 
ATOM     23 2H13 UNL     1      13.793  79.434   2.324  1.00  0.00     0.157 HD
ATOM     24 1H13 UNL     1      13.479  78.105   1.200  1.00  0.00     0.157 HD
ENDBRANCH  12  22
BRANCH  13  25
HETATM   25  N15 UNL     1      13.097  78.846  -1.076  1.00  0.00    -0.335 N 
ATOM     26 2H15 UNL     1      12.645  79.022  -1.973  1.00  0.00     0.177 HD
ATOM     27 1H15 UNL     1      12.746  78.162  -0.405  1.00  0.00     0.177 HD
ENDBRANCH  13  25
ENDBRANCH   1   7
BRANCH   2  28
HETATM   28  N2  UNL     1      15.041  79.142  -5.262  1.00  0.00    -0.294 N 
ATOM     29  H2  UNL     1      14.698  79.881  -5.875  1.00  0.00     0.184 HD
BRANCH  28  30
HETATM   30  C4  UNL     1      15.339  77.816  -5.812  1.00  0.00     0.320 A 
HETATM   31  N3  UNL     1      16.730  77.485  -5.663  1.00  0.00    -0.185 N 
HETATM   32  C5  UNL     1      17.563  77.247  -6.609  1.00  0.00     0.696 A 
ATOM     33  H3  UNL     1      17.090  77.433  -4.711  1.00  0.00     0.181 HD
HETATM   34  N8  UNL     1      17.119  77.302  -7.952  1.00  0.00    -0.187 N 
HETATM   35  C7  UNL     1      15.903  77.584  -8.249  1.00  0.00     0.196 A 
ATOM     36  H8  UNL     1      17.783  77.114  -8.703  1.00  0.00     0.185 HD
HETATM   37  N9  UNL     1      14.988  77.846  -7.211  1.00  0.00    -0.347 N 
ATOM     38  H9  UNL     1      14.026  78.070  -7.461  1.00  0.00     0.164 HD
BRANCH  32  39
HETATM   39  N4  UNL     1      18.935  76.926  -6.348  1.00  0.00    -0.130 N 
ATOM     40  H4  UNL     1      19.149  76.227  -5.636  1.00  0.00     0.205 HD
BRANCH  39  41
HETATM   41  N5  UNL     1      19.983  77.529  -7.029  1.00  0.00    -0.260 N 
HETATM   42  C6  UNL     1      20.679  76.736  -8.000  1.00  0.00     0.201 C 
HETATM   43  N6  UNL     1      21.374  77.267  -8.955  1.00  0.00    -0.372 N 
HETATM   44  N7  UNL     1      20.631  75.316  -7.948  1.00  0.00    -0.062 NA
ATOM     45  H62 UNL     1      21.409  78.286  -8.992  1.00  0.00     0.158 HD
ATOM     46  H61 UNL     1      21.869  76.703  -9.646  1.00  0.00     0.158 HD
ATOM     47  H5  UNL     1      20.247  78.497  -6.846  1.00  0.00     0.190 HD
ENDBRANCH  39  41
ENDBRANCH  32  39
ENDBRANCH  28  30
ENDBRANCH   2  28
TORSDOF 9
ENDMDL
MODEL 5
REMARK VINA RESULT: -8.965433027      2.629      4.503
REMARK  9 active torsions:
REMARK  status: ('A' for Active; 'I' for Inactive)
REMARK    1  A    between atoms: C2_2  and  C3_4 
REMARK    2  A    between atoms: C3_4  and  C8_27 
REMARK    3  A    between atoms: N1_5  and  N2_7 
REMARK    4  A    between atoms: N2_7  and  C4_9 
REMARK    5  A    between atoms: C5_12  and  N4_13 
REMARK    6  A    between atoms: N4_13  and  N5_15 
REMARK       I    between atoms: N5_15  and  C6_17 
REMARK    7  A    between atoms: C9_30  and  C10_31 
REMARK    8  A    between atoms: C14_40  and  N13_41 
REMARK    9  A    between atoms: N14_44  and  N15_45 
ROOT
HETATM    1  C3  UNL     1      14.359  80.065  -3.955  1.00  0.00     0.139 C 
HETATM    2  N1  UNL     1      14.191  78.927  -4.532  1.00  0.00    -0.295 N 
ATOM      3  H1  UNL     1      13.590  78.256  -4.054  1.00  0.00     0.187 HD
ENDROOT
BRANCH   1   4
HETATM    4  C2  UNL     1      15.184  81.106  -4.522  1.00  0.00     0.177 C 
HETATM    5  C1  UNL     1      14.766  82.513  -4.453  1.00  0.00     0.098 C 
HETATM    6  O1  UNL     1      16.272  80.775  -5.076  1.00  0.00    -0.291 OA
ENDBRANCH   1   4
BRANCH   1   7
HETATM    7  C8  UNL     1      13.636  80.212  -2.670  1.00  0.00     0.161 A 
HETATM    8  N10 UNL     1      14.221  80.024  -1.482  1.00  0.00    -0.335 N 
HETATM    9  C9  UNL     1      13.607  80.146  -0.306  1.00  0.00     0.090 A 
ATOM     10  H10 UNL     1      15.208  79.770  -1.476  1.00  0.00     0.168 HD
HETATM   11  C13 UNL     1      12.273  80.488  -0.269  1.00  0.00     0.084 A 
HETATM   12  C14 UNL     1      11.643  80.689  -1.478  1.00  0.00     0.124 A 
HETATM   13  N14 UNL     1      12.327  80.548  -2.631  1.00  0.00    -0.228 N 
BRANCH   9  14
HETATM   14  C10 UNL     1      14.345  79.918   0.951  1.00  0.00     0.191 A 
HETATM   15  N11 UNL     1      13.801  79.471   2.097  1.00  0.00    -0.276 N 
HETATM   16  N12 UNL     1      14.796  79.401   2.995  1.00  0.00    -0.281 N 
ATOM     17  H11 UNL     1      12.822  79.233   2.254  1.00  0.00     0.189 HD
HETATM   18  C11 UNL     1      15.933  79.801   2.402  1.00  0.00     0.136 A 
ATOM     19  H12 UNL     1      14.703  79.094   3.964  1.00  0.00     0.189 HD
HETATM   20  C12 UNL     1      17.277  79.879   3.034  1.00  0.00     0.099 C 
HETATM   21  O2  UNL     1      15.617  80.102   1.178  1.00  0.00    -0.276 OA
ENDBRANCH   9  14
BRANCH  12  22
HETATM   22  N13 UNL     1      10.389  81.013  -1.551  1.00  0.00    -0.384 N 
ATOM     23 2H13 UNL     1       9.817  80.904  -0.713  1.00  0.00     0.157 HD
ATOM     24 1H13 UNL     1       9.974  81.370  -2.412  1.00  0.00     0.157 HD
ENDBRANCH  12  22
BRANCH  13  25
HETATM   25  N15 UNL     1      11.644  80.761  -3.836  1.00  0.00    -0.335 N 
ATOM     26 2H15 UNL     1      11.350  79.946  -4.374  1.00  0.00     0.177 HD
ATOM     27 1H15 UNL     1      11.461  81.718  -4.138  1.00  0.00     0.177 HD
ENDBRANCH  13  25
ENDBRANCH   1   7
BRANCH   2  28
HETATM   28  N2  UNL     1      14.738  78.520  -5.728  1.00  0.00    -0.294 N 
ATOM     29  H2  UNL     1      14.468  78.985  -6.595  1.00  0.00     0.184 HD
BRANCH  28  30
HETATM   30  C4  UNL     1      15.707  77.421  -5.760  1.00  0.00     0.320 A 
HETATM   31  N3  UNL     1      17.019  77.885  -6.120  1.00  0.00    -0.185 N 
HETATM   32  C5  UNL     1      17.699  77.529  -7.146  1.00  0.00     0.696 A 
ATOM     33  H3  UNL     1      17.452  78.566  -5.496  1.00  0.00     0.181 HD
HETATM   34  N8  UNL     1      17.150  76.586  -8.047  1.00  0.00    -0.187 N 
HETATM   35  C7  UNL     1      15.986  76.075  -7.863  1.00  0.00     0.196 A 
ATOM     36  H8  UNL     1      17.692  76.304  -8.864  1.00  0.00     0.185 HD
HETATM   37  N9  UNL     1      15.238  76.468  -6.736  1.00  0.00    -0.347 N 
ATOM     38  H9  UNL     1      14.316  76.056  -6.602  1.00  0.00     0.164 HD
BRANCH  32  39
HETATM   39  N4  UNL     1      19.004  78.058  -7.412  1.00  0.00    -0.130 N 
ATOM     40  H4  UNL     1      19.086  78.901  -7.980  1.00  0.00     0.205 HD
BRANCH  39  41
HETATM   41  N5  UNL     1      20.160  77.466  -6.925  1.00  0.00    -0.260 N 
HETATM   42  C6  UNL     1      20.916  76.653  -7.834  1.00  0.00     0.201 C 
HETATM   43  N6  UNL     1      22.169  76.387  -7.645  1.00  0.00    -0.372 N 
HETATM   44  N7  UNL     1      20.306  76.100  -8.993  1.00  0.00    -0.062 NA
ATOM     45  H62 UNL     1      22.607  76.784  -6.812  1.00  0.00     0.158 HD
ATOM     46  H61 UNL     1      22.706  75.809  -8.290  1.00  0.00     0.158 HD
ATOM     47  H5  UNL     1      20.461  77.603  -5.960  1.00  0.00     0.190 HD
ENDBRANCH  39  41
ENDBRANCH  32  39
ENDBRANCH  28  30
ENDBRANCH   2  28
TORSDOF 9
ENDMDL
