MODEL 1
REMARK VINA RESULT: -9.904624453      0.000      0.000
REMARK  8 active torsions:
REMARK  status: ('A' for Active; 'I' for Inactive)
REMARK    1  A    between atoms: C2_10  and  C3_11 
REMARK    2  A    between atoms: C4_14  and  C5_15 
REMARK    3  A    between atoms: C6_18  and  N5_19 
REMARK       I    between atoms: N5_19  and  C7_21 
REMARK    4  A    between atoms: C7_21  and  C8_23 
REMARK    5  A    between atoms: C9_26  and  C10_27 
REMARK    6  A    between atoms: C11_35  and  C12_36 
REMARK    7  A    between atoms: C12_36  and  O5_37 
REMARK    8  A    between atoms: C12_36  and  O6_39 
ROOT
HETATM    1  N5  UNL     1      13.577  78.962  -2.494  1.00  0.00    -0.325 N 
ATOM      2  H5  UNL     1      14.395  78.421  -2.214  1.00  0.00     0.165 HD
HETATM    3  C7  UNL     1      13.386  79.139  -3.875  1.00  0.00     0.295 C 
HETATM    4  O4  UNL     1      12.413  79.785  -4.342  1.00  0.00    -0.264 OA
ENDROOT
BRANCH   1   5
HETATM    5  C6  UNL     1      12.761  79.451  -1.454  1.00  0.00     0.265 C 
HETATM    6  C4  UNL     1      12.628  80.938  -1.355  1.00  0.00     0.234 C 
HETATM    7  N4  UNL     1      13.793  81.245  -0.550  1.00  0.00    -0.351 N 
HETATM    8  C3  UNL     1      14.108  80.201   0.136  1.00  0.00     0.174 C 
ATOM      9  H4  UNL     1      14.283  82.140  -0.530  1.00  0.00     0.162 HD
HETATM   10  O8  UNL     1      13.212  79.157  -0.147  1.00  0.00    -0.305 OA
BRANCH   6  11
HETATM   11  C5  UNL     1      11.415  81.369  -0.664  1.00  0.00     0.201 C 
HETATM   12  O2  UNL     1      10.509  80.548  -0.410  1.00  0.00    -0.646 OA
HETATM   13  O3  UNL     1      11.243  82.684  -0.277  1.00  0.00    -0.646 OA
ENDBRANCH   6  11
BRANCH   8  14
HETATM   14  C2  UNL     1      15.242  80.167   1.059  1.00  0.00     0.152 A 
HETATM   15  C1  UNL     1      15.251  79.718   2.360  1.00  0.00     0.154 A 
HETATM   16  N1  UNL     1      14.287  79.235   3.054  1.00  0.00    -0.382 N 
HETATM   17  N2  UNL     1      16.544  79.900   2.774  1.00  0.00    -0.224 N 
ATOM     18  H12 UNL     1      14.293  78.902   4.018  1.00  0.00     0.157 HD
ATOM     19  H11 UNL     1      13.324  79.100   2.746  1.00  0.00     0.157 HD
HETATM   20  O1  UNL     1      17.257  80.402   1.840  1.00  0.00    -0.155 OA
ATOM     21  H2  UNL     1      16.892  79.666   3.703  1.00  0.00     0.198 HD
HETATM   22  N3  UNL     1      16.500  80.572   0.800  1.00  0.00    -0.234 N 
ATOM     23  H3  UNL     1      16.814  80.958  -0.090  1.00  0.00     0.197 HD
ENDBRANCH   8  14
ENDBRANCH   1   5
BRANCH   3  24
HETATM   24  C8  UNL     1      14.311  78.576  -4.852  1.00  0.00     0.218 A 
HETATM   25  N6  UNL     1      15.654  78.618  -4.872  1.00  0.00    -0.327 N 
HETATM   26  C9  UNL     1      16.126  77.966  -5.965  1.00  0.00     0.116 A 
ATOM     27  H6  UNL     1      16.234  79.073  -4.168  1.00  0.00     0.168 HD
HETATM   28  C11 UNL     1      15.008  77.518  -6.618  1.00  0.00     0.140 A 
HETATM   29  O7  UNL     1      13.967  77.913  -5.906  1.00  0.00    -0.286 OA
BRANCH  26  30
HETATM   30  C10 UNL     1      17.548  77.844  -6.279  1.00  0.00     0.164 A 
HETATM   31  N7  UNL     1      18.463  77.187  -5.505  1.00  0.00    -0.270 N 
HETATM   32  N8  UNL     1      19.631  77.273  -6.054  1.00  0.00    -0.225 N 
ATOM     33  H7  UNL     1      18.257  76.705  -4.631  1.00  0.00     0.190 HD
HETATM   34  N9  UNL     1      19.540  77.967  -7.176  1.00  0.00    -0.005 NA
ATOM     35  H8  UNL     1      20.489  76.868  -5.680  1.00  0.00     0.205 HD
HETATM   36  N10 UNL     1      18.269  78.310  -7.303  1.00  0.00    -0.265 N 
ATOM     37  H10 UNL     1      17.891  78.855  -8.077  1.00  0.00     0.186 HD
ENDBRANCH  26  30
BRANCH  28  38
HETATM   38  C12 UNL     1      14.970  76.740  -7.874  1.00  0.00     0.315 C 
BRANCH  38  39
HETATM   39  O5  UNL     1      15.626  77.322  -8.943  1.00  0.00    -0.365 OA
ATOM     40  H5  UNL     1      16.529  77.049  -9.057  1.00  0.00     0.213 HD
ENDBRANCH  38  39
BRANCH  38  41
HETATM   41  O6  UNL     1      15.490  75.461  -7.710  1.00  0.00    -0.365 OA
ATOM     42  H6  UNL     1      16.256  75.316  -8.253  1.00  0.00     0.213 HD
ENDBRANCH  38  41
ENDBRANCH  28  38
ENDBRANCH   3  24
TORSDOF 8
ENDMDL
MODEL 2
REMARK VINA RESULT: -9.120495507      2.034      3.857
REMARK  8 active torsions:
REMARK  status: ('A' for Active; 'I' for Inactive)
REMARK    1  A    between atoms: C2_10  and  C3_11 
REMARK    2  A    between atoms: C4_14  and  C5_15 
REMARK    3  A    between atoms: C6_18  and  N5_19 
REMARK       I    between atoms: N5_19  and  C7_21 
REMARK    4  A    between atoms: C7_21  and  C8_23 
REMARK    5  A    between atoms: C9_26  and  C10_27 
REMARK    6  A    between atoms: C11_35  and  C12_36 
REMARK    7  A    between atoms: C12_36  and  O5_37 
REMARK    8  A    between atoms: C12_36  and  O6_39 
ROOT
HETATM    1  N5  UNL     1      15.141  79.426  -2.170  1.00  0.00    -0.325 N 
ATOM      2  H5  UNL     1      14.744  78.488  -2.226  1.00  0.00     0.165 HD
HETATM    3  C7  UNL     1      15.782  79.905  -3.325  1.00  0.00     0.295 C 
HETATM    4  O4  UNL     1      16.309  81.046  -3.379  1.00  0.00    -0.264 OA
ENDROOT
BRANCH   1   5
HETATM    5  C6  UNL     1      14.989  80.101  -0.942  1.00  0.00     0.265 C 
HETATM    6  C4  UNL     1      14.249  79.370   0.133  1.00  0.00     0.234 C 
HETATM    7  N4  UNL     1      12.887  79.731  -0.205  1.00  0.00    -0.351 N 
HETATM    8  C3  UNL     1      12.903  80.841  -0.858  1.00  0.00     0.174 C 
ATOM      9  H4  UNL     1      12.053  79.194   0.034  1.00  0.00     0.162 HD
HETATM   10  O8  UNL     1      14.226  81.290  -1.001  1.00  0.00    -0.305 OA
BRANCH   6  11
HETATM   11  C5  UNL     1      14.570  79.836   1.480  1.00  0.00     0.201 C 
HETATM   12  O2  UNL     1      13.701  79.818   2.378  1.00  0.00    -0.646 OA
HETATM   13  O3  UNL     1      15.832  80.303   1.791  1.00  0.00    -0.646 OA
ENDBRANCH   6  11
BRANCH   8  14
HETATM   14  C2  UNL     1      11.690  81.493  -1.353  1.00  0.00     0.152 A 
HETATM   15  C1  UNL     1      11.576  82.755  -1.888  1.00  0.00     0.154 A 
HETATM   16  N1  UNL     1      12.486  83.639  -2.074  1.00  0.00    -0.382 N 
HETATM   17  N2  UNL     1      10.246  82.877  -2.191  1.00  0.00    -0.224 N 
ATOM     18  H12 UNL     1      12.402  84.575  -2.470  1.00  0.00     0.157 HD
ATOM     19  H11 UNL     1      13.477  83.549  -1.849  1.00  0.00     0.157 HD
HETATM   20  O1  UNL     1       9.606  81.815  -1.881  1.00  0.00    -0.155 OA
ATOM     21  H2  UNL     1       9.821  83.706  -2.608  1.00  0.00     0.198 HD
HETATM   22  N3  UNL     1      10.451  80.968  -1.377  1.00  0.00    -0.234 N 
ATOM     23  H3  UNL     1      10.209  80.034  -1.046  1.00  0.00     0.197 HD
ENDBRANCH   8  14
ENDBRANCH   1   5
BRANCH   3  24
HETATM   24  C8  UNL     1      15.871  79.099  -4.539  1.00  0.00     0.218 A 
HETATM   25  N6  UNL     1      16.961  78.634  -5.171  1.00  0.00    -0.327 N 
HETATM   26  C9  UNL     1      16.597  77.925  -6.269  1.00  0.00     0.116 A 
ATOM     27  H6  UNL     1      17.922  78.791  -4.869  1.00  0.00     0.168 HD
HETATM   28  C11 UNL     1      15.228  77.973  -6.282  1.00  0.00     0.140 A 
HETATM   29  O7  UNL     1      14.862  78.685  -5.231  1.00  0.00    -0.286 OA
BRANCH  26  30
HETATM   30  C10 UNL     1      17.555  77.297  -7.177  1.00  0.00     0.164 A 
HETATM   31  N7  UNL     1      18.775  76.807  -6.804  1.00  0.00    -0.270 N 
HETATM   32  N8  UNL     1      19.381  76.328  -7.842  1.00  0.00    -0.225 N 
ATOM     33  H7  UNL     1      19.149  76.816  -5.855  1.00  0.00     0.190 HD
HETATM   34  N9  UNL     1      18.613  76.477  -8.908  1.00  0.00    -0.005 NA
ATOM     35  H8  UNL     1      20.308  75.901  -7.838  1.00  0.00     0.205 HD
HETATM   36  N10 UNL     1      17.505  77.067  -8.493  1.00  0.00    -0.265 N 
ATOM     37  H10 UNL     1      16.720  77.314  -9.094  1.00  0.00     0.186 HD
ENDBRANCH  26  30
BRANCH  28  38
HETATM   38  C12 UNL     1      14.330  77.349  -7.277  1.00  0.00     0.315 C 
BRANCH  38  39
HETATM   39  O5  UNL     1      14.303  77.972  -8.512  1.00  0.00    -0.365 OA
ATOM     40  H5  UNL     1      13.916  77.459  -9.212  1.00  0.00     0.213 HD
ENDBRANCH  38  39
BRANCH  38  41
HETATM   41  O6  UNL     1      14.639  76.012  -7.490  1.00  0.00    -0.365 OA
ATOM     42  H6  UNL     1      13.956  75.561  -7.973  1.00  0.00     0.213 HD
ENDBRANCH  38  41
ENDBRANCH  28  38
ENDBRANCH   3  24
TORSDOF 8
ENDMDL
MODEL 3
REMARK VINA RESULT: -9.050214946      2.398      4.264
REMARK  8 active torsions:
REMARK  status: ('A' for Active; 'I' for Inactive)
REMARK    1  A    between atoms: C2_10  and  C3_11 
REMARK    2  A    between atoms: C4_14  and  C5_15 
REMARK    3  A    between atoms: C6_18  and  N5_19 
REMARK       I    between atoms: N5_19  and  C7_21 
REMARK    4  A    between atoms: C7_21  and  C8_23 
REMARK    5  A    between atoms: C9_26  and  C10_27 
REMARK    6  A    between atoms: C11_35  and  C12_36 
REMARK    7  A    between atoms: C12_36  and  O5_37 
REMARK    8  A    between atoms: C12_36  and  O6_39 
ROOT
HETATM    1  N5  UNL     1      15.028  79.260  -3.014  1.00  0.00    -0.325 N 
ATOM      2  H5  UNL     1      14.617  78.331  -3.102  1.00  0.00     0.165 HD
HETATM    3  C7  UNL     1      15.869  79.676  -4.061  1.00  0.00     0.295 C 
HETATM    4  O4  UNL     1      16.432  80.800  -4.066  1.00  0.00    -0.264 OA
ENDROOT
BRANCH   1   5
HETATM    5  C6  UNL     1      14.691  79.989  -1.856  1.00  0.00     0.265 C 
HETATM    6  C4  UNL     1      13.790  79.306  -0.876  1.00  0.00     0.234 C 
HETATM    7  N4  UNL     1      12.499  79.649  -1.436  1.00  0.00    -0.351 N 
HETATM    8  C3  UNL     1      12.621  80.729  -2.128  1.00  0.00     0.174 C 
ATOM      9  H4  UNL     1      11.635  79.122  -1.305  1.00  0.00     0.162 HD
HETATM   10  O8  UNL     1      13.953  81.173  -2.084  1.00  0.00    -0.305 OA
BRANCH   6  11
HETATM   11  C5  UNL     1      13.902  79.832   0.482  1.00  0.00     0.201 C 
HETATM   12  O2  UNL     1      12.890  79.925   1.208  1.00  0.00    -0.646 OA
HETATM   13  O3  UNL     1      15.121  80.235   0.993  1.00  0.00    -0.646 OA
ENDBRANCH   6  11
BRANCH   8  14
HETATM   14  C2  UNL     1      11.503  81.355  -2.832  1.00  0.00     0.152 A 
HETATM   15  C1  UNL     1      11.566  82.267  -3.861  1.00  0.00     0.154 A 
HETATM   16  N1  UNL     1      12.597  82.772  -4.431  1.00  0.00    -0.382 N 
HETATM   17  N2  UNL     1      10.255  82.533  -4.160  1.00  0.00    -0.224 N 
ATOM     18  H12 UNL     1      12.644  83.447  -5.194  1.00  0.00     0.157 HD
ATOM     19  H11 UNL     1      13.573  82.573  -4.209  1.00  0.00     0.157 HD
HETATM   20  O1  UNL     1       9.469  81.866  -3.406  1.00  0.00    -0.155 OA
ATOM     21  H2  UNL     1       9.948  83.179  -4.887  1.00  0.00     0.198 HD
HETATM   22  N3  UNL     1      10.193  81.150  -2.600  1.00  0.00    -0.234 N 
ATOM     23  H3  UNL     1       9.821  80.519  -1.891  1.00  0.00     0.197 HD
ENDBRANCH   8  14
ENDBRANCH   1   5
BRANCH   3  24
HETATM   24  C8  UNL     1      16.136  78.818  -5.211  1.00  0.00     0.218 A 
HETATM   25  N6  UNL     1      17.266  78.172  -5.543  1.00  0.00    -0.327 N 
HETATM   26  C9  UNL     1      17.086  77.481  -6.698  1.00  0.00     0.116 A 
ATOM     27  H6  UNL     1      18.132  78.196  -5.006  1.00  0.00     0.168 HD
HETATM   28  C11 UNL     1      15.789  77.732  -7.061  1.00  0.00     0.140 A 
HETATM   29  O7  UNL     1      15.284  78.531  -6.137  1.00  0.00    -0.286 OA
BRANCH  26  30
HETATM   30  C10 UNL     1      18.134  76.683  -7.330  1.00  0.00     0.164 A 
HETATM   31  N7  UNL     1      19.425  76.601  -6.889  1.00  0.00    -0.270 N 
HETATM   32  N8  UNL     1      20.099  75.823  -7.672  1.00  0.00    -0.225 N 
ATOM     33  H7  UNL     1      19.798  77.079  -6.069  1.00  0.00     0.190 HD
HETATM   34  N9  UNL     1      19.309  75.374  -8.632  1.00  0.00    -0.005 NA
ATOM     35  H8  UNL     1      21.087  75.592  -7.566  1.00  0.00     0.205 HD
HETATM   36  N10 UNL     1      18.116  75.902  -8.415  1.00  0.00    -0.265 N 
ATOM     37  H10 UNL     1      17.295  75.737  -8.997  1.00  0.00     0.186 HD
ENDBRANCH  26  30
BRANCH  28  38
HETATM   38  C12 UNL     1      15.087  77.210  -8.252  1.00  0.00     0.315 C 
BRANCH  38  39
HETATM   39  O5  UNL     1      14.762  75.867  -8.197  1.00  0.00    -0.365 OA
ATOM     40  H5  UNL     1      15.280  75.353  -7.589  1.00  0.00     0.213 HD
ENDBRANCH  38  39
BRANCH  38  41
HETATM   41  O6  UNL     1      13.918  77.913  -8.516  1.00  0.00    -0.365 OA
ATOM     42  H6  UNL     1      13.781  78.038  -9.448  1.00  0.00     0.213 HD
ENDBRANCH  38  41
ENDBRANCH  28  38
ENDBRANCH   3  24
TORSDOF 8
ENDMDL
MODEL 4
REMARK VINA RESULT: -8.926612320      2.891      4.793
REMARK  8 active torsions:
REMARK  status: ('A' for Active; 'I' for Inactive)
REMARK    1  A    between atoms: C2_10  and  C3_11 
REMARK    2  A    between atoms: C4_14  and  C5_15 
REMARK    3  A    between atoms: C6_18  and  N5_19 
REMARK       I    between atoms: N5_19  and  C7_21 
REMARK    4  A    between atoms: C7_21  and  C8_23 
REMARK    5  A    between atoms: C9_26  and  C10_27 
REMARK    6  A    between atoms: C11_35  and  C12_36 
REMARK    7  A    between atoms: C12_36  and  O5_37 
REMARK    8  A    between atoms: C12_36  and  O6_39 
ROOT
HETATM    1  N5  UNL     1      14.024  80.039  -3.557  1.00  0.00    -0.325 N 
ATOM      2  H5  UNL     1      13.376  79.545  -4.169  1.00  0.00     0.165 HD
HETATM    3  C7  UNL     1      15.392  79.902  -3.850  1.00  0.00     0.295 C 
HETATM    4  O4  UNL     1      16.285  80.465  -3.167  1.00  0.00    -0.264 OA
ENDROOT
BRANCH   1   5
HETATM    5  C6  UNL     1      13.451  80.786  -2.507  1.00  0.00     0.265 C 
HETATM    6  C4  UNL     1      12.175  80.257  -1.932  1.00  0.00     0.234 C 
HETATM    7  N4  UNL     1      11.220  80.854  -2.844  1.00  0.00    -0.351 N 
HETATM    8  C3  UNL     1      11.745  81.910  -3.361  1.00  0.00     0.174 C 
ATOM      9  H4  UNL     1      10.285  80.496  -3.043  1.00  0.00     0.162 HD
HETATM   10  O8  UNL     1      13.042  82.094  -2.854  1.00  0.00    -0.305 OA
BRANCH   6  11
HETATM   11  C5  UNL     1      11.918  80.715  -0.569  1.00  0.00     0.201 C 
HETATM   12  O2  UNL     1      12.488  80.167   0.398  1.00  0.00    -0.646 OA
HETATM   13  O3  UNL     1      11.046  81.757  -0.318  1.00  0.00    -0.646 OA
ENDBRANCH   6  11
BRANCH   8  14
HETATM   14  C2  UNL     1      11.046  82.757  -4.328  1.00  0.00     0.152 A 
HETATM   15  C1  UNL     1      11.595  83.694  -5.172  1.00  0.00     0.154 A 
HETATM   16  N1  UNL     1      12.822  84.040  -5.306  1.00  0.00    -0.382 N 
HETATM   17  N2  UNL     1      10.524  84.199  -5.862  1.00  0.00    -0.224 N 
ATOM     18  H12 UNL     1      13.229  84.735  -5.932  1.00  0.00     0.157 HD
ATOM     19  H11 UNL     1      13.619  83.664  -4.793  1.00  0.00     0.157 HD
HETATM   20  O1  UNL     1       9.436  83.641  -5.491  1.00  0.00    -0.155 OA
ATOM     21  H2  UNL     1      10.587  84.924  -6.576  1.00  0.00     0.198 HD
HETATM   22  N3  UNL     1       9.722  82.771  -4.572  1.00  0.00    -0.234 N 
ATOM     23  H3  UNL     1       9.038  82.179  -4.099  1.00  0.00     0.197 HD
ENDBRANCH   8  14
ENDBRANCH   1   5
BRANCH   3  24
HETATM   24  C8  UNL     1      15.854  79.094  -4.973  1.00  0.00     0.218 A 
HETATM   25  N6  UNL     1      17.100  78.692  -5.273  1.00  0.00    -0.327 N 
HETATM   26  C9  UNL     1      17.091  77.953  -6.412  1.00  0.00     0.116 A 
ATOM     27  H6  UNL     1      17.932  78.911  -4.725  1.00  0.00     0.168 HD
HETATM   28  C11 UNL     1      15.777  77.917  -6.798  1.00  0.00     0.140 A 
HETATM   29  O7  UNL     1      15.098  78.612  -5.903  1.00  0.00    -0.286 OA
BRANCH  26  30
HETATM   30  C10 UNL     1      18.295  77.379  -7.009  1.00  0.00     0.164 A 
HETATM   31  N7  UNL     1      19.560  77.859  -6.826  1.00  0.00    -0.270 N 
HETATM   32  N8  UNL     1      20.397  77.136  -7.497  1.00  0.00    -0.225 N 
ATOM     33  H7  UNL     1      19.808  78.663  -6.249  1.00  0.00     0.190 HD
HETATM   34  N9  UNL     1      19.740  76.180  -8.132  1.00  0.00    -0.005 NA
ATOM     35  H8  UNL     1      21.406  77.281  -7.532  1.00  0.00     0.205 HD
HETATM   36  N10 UNL     1      18.463  76.336  -7.829  1.00  0.00    -0.265 N 
ATOM     37  H10 UNL     1      17.709  75.743  -8.173  1.00  0.00     0.186 HD
ENDBRANCH  26  30
BRANCH  28  38
HETATM   38  C12 UNL     1      15.222  77.231  -7.984  1.00  0.00     0.315 C 
BRANCH  38  39
HETATM   39  O5  UNL     1      14.867  75.910  -7.783  1.00  0.00    -0.365 OA
ATOM     40  H5  UNL     1      15.288  75.489  -7.043  1.00  0.00     0.213 HD
ENDBRANCH  38  39
BRANCH  38  41
HETATM   41  O6  UNL     1      14.110  77.891  -8.493  1.00  0.00    -0.365 OA
ATOM     42  H6  UNL     1      14.333  78.745  -8.845  1.00  0.00     0.213 HD
ENDBRANCH  38  41
ENDBRANCH  28  38
ENDBRANCH   3  24
TORSDOF 8
ENDMDL
MODEL 5
REMARK VINA RESULT: -8.914973272      2.259      8.534
REMARK  8 active torsions:
REMARK  status: ('A' for Active; 'I' for Inactive)
REMARK    1  A    between atoms: C2_10  and  C3_11 
REMARK    2  A    between atoms: C4_14  and  C5_15 
REMARK    3  A    between atoms: C6_18  and  N5_19 
REMARK       I    between atoms: N5_19  and  C7_21 
REMARK    4  A    between atoms: C7_21  and  C8_23 
REMARK    5  A    between atoms: C9_26  and  C10_27 
REMARK    6  A    between atoms: C11_35  and  C12_36 
REMARK    7  A    between atoms: C12_36  and  O5_37 
REMARK    8  A    between atoms: C12_36  and  O6_39 
ROOT
HETATM    1  N5  UNL     1      15.797  79.150  -5.001  1.00  0.00    -0.325 N 
ATOM      2  H5  UNL     1      16.774  79.185  -4.711  1.00  0.00     0.165 HD
HETATM    3  C7  UNL     1      14.843  79.518  -4.036  1.00  0.00     0.295 C 
HETATM    4  O4  UNL     1      13.609  79.517  -4.275  1.00  0.00    -0.264 OA
ENDROOT
BRANCH   1   5
HETATM    5  C6  UNL     1      15.548  78.738  -6.326  1.00  0.00     0.265 C 
HETATM    6  C4  UNL     1      15.271  77.282  -6.530  1.00  0.00     0.234 C 
HETATM    7  N4  UNL     1      16.625  76.781  -6.655  1.00  0.00    -0.351 N 
HETATM    8  C3  UNL     1      17.385  77.740  -7.056  1.00  0.00     0.174 C 
ATOM      9  H4  UNL     1      16.926  75.825  -6.459  1.00  0.00     0.162 HD
HETATM   10  O8  UNL     1      16.628  78.910  -7.222  1.00  0.00    -0.305 OA
BRANCH   6  11
HETATM   11  C5  UNL     1      14.518  76.998  -7.749  1.00  0.00     0.201 C 
HETATM   12  O2  UNL     1      14.398  75.824  -8.158  1.00  0.00    -0.646 OA
HETATM   13  O3  UNL     1      13.922  78.014  -8.472  1.00  0.00    -0.646 OA
ENDBRANCH   6  11
BRANCH   8  14
HETATM   14  C2  UNL     1      18.821  77.575  -7.287  1.00  0.00     0.152 A 
HETATM   15  C1  UNL     1      19.473  77.521  -8.497  1.00  0.00     0.154 A 
HETATM   16  N1  UNL     1      18.988  77.598  -9.681  1.00  0.00    -0.382 N 
HETATM   17  N2  UNL     1      20.793  77.360  -8.164  1.00  0.00    -0.224 N 
ATOM     18  H12 UNL     1      19.472  77.558 -10.578  1.00  0.00     0.157 HD
ATOM     19  H11 UNL     1      18.006  77.718  -9.929  1.00  0.00     0.157 HD
HETATM   20  O1  UNL     1      20.944  77.320  -6.896  1.00  0.00    -0.155 OA
ATOM     21  H2  UNL     1      21.554  77.282  -8.839  1.00  0.00     0.198 HD
HETATM   22  N3  UNL     1      19.775  77.447  -6.347  1.00  0.00    -0.234 N 
ATOM     23  H3  UNL     1      19.604  77.451  -5.341  1.00  0.00     0.197 HD
ENDBRANCH   8  14
ENDBRANCH   1   5
BRANCH   3  24
HETATM   24  C8  UNL     1      15.237  79.928  -2.692  1.00  0.00     0.218 A 
HETATM   25  N6  UNL     1      14.767  79.511  -1.505  1.00  0.00    -0.327 N 
HETATM   26  C9  UNL     1      15.411  80.151  -0.496  1.00  0.00     0.116 A 
ATOM     27  H6  UNL     1      14.033  78.813  -1.381  1.00  0.00     0.168 HD
HETATM   28  C11 UNL     1      16.303  80.983  -1.119  1.00  0.00     0.140 A 
HETATM   29  O7  UNL     1      16.148  80.802  -2.419  1.00  0.00    -0.286 OA
BRANCH  26  30
HETATM   30  C10 UNL     1      15.118  79.924   0.918  1.00  0.00     0.164 A 
HETATM   31  N7  UNL     1      13.885  79.617   1.418  1.00  0.00    -0.270 N 
HETATM   32  N8  UNL     1      13.961  79.491   2.704  1.00  0.00    -0.225 N 
ATOM     33  H7  UNL     1      13.035  79.504   0.865  1.00  0.00     0.190 HD
HETATM   34  N9  UNL     1      15.207  79.704   3.093  1.00  0.00    -0.005 NA
ATOM     35  H8  UNL     1      13.181  79.263   3.321  1.00  0.00     0.205 HD
HETATM   36  N10 UNL     1      15.902  79.966   2.000  1.00  0.00    -0.265 N 
ATOM     37  H10 UNL     1      16.900  80.173   1.984  1.00  0.00     0.186 HD
ENDBRANCH  26  30
BRANCH  28  38
HETATM   38  C12 UNL     1      17.258  81.904  -0.467  1.00  0.00     0.315 C 
BRANCH  38  39
HETATM   39  O5  UNL     1      18.180  81.297   0.366  1.00  0.00    -0.365 OA
ATOM     40  H5  UNL     1      19.051  81.200  -0.002  1.00  0.00     0.213 HD
ENDBRANCH  38  39
BRANCH  38  41
HETATM   41  O6  UNL     1      17.965  82.661  -1.393  1.00  0.00    -0.365 OA
ATOM     42  H6  UNL     1      17.924  83.590  -1.198  1.00  0.00     0.213 HD
ENDBRANCH  38  41
ENDBRANCH  28  38
ENDBRANCH   3  24
TORSDOF 8
ENDMDL
