MODEL 1
REMARK VINA RESULT: -6.463837343      0.000      0.000
REMARK  3 active torsions:
REMARK  status: ('A' for Active; 'I' for Inactive)
REMARK    1  A    between atoms: N1_1  and  C1_4 
REMARK    2  A    between atoms: C2_9  and  S1_10 
REMARK    3  A    between atoms: S1_10  and  C3_11 
ROOT
HETATM    1  C1  UNL     1      91.442   9.467  32.865  1.00  0.00     0.159 A 
HETATM    2  N2  UNL     1      90.172   9.051  32.847  1.00  0.00    -0.279 N 
ATOM      3  H2  UNL     1      89.947   8.075  32.651  1.00  0.00     0.189 HD
HETATM    4  N3  UNL     1      89.251   9.893  33.079  1.00  0.00    -0.286 N 
ATOM      5  H3  UNL     1      88.276   9.593  33.072  1.00  0.00     0.188 HD
HETATM    6  C2  UNL     1      89.548  11.157  33.330  1.00  0.00     0.134 A 
HETATM    7  S2  UNL     1      91.254  11.128  33.227  1.00  0.00    -0.026 SA
ENDROOT
BRANCH   6   8
HETATM    8  S1  UNL     1      88.391  12.492  33.679  1.00  0.00    -0.075 SA
BRANCH   8   9
HETATM    9  C3  UNL     1      88.117  12.505  35.441  1.00  0.00     0.058 C 
HETATM   10  C4  UNL     1      88.743  13.365  36.218  1.00  0.00    -0.040 C 
HETATM   11  C5  UNL     1      89.705  14.368  35.684  1.00  0.00     0.037 C 
HETATM   12  C9  UNL     1      88.547  13.416  37.701  1.00  0.00     0.199 C 
HETATM   13  C6  UNL     1      89.651  15.673  36.410  1.00  0.00     0.004 C 
HETATM   14  C7  UNL     1      88.494  15.897  37.287  1.00  0.00     0.003 C 
HETATM   15  C8  UNL     1      87.916  14.742  37.994  1.00  0.00     0.042 C 
HETATM   16  F1  UNL     1      87.663  12.418  38.066  1.00  0.00    -0.245 F 
ENDBRANCH   8   9
ENDBRANCH   6   8
BRANCH   1  17
HETATM   17  N1  UNL     1      92.525   8.758  32.653  1.00  0.00    -0.379 N 
ATOM     18  H12 UNL     1      92.826   7.871  33.056  1.00  0.00     0.158 HD
ATOM     19  H11 UNL     1      93.298   8.969  32.022  1.00  0.00     0.158 HD
ENDBRANCH   1  17
TORSDOF 3
ENDMDL
MODEL 2
REMARK VINA RESULT: -6.430681160      2.157      2.820
REMARK  3 active torsions:
REMARK  status: ('A' for Active; 'I' for Inactive)
REMARK    1  A    between atoms: N1_1  and  C1_4 
REMARK    2  A    between atoms: C2_9  and  S1_10 
REMARK    3  A    between atoms: S1_10  and  C3_11 
ROOT
HETATM    1  C1  UNL     1      91.594   8.474  34.067  1.00  0.00     0.159 A 
HETATM    2  N2  UNL     1      92.292   8.914  33.015  1.00  0.00    -0.279 N 
ATOM      3  H2  UNL     1      93.117   8.408  32.691  1.00  0.00     0.189 HD
HETATM    4  N3  UNL     1      91.910   9.972  32.428  1.00  0.00    -0.286 N 
ATOM      5  H3  UNL     1      92.429  10.321  31.623  1.00  0.00     0.188 HD
HETATM    6  C2  UNL     1      90.841  10.625  32.854  1.00  0.00     0.134 A 
HETATM    7  S2  UNL     1      90.361   9.655  34.176  1.00  0.00    -0.026 SA
ENDROOT
BRANCH   6   8
HETATM    8  S1  UNL     1      90.147  12.134  32.160  1.00  0.00    -0.075 SA
BRANCH   8   9
HETATM    9  C3  UNL     1      90.424  13.436  33.347  1.00  0.00     0.058 C 
HETATM   10  C4  UNL     1      89.579  13.644  34.336  1.00  0.00    -0.040 C 
HETATM   11  C5  UNL     1      88.356  12.816  34.526  1.00  0.00     0.037 C 
HETATM   12  C9  UNL     1      89.767  14.722  35.355  1.00  0.00     0.199 C 
HETATM   13  C6  UNL     1      88.028  12.582  35.964  1.00  0.00     0.004 C 
HETATM   14  C7  UNL     1      89.075  12.899  36.944  1.00  0.00     0.003 C 
HETATM   15  C8  UNL     1      89.978  14.028  36.665  1.00  0.00     0.042 C 
HETATM   16  F1  UNL     1      90.913  15.432  35.045  1.00  0.00    -0.245 F 
ENDBRANCH   8   9
ENDBRANCH   6   8
BRANCH   1  17
HETATM   17  N1  UNL     1      91.825   7.412  34.800  1.00  0.00    -0.379 N 
ATOM     18  H12 UNL     1      91.556   7.198  35.760  1.00  0.00     0.158 HD
ATOM     19  H11 UNL     1      92.339   6.570  34.539  1.00  0.00     0.158 HD
ENDBRANCH   1  17
TORSDOF 3
ENDMDL
MODEL 3
REMARK VINA RESULT: -6.418549542      3.866      4.976
REMARK  3 active torsions:
REMARK  status: ('A' for Active; 'I' for Inactive)
REMARK    1  A    between atoms: N1_1  and  C1_4 
REMARK    2  A    between atoms: C2_9  and  S1_10 
REMARK    3  A    between atoms: S1_10  and  C3_11 
ROOT
HETATM    1  C1  UNL     1      90.424   9.949  38.480  1.00  0.00     0.159 A 
HETATM    2  N2  UNL     1      89.935  10.931  39.244  1.00  0.00    -0.279 N 
ATOM      3  H2  UNL     1      90.056  10.911  40.257  1.00  0.00     0.189 HD
HETATM    4  N3  UNL     1      89.316  11.888  38.686  1.00  0.00    -0.286 N 
ATOM      5  H3  UNL     1      88.938  12.647  39.252  1.00  0.00     0.188 HD
HETATM    6  C2  UNL     1      89.160  11.907  37.372  1.00  0.00     0.134 A 
HETATM    7  S2  UNL     1      89.952  10.463  36.918  1.00  0.00    -0.026 SA
ENDROOT
BRANCH   6   8
HETATM    8  S1  UNL     1      88.318  13.168  36.401  1.00  0.00    -0.075 SA
BRANCH   8   9
HETATM    9  C3  UNL     1      88.413  12.669  34.692  1.00  0.00     0.058 C 
HETATM   10  C4  UNL     1      89.374  13.114  33.908  1.00  0.00    -0.040 C 
HETATM   11  C5  UNL     1      90.427  14.049  34.390  1.00  0.00     0.037 C 
HETATM   12  C9  UNL     1      89.497  12.725  32.468  1.00  0.00     0.199 C 
HETATM   13  C6  UNL     1      91.764  13.792  33.774  1.00  0.00     0.004 C 
HETATM   14  C7  UNL     1      91.932  12.516  33.064  1.00  0.00     0.003 C 
HETATM   15  C8  UNL     1      90.774  11.952  32.351  1.00  0.00     0.042 C 
HETATM   16  F1  UNL     1      88.445  11.888  32.143  1.00  0.00    -0.245 F 
ENDBRANCH   8   9
ENDBRANCH   6   8
BRANCH   1  17
HETATM   17  N1  UNL     1      91.087   8.884  38.864  1.00  0.00    -0.379 N 
ATOM     18  H12 UNL     1      91.897   8.793  39.476  1.00  0.00     0.158 HD
ATOM     19  H11 UNL     1      90.910   7.912  38.610  1.00  0.00     0.158 HD
ENDBRANCH   1  17
TORSDOF 3
ENDMDL
MODEL 4
REMARK VINA RESULT: -6.417600737      4.881      6.330
REMARK  3 active torsions:
REMARK  status: ('A' for Active; 'I' for Inactive)
REMARK    1  A    between atoms: N1_1  and  C1_4 
REMARK    2  A    between atoms: C2_9  and  S1_10 
REMARK    3  A    between atoms: S1_10  and  C3_11 
ROOT
HETATM    1  C1  UNL     1      91.647   7.369  39.334  1.00  0.00     0.159 A 
HETATM    2  N2  UNL     1      91.126   8.536  38.940  1.00  0.00    -0.279 N 
ATOM      3  H2  UNL     1      91.077   9.326  39.583  1.00  0.00     0.189 HD
HETATM    4  N3  UNL     1      90.695   8.641  37.751  1.00  0.00    -0.286 N 
ATOM      5  H3  UNL     1      90.297   9.524  37.432  1.00  0.00     0.188 HD
HETATM    6  C2  UNL     1      90.760   7.612  36.923  1.00  0.00     0.134 A 
HETATM    7  S2  UNL     1      91.486   6.426  37.916  1.00  0.00    -0.026 SA
ENDROOT
BRANCH   6   8
HETATM    8  S1  UNL     1      90.203   7.564  35.211  1.00  0.00    -0.075 SA
BRANCH   8   9
HETATM    9  C3  UNL     1      91.433   8.408  34.233  1.00  0.00     0.058 C 
HETATM   10  C4  UNL     1      91.090   9.351  33.379  1.00  0.00    -0.040 C 
HETATM   11  C5  UNL     1      89.676   9.768  33.178  1.00  0.00     0.037 C 
HETATM   12  C9  UNL     1      92.083  10.088  32.537  1.00  0.00     0.199 C 
HETATM   13  C6  UNL     1      89.530  11.233  32.919  1.00  0.00     0.004 C 
HETATM   14  C7  UNL     1      90.697  12.077  33.207  1.00  0.00     0.003 C 
HETATM   15  C8  UNL     1      92.040  11.515  32.990  1.00  0.00     0.042 C 
HETATM   16  F1  UNL     1      93.345   9.583  32.795  1.00  0.00    -0.245 F 
ENDBRANCH   8   9
ENDBRANCH   6   8
BRANCH   1  17
HETATM   17  N1  UNL     1      92.141   7.063  40.510  1.00  0.00    -0.379 N 
ATOM     18  H12 UNL     1      92.418   6.163  40.898  1.00  0.00     0.158 HD
ATOM     19  H11 UNL     1      92.345   7.693  41.286  1.00  0.00     0.158 HD
ENDBRANCH   1  17
TORSDOF 3
ENDMDL
MODEL 5
REMARK VINA RESULT: -6.385256510      4.690      5.917
REMARK  3 active torsions:
REMARK  status: ('A' for Active; 'I' for Inactive)
REMARK    1  A    between atoms: N1_1  and  C1_4 
REMARK    2  A    between atoms: C2_9  and  S1_10 
REMARK    3  A    between atoms: S1_10  and  C3_11 
ROOT
HETATM    1  C1  UNL     1      93.363   6.696  38.468  1.00  0.00     0.159 A 
HETATM    2  N2  UNL     1      93.065   7.646  39.360  1.00  0.00    -0.279 N 
ATOM      3  H2  UNL     1      93.503   7.651  40.281  1.00  0.00     0.189 HD
HETATM    4  N3  UNL     1      92.226   8.543  39.039  1.00  0.00    -0.286 N 
ATOM      5  H3  UNL     1      91.988   9.277  39.706  1.00  0.00     0.188 HD
HETATM    6  C2  UNL     1      91.658   8.531  37.844  1.00  0.00     0.134 A 
HETATM    7  S2  UNL     1      92.379   7.148  37.145  1.00  0.00    -0.026 SA
ENDROOT
BRANCH   6   8
HETATM    8  S1  UNL     1      90.452   9.706  37.207  1.00  0.00    -0.075 SA
BRANCH   8   9
HETATM    9  C3  UNL     1      90.289   9.398  35.458  1.00  0.00     0.058 C 
HETATM   10  C4  UNL     1      90.398  10.378  34.584  1.00  0.00    -0.040 C 
HETATM   11  C5  UNL     1      90.662  11.785  34.993  1.00  0.00     0.037 C 
HETATM   12  C9  UNL     1      90.269  10.172  33.108  1.00  0.00     0.199 C 
HETATM   13  C6  UNL     1      91.542  12.517  34.033  1.00  0.00     0.004 C 
HETATM   14  C7  UNL     1      92.262  11.706  33.042  1.00  0.00     0.003 C 
HETATM   15  C8  UNL     1      91.609  10.493  32.522  1.00  0.00     0.042 C 
HETATM   16  F1  UNL     1      89.994   8.837  32.869  1.00  0.00    -0.245 F 
ENDBRANCH   8   9
ENDBRANCH   6   8
BRANCH   1  17
HETATM   17  N1  UNL     1      94.197   5.694  38.608  1.00  0.00    -0.379 N 
ATOM     18  H12 UNL     1      94.524   5.215  39.447  1.00  0.00     0.158 HD
ATOM     19  H11 UNL     1      94.695   5.186  37.876  1.00  0.00     0.158 HD
ENDBRANCH   1  17
TORSDOF 3
ENDMDL
