MODEL 1
REMARK VINA RESULT: -6.598450578      0.000      0.000
REMARK  5 active torsions:
REMARK  status: ('A' for Active; 'I' for Inactive)
REMARK    1  A    between atoms: C2_2  and  N2_7 
REMARK    2  A    between atoms: N1_3  and  O1_5 
REMARK    3  A    between atoms: C7_12  and  C8_13 
REMARK    4  A    between atoms: C8_13  and  C9_15 
REMARK    5  A    between atoms: C11_18  and  O3_19 
ROOT
HETATM    1  N2  UNL     1      90.785   9.402  34.665  1.00  0.00    -0.283 N 
HETATM    2  C3  UNL     1      90.289  10.298  35.503  1.00  0.00     0.023 A 
HETATM    3  C4  UNL     1      89.642  10.028  36.834  1.00  0.00     0.069 C 
HETATM    4  C5  UNL     1      90.434  11.586  34.994  1.00  0.00    -0.021 A 
HETATM    5  C6  UNL     1      89.988  12.791  35.687  1.00  0.00     0.051 C 
HETATM    6  C7  UNL     1      91.056  11.452  33.777  1.00  0.00     0.072 A 
HETATM    7  C11 UNL     1      91.256  10.063  33.614  1.00  0.00     0.163 A 
ENDROOT
BRANCH   1   8
HETATM    8  C2  UNL     1      90.829   7.991  34.819  1.00  0.00     0.106 C 
HETATM    9  C1  UNL     1      89.646   7.170  34.472  1.00  0.00     0.091 C 
HETATM   10  N1  UNL     1      91.898   7.450  35.260  1.00  0.00    -0.257 N 
ATOM     11  H1  UNL     1      92.675   8.072  35.482  1.00  0.00     0.195 HD
BRANCH  10  12
HETATM   12  O1  UNL     1      92.093   6.124  35.461  1.00  0.00    -0.288 OA
ATOM     13  H1  UNL     1      91.951   5.436  34.821  1.00  0.00     0.244 HD
ENDBRANCH  10  12
ENDBRANCH   1   8
BRANCH   7  14
HETATM   14  O3  UNL     1      91.867   9.469  32.498  1.00  0.00    -0.345 OA
ATOM     15  H3  UNL     1      92.734   9.682  32.175  1.00  0.00     0.219 HD
ENDBRANCH   7  14
BRANCH   6  16
HETATM   16  C8  UNL     1      91.448  12.469  32.825  1.00  0.00     0.197 C 
HETATM   17  O2  UNL     1      92.707  12.640  32.654  1.00  0.00    -0.289 OA
BRANCH  16  18
HETATM   18  C9  UNL     1      90.573  13.317  32.043  1.00  0.00     0.240 C 
HETATM   19  C10 UNL     1      89.214  12.616  31.778  1.00  0.00     0.053 C 
HETATM   20  F1  UNL     1      90.213  14.481  32.731  1.00  0.00    -0.241 F 
ENDBRANCH  16  18
ENDBRANCH   6  16
TORSDOF 5
ENDMDL
MODEL 2
REMARK VINA RESULT: -6.397195430      2.646      3.550
REMARK  5 active torsions:
REMARK  status: ('A' for Active; 'I' for Inactive)
REMARK    1  A    between atoms: C2_2  and  N2_7 
REMARK    2  A    between atoms: N1_3  and  O1_5 
REMARK    3  A    between atoms: C7_12  and  C8_13 
REMARK    4  A    between atoms: C8_13  and  C9_15 
REMARK    5  A    between atoms: C11_18  and  O3_19 
ROOT
HETATM    1  N2  UNL     1      91.182   8.599  37.106  1.00  0.00    -0.283 N 
HETATM    2  C3  UNL     1      90.528   9.747  37.175  1.00  0.00     0.023 A 
HETATM    3  C4  UNL     1      90.141  10.491  38.424  1.00  0.00     0.069 C 
HETATM    4  C5  UNL     1      90.217  10.218  35.902  1.00  0.00    -0.021 A 
HETATM    5  C6  UNL     1      89.500  11.464  35.647  1.00  0.00     0.051 C 
HETATM    6  C7  UNL     1      90.716   9.294  35.017  1.00  0.00     0.072 A 
HETATM    7  C11 UNL     1      91.313   8.297  35.820  1.00  0.00     0.163 A 
ENDROOT
BRANCH   1   8
HETATM    8  C2  UNL     1      91.672   7.806  38.177  1.00  0.00     0.106 C 
HETATM    9  C1  UNL     1      92.976   8.127  38.802  1.00  0.00     0.091 C 
HETATM   10  N1  UNL     1      90.973   6.819  38.585  1.00  0.00    -0.257 N 
ATOM     11  H1  UNL     1      90.086   6.651  38.111  1.00  0.00     0.195 HD
BRANCH  10  12
HETATM   12  O1  UNL     1      91.303   5.973  39.591  1.00  0.00    -0.288 OA
ATOM     13  H1  UNL     1      90.731   5.696  40.297  1.00  0.00     0.244 HD
ENDBRANCH  10  12
ENDBRANCH   1   8
BRANCH   7  14
HETATM   14  O3  UNL     1      91.953   7.150  35.324  1.00  0.00    -0.345 OA
ATOM     15  H3  UNL     1      92.331   7.070  34.456  1.00  0.00     0.219 HD
ENDBRANCH   7  14
BRANCH   6  16
HETATM   16  C8  UNL     1      90.675   9.288  33.570  1.00  0.00     0.197 C 
HETATM   17  O2  UNL     1      89.628   8.785  33.028  1.00  0.00    -0.289 OA
BRANCH  16  18
HETATM   18  C9  UNL     1      91.689   9.789  32.666  1.00  0.00     0.240 C 
HETATM   19  C10 UNL     1      91.975  11.291  32.931  1.00  0.00     0.053 C 
HETATM   20  F1  UNL     1      92.930   9.176  32.873  1.00  0.00    -0.241 F 
ENDBRANCH  16  18
ENDBRANCH   6  16
TORSDOF 5
ENDMDL
MODEL 3
REMARK VINA RESULT: -6.384106079      2.235      3.181
REMARK  5 active torsions:
REMARK  status: ('A' for Active; 'I' for Inactive)
REMARK    1  A    between atoms: C2_2  and  N2_7 
REMARK    2  A    between atoms: N1_3  and  O1_5 
REMARK    3  A    between atoms: C7_12  and  C8_13 
REMARK    4  A    between atoms: C8_13  and  C9_15 
REMARK    5  A    between atoms: C11_18  and  O3_19 
ROOT
HETATM    1  N2  UNL     1      90.749   9.086  35.055  1.00  0.00    -0.283 N 
HETATM    2  C3  UNL     1      91.153   9.934  34.123  1.00  0.00     0.023 A 
HETATM    3  C4  UNL     1      91.861   9.594  32.840  1.00  0.00     0.069 C 
HETATM    4  C5  UNL     1      90.840  11.245  34.476  1.00  0.00    -0.021 A 
HETATM    5  C6  UNL     1      91.154  12.407  33.650  1.00  0.00     0.051 C 
HETATM    6  C7  UNL     1      90.210  11.176  35.694  1.00  0.00     0.072 A 
HETATM    7  C11 UNL     1      90.176   9.801  36.017  1.00  0.00     0.163 A 
ENDROOT
BRANCH   1   8
HETATM    8  C2  UNL     1      90.880   7.673  35.068  1.00  0.00     0.106 C 
HETATM    9  C1  UNL     1      89.791   6.822  34.536  1.00  0.00     0.091 C 
HETATM   10  N1  UNL     1      91.945   7.155  35.544  1.00  0.00    -0.257 N 
ATOM     11  H1  UNL     1      92.656   7.797  35.895  1.00  0.00     0.195 HD
BRANCH  10  12
HETATM   12  O1  UNL     1      92.218   5.830  35.625  1.00  0.00    -0.288 OA
ATOM     13  H1  UNL     1      91.865   5.227  36.268  1.00  0.00     0.244 HD
ENDBRANCH  10  12
ENDBRANCH   1   8
BRANCH   7  14
HETATM   14  O3  UNL     1      89.614   9.270  37.188  1.00  0.00    -0.345 OA
ATOM     15  H3  UNL     1      88.684   9.142  37.336  1.00  0.00     0.219 HD
ENDBRANCH   7  14
BRANCH   6  16
HETATM   16  C8  UNL     1      89.673  12.240  36.515  1.00  0.00     0.197 C 
HETATM   17  O2  UNL     1      90.191  12.385  37.678  1.00  0.00    -0.289 OA
BRANCH  16  18
HETATM   18  C9  UNL     1      88.612  13.162  36.165  1.00  0.00     0.240 C 
HETATM   19  C10 UNL     1      89.189  14.548  35.774  1.00  0.00     0.053 C 
HETATM   20  F1  UNL     1      87.920  12.759  35.018  1.00  0.00    -0.241 F 
ENDBRANCH  16  18
ENDBRANCH   6  16
TORSDOF 5
ENDMDL
MODEL 4
REMARK VINA RESULT: -6.365348529      4.040      6.573
REMARK  5 active torsions:
REMARK  status: ('A' for Active; 'I' for Inactive)
REMARK    1  A    between atoms: C2_2  and  N2_7 
REMARK    2  A    between atoms: N1_3  and  O1_5 
REMARK    3  A    between atoms: C7_12  and  C8_13 
REMARK    4  A    between atoms: C8_13  and  C9_15 
REMARK    5  A    between atoms: C11_18  and  O3_19 
ROOT
HETATM    1  N2  UNL     1      90.293   9.537  36.371  1.00  0.00    -0.283 N 
HETATM    2  C3  UNL     1      90.462   8.525  35.535  1.00  0.00     0.023 A 
HETATM    3  C4  UNL     1      90.064   8.476  34.085  1.00  0.00     0.069 C 
HETATM    4  C5  UNL     1      91.079   7.452  36.174  1.00  0.00    -0.021 A 
HETATM    5  C6  UNL     1      91.403   6.189  35.516  1.00  0.00     0.051 C 
HETATM    6  C7  UNL     1      91.291   7.847  37.472  1.00  0.00     0.072 A 
HETATM    7  C11 UNL     1      90.782   9.162  37.547  1.00  0.00     0.163 A 
ENDROOT
BRANCH   1   8
HETATM    8  C2  UNL     1      89.707  10.802  36.105  1.00  0.00     0.106 C 
HETATM    9  C1  UNL     1      90.491  11.852  35.414  1.00  0.00     0.091 C 
HETATM   10  N1  UNL     1      88.503  11.015  36.470  1.00  0.00    -0.257 N 
ATOM     11  H1  UNL     1      88.020  10.251  36.942  1.00  0.00     0.195 HD
BRANCH  10  12
HETATM   12  O1  UNL     1      87.808  12.165  36.289  1.00  0.00    -0.288 OA
ATOM     13  H1  UNL     1      87.383  12.672  36.969  1.00  0.00     0.244 HD
ENDBRANCH  10  12
ENDBRANCH   1   8
BRANCH   7  14
HETATM   14  O3  UNL     1      90.793   9.958  38.704  1.00  0.00    -0.345 OA
ATOM     15  H3  UNL     1      90.217  10.696  38.862  1.00  0.00     0.219 HD
ENDBRANCH   7  14
BRANCH   6  16
HETATM   16  C8  UNL     1      91.900   7.123  38.568  1.00  0.00     0.197 C 
HETATM   17  O2  UNL     1      91.144   6.851  39.566  1.00  0.00    -0.289 OA
BRANCH  16  18
HETATM   18  C9  UNL     1      93.273   6.670  38.659  1.00  0.00     0.240 C 
HETATM   19  C10 UNL     1      93.346   5.121  38.676  1.00  0.00     0.053 C 
HETATM   20  F1  UNL     1      94.021   7.023  37.530  1.00  0.00    -0.241 F 
ENDBRANCH  16  18
ENDBRANCH   6  16
TORSDOF 5
ENDMDL
MODEL 5
REMARK VINA RESULT: -6.302309595      4.318      5.975
REMARK  5 active torsions:
REMARK  status: ('A' for Active; 'I' for Inactive)
REMARK    1  A    between atoms: C2_2  and  N2_7 
REMARK    2  A    between atoms: N1_3  and  O1_5 
REMARK    3  A    between atoms: C7_12  and  C8_13 
REMARK    4  A    between atoms: C8_13  and  C9_15 
REMARK    5  A    between atoms: C11_18  and  O3_19 
ROOT
HETATM    1  N2  UNL     1      90.025  13.956  34.068  1.00  0.00    -0.283 N 
HETATM    2  C3  UNL     1      89.138  13.265  34.765  1.00  0.00     0.023 A 
HETATM    3  C4  UNL     1      88.513  11.951  34.380  1.00  0.00     0.069 C 
HETATM    4  C5  UNL     1      88.825  13.918  35.955  1.00  0.00    -0.021 A 
HETATM    5  C6  UNL     1      87.878  13.404  36.940  1.00  0.00     0.051 C 
HETATM    6  C7  UNL     1      89.571  15.070  35.970  1.00  0.00     0.072 A 
HETATM    7  C11 UNL     1      90.308  15.050  34.765  1.00  0.00     0.163 A 
ENDROOT
BRANCH   1   8
HETATM    8  C2  UNL     1      90.596  13.629  32.810  1.00  0.00     0.106 C 
HETATM    9  C1  UNL     1      91.802  12.770  32.743  1.00  0.00     0.091 C 
HETATM   10  N1  UNL     1      90.055  14.085  31.748  1.00  0.00    -0.257 N 
ATOM     11  H1  UNL     1      89.228  14.671  31.864  1.00  0.00     0.195 HD
BRANCH  10  12
HETATM   12  O1  UNL     1      90.480  13.863  30.480  1.00  0.00    -0.288 OA
ATOM     13  H1  UNL     1      89.924  13.743  29.719  1.00  0.00     0.244 HD
ENDBRANCH  10  12
ENDBRANCH   1   8
BRANCH   7  14
HETATM   14  O3  UNL     1      91.212  16.047  34.365  1.00  0.00    -0.345 OA
ATOM     15  H3  UNL     1      90.968  16.920  34.080  1.00  0.00     0.219 HD
ENDBRANCH   7  14
BRANCH   6  16
HETATM   16  C8  UNL     1      89.634  16.113  36.970  1.00  0.00     0.197 C 
HETATM   17  O2  UNL     1      90.797  16.580  37.241  1.00  0.00    -0.289 OA
BRANCH  16  18
HETATM   18  C9  UNL     1      88.525  16.690  37.702  1.00  0.00     0.240 C 
HETATM   19  C10 UNL     1      88.805  16.686  39.227  1.00  0.00     0.053 C 
HETATM   20  F1  UNL     1      88.344  18.046  37.404  1.00  0.00    -0.241 F 
ENDBRANCH  16  18
ENDBRANCH   6  16
TORSDOF 5
ENDMDL
