MODEL 1
REMARK VINA RESULT: -6.414926572      0.000      0.000
REMARK  4 active torsions:
REMARK  status: ('A' for Active; 'I' for Inactive)
REMARK    1  A    between atoms: C2_2  and  C4_4 
REMARK    2  A    between atoms: C4_4  and  N1_5 
REMARK    3  A    between atoms: C8_12  and  O1_14 
REMARK    4  A    between atoms: N2_16  and  O2_17 
ROOT
HETATM    1  N1  UNL     1      90.502   7.747  34.042  1.00  0.00    -0.368 N 
ATOM      2  H1  UNL     1      90.658   7.241  33.169  1.00  0.00     0.161 HD
HETATM    3  C5  UNL     1      90.461   9.033  34.036  1.00  0.00     0.170 C 
HETATM    4  S1  UNL     1      90.198  10.125  35.465  1.00  0.00    -0.051 SA
HETATM    5  C6  UNL     1      90.018  11.630  34.505  1.00  0.00     0.054 C 
HETATM    6  C7  UNL     1      90.105  12.834  35.021  1.00  0.00     0.104 C 
HETATM    7 CL1  UNL     1      89.921  14.301  34.038  1.00  0.00    -0.096 Cl
HETATM    8  C8  UNL     1      89.775  11.112  33.143  1.00  0.00     0.192 C 
HETATM    9  C9  UNL     1      89.995  12.115  32.051  1.00  0.00     0.080 C 
HETATM   10  N2  UNL     1      90.606   9.937  32.949  1.00  0.00    -0.198 N 
ENDROOT
BRANCH   1  11
HETATM   11  C4  UNL     1      90.331   7.021  35.264  1.00  0.00     0.125 C 
BRANCH  11  12
HETATM   12  C2  UNL     1      91.634   6.652  35.912  1.00  0.00    -0.005 C 
HETATM   13  C1  UNL     1      91.677   5.120  35.970  1.00  0.00     0.011 C 
HETATM   14  C3  UNL     1      91.730   7.155  37.334  1.00  0.00     0.011 C 
ENDBRANCH  11  12
ENDBRANCH   1  11
BRANCH  10  15
HETATM   15  O2  UNL     1      91.435   9.681  31.876  1.00  0.00    -0.282 OA
ATOM     16  H2  UNL     1      91.970   8.898  31.819  1.00  0.00     0.245 HD
ENDBRANCH  10  15
BRANCH   8  17
HETATM   17  O1  UNL     1      88.441  10.691  33.064  1.00  0.00    -0.365 OA
ATOM     18  H1  UNL     1      88.415   9.875  32.577  1.00  0.00     0.213 HD
ENDBRANCH   8  17
TORSDOF 4
ENDMDL
MODEL 2
REMARK VINA RESULT: -6.358333256      1.798      2.188
REMARK  4 active torsions:
REMARK  status: ('A' for Active; 'I' for Inactive)
REMARK    1  A    between atoms: C2_2  and  C4_4 
REMARK    2  A    between atoms: C4_4  and  N1_5 
REMARK    3  A    between atoms: C8_12  and  O1_14 
REMARK    4  A    between atoms: N2_16  and  O2_17 
ROOT
HETATM    1  N1  UNL     1      92.061   6.930  35.707  1.00  0.00    -0.368 N 
ATOM      2  H1  UNL     1      92.507   6.374  34.978  1.00  0.00     0.161 HD
HETATM    3  C5  UNL     1      91.499   8.048  35.405  1.00  0.00     0.170 C 
HETATM    4  S1  UNL     1      90.653   9.189  36.538  1.00  0.00    -0.051 SA
HETATM    5  C6  UNL     1      89.985  10.249  35.254  1.00  0.00     0.054 C 
HETATM    6  C7  UNL     1      89.514  11.453  35.481  1.00  0.00     0.104 C 
HETATM    7 CL1  UNL     1      88.860  12.474  34.184  1.00  0.00    -0.096 Cl
HETATM    8  C8  UNL     1      90.131   9.415  34.044  1.00  0.00     0.192 C 
HETATM    9  C9  UNL     1      90.044  10.174  32.755  1.00  0.00     0.080 C 
HETATM   10  N2  UNL     1      91.385   8.689  34.142  1.00  0.00    -0.198 N 
ENDROOT
BRANCH   1  11
HETATM   11  C4  UNL     1      92.063   6.462  37.060  1.00  0.00     0.125 C 
BRANCH  11  12
HETATM   12  C2  UNL     1      93.356   6.738  37.772  1.00  0.00    -0.005 C 
HETATM   13  C1  UNL     1      93.735   5.448  38.510  1.00  0.00     0.011 C 
HETATM   14  C3  UNL     1      93.217   7.824  38.814  1.00  0.00     0.011 C 
ENDBRANCH  11  12
ENDBRANCH   1  11
BRANCH  10  15
HETATM   15  O2  UNL     1      92.362   8.598  33.172  1.00  0.00    -0.282 OA
ATOM     16  H2  UNL     1      92.794   7.780  32.956  1.00  0.00     0.245 HD
ENDBRANCH  10  15
BRANCH   8  17
HETATM   17  O1  UNL     1      89.103   8.463  34.040  1.00  0.00    -0.365 OA
ATOM     18  H1  UNL     1      88.642   8.526  33.211  1.00  0.00     0.213 HD
ENDBRANCH   8  17
TORSDOF 4
ENDMDL
MODEL 3
REMARK VINA RESULT: -6.071116139      3.252      5.874
REMARK  4 active torsions:
REMARK  status: ('A' for Active; 'I' for Inactive)
REMARK    1  A    between atoms: C2_2  and  C4_4 
REMARK    2  A    between atoms: C4_4  and  N1_5 
REMARK    3  A    between atoms: C8_12  and  O1_14 
REMARK    4  A    between atoms: N2_16  and  O2_17 
ROOT
HETATM    1  N1  UNL     1      89.741  10.639  34.781  1.00  0.00    -0.368 N 
ATOM      2  H1  UNL     1      89.293  10.528  33.871  1.00  0.00     0.161 HD
HETATM    3  C5  UNL     1      90.076   9.599  35.460  1.00  0.00     0.170 C 
HETATM    4  S1  UNL     1      90.878   9.567  37.090  1.00  0.00    -0.051 SA
HETATM    5  C6  UNL     1      91.194   7.801  37.097  1.00  0.00     0.054 C 
HETATM    6  C7  UNL     1      91.498   7.124  38.180  1.00  0.00     0.104 C 
HETATM    7 CL1  UNL     1      91.804   5.375  38.147  1.00  0.00    -0.096 Cl
HETATM    8  C8  UNL     1      91.019   7.441  35.675  1.00  0.00     0.192 C 
HETATM    9  C9  UNL     1      90.812   5.977  35.429  1.00  0.00     0.080 C 
HETATM   10  N2  UNL     1      89.918   8.223  35.141  1.00  0.00    -0.198 N 
ENDROOT
BRANCH   1  11
HETATM   11  C4  UNL     1      89.994  11.952  35.294  1.00  0.00     0.125 C 
BRANCH  11  12
HETATM   12  C2  UNL     1      88.886  12.920  34.994  1.00  0.00    -0.005 C 
HETATM   13  C1  UNL     1      89.526  14.311  34.916  1.00  0.00     0.011 C 
HETATM   14  C3  UNL     1      87.852  12.966  36.096  1.00  0.00     0.011 C 
ENDBRANCH  11  12
ENDBRANCH   1  11
BRANCH  10  15
HETATM   15  O2  UNL     1      88.846   7.747  34.414  1.00  0.00    -0.282 OA
ATOM     16  H2  UNL     1      88.950   7.167  33.670  1.00  0.00     0.245 HD
ENDBRANCH  10  15
BRANCH   8  17
HETATM   17  O1  UNL     1      92.172   7.824  34.979  1.00  0.00    -0.365 OA
ATOM     18  H1  UNL     1      92.907   7.330  35.325  1.00  0.00     0.213 HD
ENDBRANCH   8  17
TORSDOF 4
ENDMDL
MODEL 4
REMARK VINA RESULT: -6.004266621      4.210      6.428
REMARK  4 active torsions:
REMARK  status: ('A' for Active; 'I' for Inactive)
REMARK    1  A    between atoms: C2_2  and  C4_4 
REMARK    2  A    between atoms: C4_4  and  N1_5 
REMARK    3  A    between atoms: C8_12  and  O1_14 
REMARK    4  A    between atoms: N2_16  and  O2_17 
ROOT
HETATM    1  N1  UNL     1      91.762   7.954  34.702  1.00  0.00    -0.368 N 
ATOM      2  H1  UNL     1      92.204   7.444  33.937  1.00  0.00     0.161 HD
HETATM    3  C5  UNL     1      91.797   7.473  35.895  1.00  0.00     0.170 C 
HETATM    4  S1  UNL     1      91.080   8.210  37.394  1.00  0.00    -0.051 SA
HETATM    5  C6  UNL     1      91.835   7.052  38.538  1.00  0.00     0.054 C 
HETATM    6  C7  UNL     1      91.436   6.896  39.779  1.00  0.00     0.104 C 
HETATM    7 CL1  UNL     1      92.208   5.738  40.882  1.00  0.00    -0.096 Cl
HETATM    8  C8  UNL     1      92.896   6.438  37.715  1.00  0.00     0.192 C 
HETATM    9  C9  UNL     1      93.430   5.146  38.257  1.00  0.00     0.080 C 
HETATM   10  N2  UNL     1      92.385   6.268  36.366  1.00  0.00    -0.198 N 
ENDROOT
BRANCH   1  11
HETATM   11  C4  UNL     1      91.108   9.201  34.442  1.00  0.00     0.125 C 
BRANCH  11  12
HETATM   12  C2  UNL     1      90.998   9.508  32.976  1.00  0.00    -0.005 C 
HETATM   13  C1  UNL     1      92.219  10.362  32.614  1.00  0.00     0.011 C 
HETATM   14  C3  UNL     1      89.769  10.326  32.652  1.00  0.00     0.011 C 
ENDBRANCH  11  12
ENDBRANCH   1  11
BRANCH  10  15
HETATM   15  O2  UNL     1      92.439   5.120  35.603  1.00  0.00    -0.282 OA
ATOM     16  H2  UNL     1      93.106   4.455  35.726  1.00  0.00     0.245 HD
ENDBRANCH  10  15
BRANCH   8  17
HETATM   17  O1  UNL     1      93.969   7.335  37.639  1.00  0.00    -0.365 OA
ATOM     18  H1  UNL     1      93.704   8.152  38.046  1.00  0.00     0.213 HD
ENDBRANCH   8  17
TORSDOF 4
ENDMDL
MODEL 5
REMARK VINA RESULT: -5.910417390      3.246      5.889
REMARK  4 active torsions:
REMARK  status: ('A' for Active; 'I' for Inactive)
REMARK    1  A    between atoms: C2_2  and  C4_4 
REMARK    2  A    between atoms: C4_4  and  N1_5 
REMARK    3  A    between atoms: C8_12  and  O1_14 
REMARK    4  A    between atoms: N2_16  and  O2_17 
ROOT
HETATM    1  N1  UNL     1      89.389  11.978  34.235  1.00  0.00    -0.368 N 
ATOM      2  H1  UNL     1      89.279  12.780  34.856  1.00  0.00     0.161 HD
HETATM    3  C5  UNL     1      89.941  10.902  34.672  1.00  0.00     0.170 C 
HETATM    4  S1  UNL     1      90.234   9.367  33.744  1.00  0.00    -0.051 SA
HETATM    5  C6  UNL     1      90.746   8.397  35.164  1.00  0.00     0.054 C 
HETATM    6  C7  UNL     1      91.384   7.254  35.069  1.00  0.00     0.104 C 
HETATM    7 CL1  UNL     1      91.876   6.322  36.498  1.00  0.00    -0.096 Cl
HETATM    8  C8  UNL     1      90.268   9.215  36.297  1.00  0.00     0.192 C 
HETATM    9  C9  UNL     1      90.903   8.881  37.614  1.00  0.00     0.080 C 
HETATM   10  N2  UNL     1      90.465  10.615  35.962  1.00  0.00    -0.198 N 
ENDROOT
BRANCH   1  11
HETATM   11  C4  UNL     1      88.926  12.058  32.882  1.00  0.00     0.125 C 
BRANCH  11  12
HETATM   12  C2  UNL     1      89.875  12.797  31.982  1.00  0.00    -0.005 C 
HETATM   13  C1  UNL     1      90.385  14.003  32.779  1.00  0.00     0.011 C 
HETATM   14  C3  UNL     1      89.191  13.335  30.746  1.00  0.00     0.011 C 
ENDBRANCH  11  12
ENDBRANCH   1  11
BRANCH  10  15
HETATM   15  O2  UNL     1      91.065  11.575  36.751  1.00  0.00    -0.282 OA
ATOM     16  H2  UNL     1      90.610  12.358  37.038  1.00  0.00     0.245 HD
ENDBRANCH  10  15
BRANCH   8  17
HETATM   17  O1  UNL     1      88.889   9.014  36.434  1.00  0.00    -0.365 OA
ATOM     18  H1  UNL     1      88.487   9.113  35.578  1.00  0.00     0.213 HD
ENDBRANCH   8  17
TORSDOF 4
ENDMDL
