MODEL 1
REMARK VINA RESULT: -6.127052629      0.000      0.000
REMARK  11 active torsions:
REMARK  status: ('A' for Active; 'I' for Inactive)
REMARK    1  A    between atoms: O1_1  and  C1_3 
REMARK    2  A    between atoms: C1_3  and  C2_4 
REMARK    3  A    between atoms: C3_6  and  N1_7 
REMARK    4  A    between atoms: N1_7  and  C4_10 
REMARK    5  A    between atoms: C4_10  and  C5_11 
REMARK    6  A    between atoms: C5_11  and  C6_12 
REMARK    7  A    between atoms: C6_12  and  N2_13 
REMARK    8  A    between atoms: N2_13  and  C7_15 
REMARK    9  A    between atoms: C13_21  and  O3_22 
REMARK   10  A    between atoms: C14_24  and  O4_25 
REMARK   11  A    between atoms: C15_27  and  O5_28 
ROOT
HETATM    1  C2  UNL     1      79.564  31.564  66.407  1.00  0.00     0.179 C 
HETATM    2  O2  UNL     1      78.387  31.041  66.041  1.00  0.00    -0.347 OA
HETATM    3  C3  UNL     1      77.272  31.786  65.890  1.00  0.00     0.353 C 
HETATM    4  C13 UNL     1      77.402  33.263  65.871  1.00  0.00     0.205 C 
HETATM    5  C14 UNL     1      78.323  33.674  67.009  1.00  0.00     0.182 C 
HETATM    6  C15 UNL     1      79.648  33.022  66.696  1.00  0.00     0.180 C 
ENDROOT
BRANCH   3   7
HETATM    7  N1  UNL     1      76.406  31.360  64.812  1.00  0.00    -0.046 N 
ATOM      8  H12 UNL     1      76.051  30.417  64.968  1.00  0.00     0.280 HD
ATOM      9  H11 UNL     1      75.519  31.865  64.822  1.00  0.00     0.280 HD
BRANCH   7  10
HETATM   10  C4  UNL     1      77.051  31.470  63.557  1.00  0.00     0.237 C 
BRANCH  10  11
HETATM   11  C5  UNL     1      76.220  32.097  62.479  1.00  0.00     0.047 C 
BRANCH  11  12
HETATM   12  C6  UNL     1      76.593  33.516  62.134  1.00  0.00     0.115 C 
BRANCH  12  13
HETATM   13  N2  UNL     1      75.696  34.345  62.877  1.00  0.00    -0.417 N 
ATOM     14  H2  UNL     1      75.358  34.069  63.799  1.00  0.00     0.153 HD
BRANCH  13  15
HETATM   15  C7  UNL     1      75.298  35.557  62.283  1.00  0.00     0.076 C 
HETATM   16  C8  UNL     1      75.774  36.742  63.137  1.00  0.00     0.024 C 
HETATM   17  C9  UNL     1      74.866  37.900  62.708  1.00  0.00     0.002 C 
HETATM   18  C10 UNL     1      75.196  38.235  61.282  1.00  0.00     0.000 C 
HETATM   19  C11 UNL     1      76.119  37.239  60.621  1.00  0.00     0.002 C 
HETATM   20  C12 UNL     1      75.721  35.801  60.888  1.00  0.00     0.024 C 
ENDBRANCH  13  15
ENDBRANCH  12  13
ENDBRANCH  11  12
ENDBRANCH  10  11
ENDBRANCH   7  10
ENDBRANCH   3   7
BRANCH   4  21
HETATM   21  O3  UNL     1      76.146  33.843  66.156  1.00  0.00    -0.388 OA
ATOM     22  H3  UNL     1      76.277  34.655  66.632  1.00  0.00     0.210 HD
ENDBRANCH   4  21
BRANCH   1  23
HETATM   23  C1  UNL     1      80.003  30.838  67.691  1.00  0.00     0.198 C 
BRANCH  23  24
HETATM   24  O1  UNL     1      80.186  31.745  68.728  1.00  0.00    -0.398 OA
ATOM     25  H1  UNL     1      81.097  31.770  68.994  1.00  0.00     0.209 HD
ENDBRANCH  23  24
ENDBRANCH   1  23
BRANCH   5  26
HETATM   26  O4  UNL     1      77.890  33.284  68.248  1.00  0.00    -0.390 OA
ATOM     27  H4  UNL     1      78.536  32.801  68.750  1.00  0.00     0.210 HD
ENDBRANCH   5  26
BRANCH   6  28
HETATM   28  O5  UNL     1      80.201  33.736  65.605  1.00  0.00    -0.390 OA
ATOM     29  H5  UNL     1      79.796  33.485  64.783  1.00  0.00     0.210 HD
ENDBRANCH   6  28
TORSDOF 11
ENDMDL
MODEL 2
REMARK VINA RESULT: -6.012282450      0.333      1.105
REMARK  11 active torsions:
REMARK  status: ('A' for Active; 'I' for Inactive)
REMARK    1  A    between atoms: O1_1  and  C1_3 
REMARK    2  A    between atoms: C1_3  and  C2_4 
REMARK    3  A    between atoms: C3_6  and  N1_7 
REMARK    4  A    between atoms: N1_7  and  C4_10 
REMARK    5  A    between atoms: C4_10  and  C5_11 
REMARK    6  A    between atoms: C5_11  and  C6_12 
REMARK    7  A    between atoms: C6_12  and  N2_13 
REMARK    8  A    between atoms: N2_13  and  C7_15 
REMARK    9  A    between atoms: C13_21  and  O3_22 
REMARK   10  A    between atoms: C14_24  and  O4_25 
REMARK   11  A    between atoms: C15_27  and  O5_28 
ROOT
HETATM    1  C2  UNL     1      79.564  31.574  66.386  1.00  0.00     0.179 C 
HETATM    2  O2  UNL     1      78.393  31.026  66.036  1.00  0.00    -0.347 OA
HETATM    3  C3  UNL     1      77.262  31.749  65.893  1.00  0.00     0.353 C 
HETATM    4  C13 UNL     1      77.364  33.228  65.861  1.00  0.00     0.205 C 
HETATM    5  C14 UNL     1      78.289  33.665  66.985  1.00  0.00     0.182 C 
HETATM    6  C15 UNL     1      79.623  33.036  66.663  1.00  0.00     0.180 C 
ENDROOT
BRANCH   3   7
HETATM    7  N1  UNL     1      76.393  31.297  64.827  1.00  0.00    -0.046 N 
ATOM      8  H12 UNL     1      75.994  30.382  65.033  1.00  0.00     0.280 HD
ATOM      9  H11 UNL     1      75.530  31.841  64.793  1.00  0.00     0.280 HD
BRANCH   7  10
HETATM   10  C4  UNL     1      77.059  31.304  63.579  1.00  0.00     0.237 C 
BRANCH  10  11
HETATM   11  C5  UNL     1      76.259  31.869  62.445  1.00  0.00     0.047 C 
BRANCH  11  12
HETATM   12  C6  UNL     1      76.626  33.277  62.050  1.00  0.00     0.115 C 
BRANCH  12  13
HETATM   13  N2  UNL     1      75.862  34.131  62.905  1.00  0.00    -0.417 N 
ATOM     14  H2  UNL     1      75.316  33.756  63.681  1.00  0.00     0.153 HD
BRANCH  13  15
HETATM   15  C7  UNL     1      75.896  35.512  62.632  1.00  0.00     0.076 C 
HETATM   16  C8  UNL     1      75.262  35.792  61.260  1.00  0.00     0.024 C 
HETATM   17  C9  UNL     1      75.820  37.163  60.865  1.00  0.00     0.002 C 
HETATM   18  C10 UNL     1      75.256  38.179  61.816  1.00  0.00     0.000 C 
HETATM   19  C11 UNL     1      74.518  37.571  62.986  1.00  0.00     0.002 C 
HETATM   20  C12 UNL     1      75.266  36.415  63.618  1.00  0.00     0.024 C 
ENDBRANCH  13  15
ENDBRANCH  12  13
ENDBRANCH  11  12
ENDBRANCH  10  11
ENDBRANCH   7  10
ENDBRANCH   3   7
BRANCH   4  21
HETATM   21  O3  UNL     1      76.100  33.786  66.155  1.00  0.00    -0.388 OA
ATOM     22  H3  UNL     1      76.164  34.303  66.949  1.00  0.00     0.210 HD
ENDBRANCH   4  21
BRANCH   1  23
HETATM   23  C1  UNL     1      80.030  30.867  67.671  1.00  0.00     0.198 C 
BRANCH  23  24
HETATM   24  O1  UNL     1      80.278  31.793  68.677  1.00  0.00    -0.398 OA
ATOM     25  H1  UNL     1      80.676  32.578  68.319  1.00  0.00     0.209 HD
ENDBRANCH  23  24
ENDBRANCH   1  23
BRANCH   5  26
HETATM   26  O4  UNL     1      77.877  33.276  68.232  1.00  0.00    -0.390 OA
ATOM     27  H4  UNL     1      78.467  32.669  68.664  1.00  0.00     0.210 HD
ENDBRANCH   5  26
BRANCH   6  28
HETATM   28  O5  UNL     1      80.151  33.752  65.560  1.00  0.00    -0.390 OA
ATOM     29  H5  UNL     1      79.966  34.682  65.628  1.00  0.00     0.210 HD
ENDBRANCH   6  28
TORSDOF 11
ENDMDL
MODEL 3
REMARK VINA RESULT: -5.755003547      1.699      3.039
REMARK  11 active torsions:
REMARK  status: ('A' for Active; 'I' for Inactive)
REMARK    1  A    between atoms: O1_1  and  C1_3 
REMARK    2  A    between atoms: C1_3  and  C2_4 
REMARK    3  A    between atoms: C3_6  and  N1_7 
REMARK    4  A    between atoms: N1_7  and  C4_10 
REMARK    5  A    between atoms: C4_10  and  C5_11 
REMARK    6  A    between atoms: C5_11  and  C6_12 
REMARK    7  A    between atoms: C6_12  and  N2_13 
REMARK    8  A    between atoms: N2_13  and  C7_15 
REMARK    9  A    between atoms: C13_21  and  O3_22 
REMARK   10  A    between atoms: C14_24  and  O4_25 
REMARK   11  A    between atoms: C15_27  and  O5_28 
ROOT
HETATM    1  C2  UNL     1      77.120  31.901  65.237  1.00  0.00     0.179 C 
HETATM    2  O2  UNL     1      77.258  31.788  63.910  1.00  0.00    -0.347 OA
HETATM    3  C3  UNL     1      78.460  31.668  63.309  1.00  0.00     0.353 C 
HETATM    4  C13 UNL     1      79.650  31.388  64.149  1.00  0.00     0.205 C 
HETATM    5  C14 UNL     1      79.605  32.308  65.358  1.00  0.00     0.182 C 
HETATM    6  C15 UNL     1      78.340  31.931  66.091  1.00  0.00     0.180 C 
ENDROOT
BRANCH   3   7
HETATM    7  N1  UNL     1      78.468  30.801  62.150  1.00  0.00    -0.046 N 
ATOM      8  H12 UNL     1      79.237  30.133  62.188  1.00  0.00     0.280 HD
ATOM      9  H11 UNL     1      77.687  30.144  62.169  1.00  0.00     0.280 HD
BRANCH   7  10
HETATM   10  C4  UNL     1      78.488  31.547  60.947  1.00  0.00     0.237 C 
BRANCH  10  11
HETATM   11  C5  UNL     1      77.152  32.062  60.507  1.00  0.00     0.047 C 
BRANCH  11  12
HETATM   12  C6  UNL     1      77.008  33.562  60.539  1.00  0.00     0.115 C 
BRANCH  12  13
HETATM   13  N2  UNL     1      76.222  33.852  61.697  1.00  0.00    -0.417 N 
ATOM     14  H2  UNL     1      76.086  33.160  62.435  1.00  0.00     0.153 HD
BRANCH  13  15
HETATM   15  C7  UNL     1      75.643  35.133  61.778  1.00  0.00     0.076 C 
HETATM   16  C8  UNL     1      76.353  35.963  62.859  1.00  0.00     0.024 C 
HETATM   17  C9  UNL     1      75.344  37.062  63.208  1.00  0.00     0.002 C 
HETATM   18  C10 UNL     1      75.200  37.950  62.005  1.00  0.00     0.000 C 
HETATM   19  C11 UNL     1      75.876  37.410  60.767  1.00  0.00     0.002 C 
HETATM   20  C12 UNL     1      75.599  35.938  60.540  1.00  0.00     0.024 C 
ENDBRANCH  13  15
ENDBRANCH  12  13
ENDBRANCH  11  12
ENDBRANCH  10  11
ENDBRANCH   7  10
ENDBRANCH   3   7
BRANCH   4  21
HETATM   21  O3  UNL     1      80.815  31.740  63.433  1.00  0.00    -0.388 OA
ATOM     22  H3  UNL     1      80.927  32.683  63.462  1.00  0.00     0.210 HD
ENDBRANCH   4  21
BRANCH   1  23
HETATM   23  C1  UNL     1      76.367  33.216  65.505  1.00  0.00     0.198 C 
BRANCH  23  24
HETATM   24  O1  UNL     1      75.190  33.265  64.768  1.00  0.00    -0.398 OA
ATOM     25  H1  UNL     1      74.778  34.117  64.849  1.00  0.00     0.209 HD
ENDBRANCH  23  24
ENDBRANCH   1  23
BRANCH   5  26
HETATM   26  O4  UNL     1      79.586  33.641  65.047  1.00  0.00    -0.390 OA
ATOM     27  H4  UNL     1      78.872  33.896  64.475  1.00  0.00     0.210 HD
ENDBRANCH   5  26
BRANCH   6  28
HETATM   28  O5  UNL     1      78.582  30.673  66.694  1.00  0.00    -0.390 OA
ATOM     29  H5  UNL     1      78.635  30.744  67.640  1.00  0.00     0.210 HD
ENDBRANCH   6  28
TORSDOF 11
ENDMDL
MODEL 4
REMARK VINA RESULT: -5.752810730      2.925      7.311
REMARK  11 active torsions:
REMARK  status: ('A' for Active; 'I' for Inactive)
REMARK    1  A    between atoms: O1_1  and  C1_3 
REMARK    2  A    between atoms: C1_3  and  C2_4 
REMARK    3  A    between atoms: C3_6  and  N1_7 
REMARK    4  A    between atoms: N1_7  and  C4_10 
REMARK    5  A    between atoms: C4_10  and  C5_11 
REMARK    6  A    between atoms: C5_11  and  C6_12 
REMARK    7  A    between atoms: C6_12  and  N2_13 
REMARK    8  A    between atoms: N2_13  and  C7_15 
REMARK    9  A    between atoms: C13_21  and  O3_22 
REMARK   10  A    between atoms: C14_24  and  O4_25 
REMARK   11  A    between atoms: C15_27  and  O5_28 
ROOT
HETATM    1  C2  UNL     1      76.227  36.491  62.885  1.00  0.00     0.179 C 
HETATM    2  O2  UNL     1      75.506  35.585  63.558  1.00  0.00    -0.347 OA
HETATM    3  C3  UNL     1      75.507  34.273  63.246  1.00  0.00     0.353 C 
HETATM    4  C13 UNL     1      76.532  33.768  62.300  1.00  0.00     0.205 C 
HETATM    5  C14 UNL     1      76.607  34.728  61.124  1.00  0.00     0.182 C 
HETATM    6  C15 UNL     1      77.040  36.046  61.719  1.00  0.00     0.180 C 
ENDROOT
BRANCH   3   7
HETATM    7  N1  UNL     1      75.415  33.385  64.384  1.00  0.00    -0.046 N 
ATOM      8  H12 UNL     1      74.520  33.481  64.863  1.00  0.00     0.280 HD
ATOM      9  H11 UNL     1      75.334  32.410  64.093  1.00  0.00     0.280 HD
BRANCH   7  10
HETATM   10  C4  UNL     1      76.501  33.570  65.274  1.00  0.00     0.237 C 
BRANCH  10  11
HETATM   11  C5  UNL     1      76.935  32.333  65.999  1.00  0.00     0.047 C 
BRANCH  11  12
HETATM   12  C6  UNL     1      78.202  31.704  65.477  1.00  0.00     0.115 C 
BRANCH  12  13
HETATM   13  N2  UNL     1      78.716  30.915  66.553  1.00  0.00    -0.417 N 
ATOM     14  H2  UNL     1      78.105  30.325  67.118  1.00  0.00     0.153 HD
BRANCH  13  15
HETATM   15  C7  UNL     1      80.100  30.988  66.800  1.00  0.00     0.076 C 
HETATM   16  C8  UNL     1      80.539  32.457  66.899  1.00  0.00     0.024 C 
HETATM   17  C9  UNL     1      82.048  32.414  66.636  1.00  0.00     0.002 C 
HETATM   18  C10 UNL     1      82.692  31.691  67.784  1.00  0.00     0.000 C 
HETATM   19  C11 UNL     1      81.705  31.033  68.719  1.00  0.00     0.002 C 
HETATM   20  C12 UNL     1      80.617  30.276  67.987  1.00  0.00     0.024 C 
ENDBRANCH  13  15
ENDBRANCH  12  13
ENDBRANCH  11  12
ENDBRANCH  10  11
ENDBRANCH   7  10
ENDBRANCH   3   7
BRANCH   4  21
HETATM   21  O3  UNL     1      76.104  32.531  61.770  1.00  0.00    -0.388 OA
ATOM     22  H3  UNL     1      76.047  32.600  60.824  1.00  0.00     0.210 HD
ENDBRANCH   4  21
BRANCH   1  23
HETATM   23  C1  UNL     1      75.244  37.549  62.354  1.00  0.00     0.198 C 
BRANCH  23  24
HETATM   24  O1  UNL     1      74.466  38.057  63.387  1.00  0.00    -0.398 OA
ATOM     25  H1  UNL     1      73.565  37.771  63.300  1.00  0.00     0.209 HD
ENDBRANCH  23  24
ENDBRANCH   1  23
BRANCH   5  26
HETATM   26  O4  UNL     1      75.424  34.884  60.452  1.00  0.00    -0.390 OA
ATOM     27  H4  UNL     1      75.002  35.723  60.598  1.00  0.00     0.210 HD
ENDBRANCH   5  26
BRANCH   6  28
HETATM   28  O5  UNL     1      78.406  35.904  62.063  1.00  0.00    -0.390 OA
ATOM     29  H5  UNL     1      78.624  34.999  62.257  1.00  0.00     0.210 HD
ENDBRANCH   6  28
TORSDOF 11
ENDMDL
MODEL 5
REMARK VINA RESULT: -5.739937273      2.910      7.183
REMARK  11 active torsions:
REMARK  status: ('A' for Active; 'I' for Inactive)
REMARK    1  A    between atoms: O1_1  and  C1_3 
REMARK    2  A    between atoms: C1_3  and  C2_4 
REMARK    3  A    between atoms: C3_6  and  N1_7 
REMARK    4  A    between atoms: N1_7  and  C4_10 
REMARK    5  A    between atoms: C4_10  and  C5_11 
REMARK    6  A    between atoms: C5_11  and  C6_12 
REMARK    7  A    between atoms: C6_12  and  N2_13 
REMARK    8  A    between atoms: N2_13  and  C7_15 
REMARK    9  A    between atoms: C13_21  and  O3_22 
REMARK   10  A    between atoms: C14_24  and  O4_25 
REMARK   11  A    between atoms: C15_27  and  O5_28 
ROOT
HETATM    1  C2  UNL     1      76.300  36.525  62.927  1.00  0.00     0.179 C 
HETATM    2  O2  UNL     1      75.653  35.623  63.675  1.00  0.00    -0.347 OA
HETATM    3  C3  UNL     1      75.626  34.308  63.374  1.00  0.00     0.353 C 
HETATM    4  C13 UNL     1      76.553  33.799  62.334  1.00  0.00     0.205 C 
HETATM    5  C14 UNL     1      76.507  34.750  61.149  1.00  0.00     0.182 C 
HETATM    6  C15 UNL     1      76.993  36.073  61.689  1.00  0.00     0.180 C 
ENDROOT
BRANCH   3   7
HETATM    7  N1  UNL     1      75.652  33.428  64.522  1.00  0.00    -0.046 N 
ATOM      8  H12 UNL     1      74.820  33.544  65.100  1.00  0.00     0.280 HD
ATOM      9  H11 UNL     1      75.519  32.454  64.250  1.00  0.00     0.280 HD
BRANCH   7  10
HETATM   10  C4  UNL     1      76.837  33.598  65.278  1.00  0.00     0.237 C 
BRANCH  10  11
HETATM   11  C5  UNL     1      76.634  33.629  66.762  1.00  0.00     0.047 C 
BRANCH  11  12
HETATM   12  C6  UNL     1      77.903  33.646  67.575  1.00  0.00     0.115 C 
BRANCH  12  13
HETATM   13  N2  UNL     1      78.655  32.508  67.147  1.00  0.00    -0.417 N 
ATOM     14  H2  UNL     1      78.200  31.699  66.724  1.00  0.00     0.153 HD
BRANCH  13  15
HETATM   15  C7  UNL     1      80.050  32.550  67.334  1.00  0.00     0.076 C 
HETATM   16  C8  UNL     1      80.556  31.182  67.815  1.00  0.00     0.024 C 
HETATM   17  C9  UNL     1      81.908  31.493  68.466  1.00  0.00     0.002 C 
HETATM   18  C10 UNL     1      82.845  31.944  67.382  1.00  0.00     0.000 C 
HETATM   19  C11 UNL     1      82.168  32.181  66.053  1.00  0.00     0.002 C 
HETATM   20  C12 UNL     1      80.877  32.964  66.181  1.00  0.00     0.024 C 
ENDBRANCH  13  15
ENDBRANCH  12  13
ENDBRANCH  11  12
ENDBRANCH  10  11
ENDBRANCH   7  10
ENDBRANCH   3   7
BRANCH   4  21
HETATM   21  O3  UNL     1      76.078  32.557  61.858  1.00  0.00    -0.388 OA
ATOM     22  H3  UNL     1      76.228  31.891  62.519  1.00  0.00     0.210 HD
ENDBRANCH   4  21
BRANCH   1  23
HETATM   23  C1  UNL     1      75.265  37.577  62.489  1.00  0.00     0.198 C 
BRANCH  23  24
HETATM   24  O1  UNL     1      74.318  37.777  63.486  1.00  0.00    -0.398 OA
ATOM     25  H1  UNL     1      74.281  37.026  64.067  1.00  0.00     0.209 HD
ENDBRANCH  23  24
ENDBRANCH   1  23
BRANCH   5  26
HETATM   26  O4  UNL     1      75.262  34.898  60.598  1.00  0.00    -0.390 OA
ATOM     27  H4  UNL     1      74.874  35.754  60.739  1.00  0.00     0.210 HD
ENDBRANCH   5  26
BRANCH   6  28
HETATM   28  O5  UNL     1      78.388  35.937  61.895  1.00  0.00    -0.390 OA
ATOM     29  H5  UNL     1      78.714  36.588  62.506  1.00  0.00     0.210 HD
ENDBRANCH   6  28
TORSDOF 11
ENDMDL
