MODEL 1
REMARK VINA RESULT: -6.263363837      0.000      0.000
REMARK  11 active torsions:
REMARK  status: ('A' for Active; 'I' for Inactive)
REMARK    1  A    between atoms: C2_2  and  C3_3 
REMARK    2  A    between atoms: C3_3  and  C4_4 
REMARK    3  A    between atoms: C4_4  and  N1_5 
REMARK    4  A    between atoms: N1_5  and  C5_7 
REMARK    5  A    between atoms: C7_9  and  N2_10 
REMARK    6  A    between atoms: C8_14  and  C9_15 
REMARK    7  A    between atoms: C9_15  and  O1_16 
REMARK    8  A    between atoms: O1_16  and  C10_17 
REMARK    9  A    between atoms: C14_23  and  N4_24 
REMARK   10  A    between atoms: C15_28  and  O2_29 
REMARK   11  A    between atoms: C16_31  and  O3_32 
ROOT
HETATM    1  C5  UNL     1      75.582  33.501  63.328  1.00  0.00     0.110 C 
HETATM    2  C6  UNL     1      76.030  34.018  64.635  1.00  0.00     0.065 C 
HETATM    3  C7  UNL     1      77.251  33.494  65.266  1.00  0.00     0.219 C 
HETATM    4  C8  UNL     1      77.700  32.136  64.879  1.00  0.00     0.003 C 
HETATM    5  C15 UNL     1      76.793  31.468  63.865  1.00  0.00     0.181 C 
HETATM    6  C16 UNL     1      76.625  32.485  62.772  1.00  0.00     0.173 C 
ENDROOT
BRANCH   4   7
HETATM    7  C9  UNL     1      78.166  31.225  65.988  1.00  0.00     0.145 C 
BRANCH   7   8
HETATM    8  O1  UNL     1      79.151  31.396  66.703  1.00  0.00    -0.335 OA
BRANCH   8   9
HETATM    9  C10 UNL     1      80.167  31.575  67.439  1.00  0.00     0.256 C 
HETATM   10  N3  UNL     1      80.243  30.854  68.666  1.00  0.00    -0.375 N 
HETATM   11  C11 UNL     1      81.266  31.245  69.521  1.00  0.00     0.058 C 
ATOM     12  H3  UNL     1      79.593  30.104  68.900  1.00  0.00     0.161 HD
HETATM   13  C12 UNL     1      82.646  31.221  68.902  1.00  0.00     0.046 C 
HETATM   14  C13 UNL     1      82.623  31.793  67.516  1.00  0.00     0.042 C 
HETATM   15  C14 UNL     1      81.499  31.335  66.684  1.00  0.00     0.232 C 
BRANCH  15  16
HETATM   16  N4  UNL     1      81.654  29.978  66.261  1.00  0.00    -0.071 N 
ATOM     17  H43 UNL     1      80.765  29.588  65.948  1.00  0.00     0.274 HD
ATOM     18  H42 UNL     1      82.175  29.924  65.386  1.00  0.00     0.274 HD
ATOM     19  H41 UNL     1      82.079  29.391  66.978  1.00  0.00     0.274 HD
ENDBRANCH  15  16
ENDBRANCH   8   9
ENDBRANCH   7   8
ENDBRANCH   4   7
BRANCH   3  20
HETATM   20  N2  UNL     1      77.111  33.662  66.733  1.00  0.00    -0.071 N 
ATOM     21  H23 UNL     1      76.644  34.532  66.989  1.00  0.00     0.275 HD
ATOM     22  H22 UNL     1      76.432  33.019  67.141  1.00  0.00     0.275 HD
ATOM     23  H21 UNL     1      78.039  33.574  67.147  1.00  0.00     0.275 HD
ENDBRANCH   3  20
BRANCH   5  24
HETATM   24  O2  UNL     1      75.550  31.128  64.321  1.00  0.00    -0.388 OA
ATOM     25  H2  UNL     1      74.834  31.663  63.998  1.00  0.00     0.210 HD
ENDBRANCH   5  24
BRANCH   6  26
HETATM   26  O3  UNL     1      76.126  31.859  61.662  1.00  0.00    -0.391 OA
ATOM     27  H3  UNL     1      75.895  30.961  61.870  1.00  0.00     0.210 HD
ENDBRANCH   6  26
BRANCH   1  28
HETATM   28  N1  UNL     1      75.385  34.498  62.285  1.00  0.00    -0.414 N 
ATOM     29  H1  UNL     1      74.836  34.307  61.448  1.00  0.00     0.153 HD
BRANCH  28  30
HETATM   30  C4  UNL     1      76.005  35.746  62.509  1.00  0.00     0.114 C 
BRANCH  30  31
HETATM   31  C3  UNL     1      74.921  36.815  62.614  1.00  0.00     0.019 C 
BRANCH  31  32
HETATM   32  C2  UNL     1      75.143  37.777  63.743  1.00  0.00    -0.003 C 
HETATM   33  C1  UNL     1      74.127  37.774  64.822  1.00  0.00     0.005 C 
ENDBRANCH  31  32
ENDBRANCH  30  31
ENDBRANCH  28  30
ENDBRANCH   1  28
TORSDOF 11
ENDMDL
MODEL 2
REMARK VINA RESULT: -6.171814549      2.695      7.976
REMARK  11 active torsions:
REMARK  status: ('A' for Active; 'I' for Inactive)
REMARK    1  A    between atoms: C2_2  and  C3_3 
REMARK    2  A    between atoms: C3_3  and  C4_4 
REMARK    3  A    between atoms: C4_4  and  N1_5 
REMARK    4  A    between atoms: N1_5  and  C5_7 
REMARK    5  A    between atoms: C7_9  and  N2_10 
REMARK    6  A    between atoms: C8_14  and  C9_15 
REMARK    7  A    between atoms: C9_15  and  O1_16 
REMARK    8  A    between atoms: O1_16  and  C10_17 
REMARK    9  A    between atoms: C14_23  and  N4_24 
REMARK   10  A    between atoms: C15_28  and  O2_29 
REMARK   11  A    between atoms: C16_31  and  O3_32 
ROOT
HETATM    1  C5  UNL     1      77.016  31.981  65.358  1.00  0.00     0.110 C 
HETATM    2  C6  UNL     1      77.395  31.756  63.950  1.00  0.00     0.065 C 
HETATM    3  C7  UNL     1      77.455  32.882  63.005  1.00  0.00     0.219 C 
HETATM    4  C8  UNL     1      76.645  34.084  63.310  1.00  0.00     0.003 C 
HETATM    5  C15 UNL     1      75.840  33.959  64.589  1.00  0.00     0.181 C 
HETATM    6  C16 UNL     1      76.832  33.505  65.623  1.00  0.00     0.173 C 
ENDROOT
BRANCH   4   7
HETATM    7  C9  UNL     1      75.892  34.714  62.164  1.00  0.00     0.145 C 
BRANCH   7   8
HETATM    8  O1  UNL     1      76.388  35.210  61.155  1.00  0.00    -0.335 OA
BRANCH   8   9
HETATM    9  C10 UNL     1      76.900  35.723  60.115  1.00  0.00     0.256 C 
HETATM   10  N3  UNL     1      76.302  35.426  58.856  1.00  0.00    -0.375 N 
HETATM   11  C11 UNL     1      77.025  35.842  57.745  1.00  0.00     0.058 C 
ATOM     12  H3  UNL     1      75.408  34.943  58.776  1.00  0.00     0.161 HD
HETATM   13  C12 UNL     1      77.375  37.314  57.738  1.00  0.00     0.046 C 
HETATM   14  C13 UNL     1      77.837  37.763  59.092  1.00  0.00     0.042 C 
HETATM   15  C14 UNL     1      77.022  37.266  60.212  1.00  0.00     0.232 C 
BRANCH  15  16
HETATM   16  N4  UNL     1      75.750  37.914  60.288  1.00  0.00    -0.071 N 
ATOM     17  H43 UNL     1      75.466  38.272  59.376  1.00  0.00     0.274 HD
ATOM     18  H42 UNL     1      75.003  37.237  60.439  1.00  0.00     0.274 HD
ATOM     19  H41 UNL     1      75.727  38.650  60.993  1.00  0.00     0.274 HD
ENDBRANCH  15  16
ENDBRANCH   8   9
ENDBRANCH   7   8
ENDBRANCH   4   7
BRANCH   3  20
HETATM   20  N2  UNL     1      77.207  32.346  61.645  1.00  0.00    -0.071 N 
ATOM     21  H23 UNL     1      76.864  31.386  61.654  1.00  0.00     0.275 HD
ATOM     22  H22 UNL     1      76.399  32.774  61.193  1.00  0.00     0.275 HD
ATOM     23  H21 UNL     1      78.067  32.454  61.105  1.00  0.00     0.275 HD
ENDBRANCH   3  20
BRANCH   5  24
HETATM   24  O2  UNL     1      74.819  33.051  64.556  1.00  0.00    -0.388 OA
ATOM     25  H2  UNL     1      74.883  32.339  65.182  1.00  0.00     0.210 HD
ENDBRANCH   5  24
BRANCH   6  26
HETATM   26  O3  UNL     1      76.294  33.704  66.866  1.00  0.00    -0.391 OA
ATOM     27  H3  UNL     1      75.786  34.507  66.876  1.00  0.00     0.210 HD
ENDBRANCH   6  26
BRANCH   1  28
HETATM   28  N1  UNL     1      77.965  31.503  66.353  1.00  0.00    -0.414 N 
ATOM     29  H1  UNL     1      77.679  30.920  67.139  1.00  0.00     0.153 HD
BRANCH  28  30
HETATM   30  C4  UNL     1      79.306  31.899  66.160  1.00  0.00     0.114 C 
BRANCH  30  31
HETATM   31  C3  UNL     1      79.793  32.600  67.424  1.00  0.00     0.019 C 
BRANCH  31  32
HETATM   32  C2  UNL     1      80.966  31.920  68.065  1.00  0.00    -0.003 C 
HETATM   33  C1  UNL     1      80.777  31.456  69.460  1.00  0.00     0.005 C 
ENDBRANCH  31  32
ENDBRANCH  30  31
ENDBRANCH  28  30
ENDBRANCH   1  28
TORSDOF 11
ENDMDL
MODEL 3
REMARK VINA RESULT: -6.151215452      3.504      7.863
REMARK  11 active torsions:
REMARK  status: ('A' for Active; 'I' for Inactive)
REMARK    1  A    between atoms: C2_2  and  C3_3 
REMARK    2  A    between atoms: C3_3  and  C4_4 
REMARK    3  A    between atoms: C4_4  and  N1_5 
REMARK    4  A    between atoms: N1_5  and  C5_7 
REMARK    5  A    between atoms: C7_9  and  N2_10 
REMARK    6  A    between atoms: C8_14  and  C9_15 
REMARK    7  A    between atoms: C9_15  and  O1_16 
REMARK    8  A    between atoms: O1_16  and  C10_17 
REMARK    9  A    between atoms: C14_23  and  N4_24 
REMARK   10  A    between atoms: C15_28  and  O2_29 
REMARK   11  A    between atoms: C16_31  and  O3_32 
ROOT
HETATM    1  C5  UNL     1      77.182  32.828  64.206  1.00  0.00     0.110 C 
HETATM    2  C6  UNL     1      78.372  33.376  63.528  1.00  0.00     0.065 C 
HETATM    3  C7  UNL     1      78.337  34.719  62.929  1.00  0.00     0.219 C 
HETATM    4  C8  UNL     1      77.016  35.268  62.540  1.00  0.00     0.003 C 
HETATM    5  C15 UNL     1      75.866  34.321  62.819  1.00  0.00     0.181 C 
HETATM    6  C16 UNL     1      76.053  33.901  64.250  1.00  0.00     0.173 C 
ENDROOT
BRANCH   4   7
HETATM    7  C9  UNL     1      76.931  35.972  61.209  1.00  0.00     0.145 C 
BRANCH   7   8
HETATM    8  O1  UNL     1      76.846  35.434  60.107  1.00  0.00    -0.335 OA
BRANCH   8   9
HETATM    9  C10 UNL     1      76.760  34.877  58.972  1.00  0.00     0.256 C 
HETATM   10  N3  UNL     1      75.460  34.604  58.455  1.00  0.00    -0.375 N 
HETATM   11  C11 UNL     1      75.431  33.810  57.315  1.00  0.00     0.058 C 
ATOM     12  H3  UNL     1      74.612  34.964  58.892  1.00  0.00     0.161 HD
HETATM   13  C12 UNL     1      76.268  34.329  56.167  1.00  0.00     0.046 C 
HETATM   14  C13 UNL     1      77.598  34.823  56.652  1.00  0.00     0.042 C 
HETATM   15  C14 UNL     1      77.537  35.644  57.872  1.00  0.00     0.232 C 
BRANCH  15  16
HETATM   16  N4  UNL     1      76.999  36.945  57.624  1.00  0.00    -0.071 N 
ATOM     17  H43 UNL     1      76.244  36.906  56.939  1.00  0.00     0.274 HD
ATOM     18  H42 UNL     1      76.472  37.283  58.430  1.00  0.00     0.274 HD
ATOM     19  H41 UNL     1      77.712  37.618  57.345  1.00  0.00     0.274 HD
ENDBRANCH  15  16
ENDBRANCH   8   9
ENDBRANCH   7   8
ENDBRANCH   4   7
BRANCH   3  20
HETATM   20  N2  UNL     1      79.325  34.749  61.824  1.00  0.00    -0.071 N 
ATOM     21  H23 UNL     1      80.265  34.496  62.126  1.00  0.00     0.275 HD
ATOM     22  H22 UNL     1      79.191  33.992  61.153  1.00  0.00     0.275 HD
ATOM     23  H21 UNL     1      79.283  35.673  61.392  1.00  0.00     0.275 HD
ENDBRANCH   3  20
BRANCH   5  24
HETATM   24  O2  UNL     1      75.831  33.193  62.048  1.00  0.00    -0.388 OA
ATOM     25  H2  UNL     1      74.971  32.932  61.742  1.00  0.00     0.210 HD
ENDBRANCH   5  24
BRANCH   6  26
HETATM   26  O3  UNL     1      74.888  33.339  64.699  1.00  0.00    -0.391 OA
ATOM     27  H3  UNL     1      74.603  33.772  65.495  1.00  0.00     0.210 HD
ENDBRANCH   6  26
BRANCH   1  28
HETATM   28  N1  UNL     1      77.382  32.387  65.579  1.00  0.00    -0.414 N 
ATOM     29  H1  UNL     1      76.699  31.811  66.069  1.00  0.00     0.153 HD
BRANCH  28  30
HETATM   30  C4  UNL     1      78.584  32.810  66.188  1.00  0.00     0.114 C 
BRANCH  30  31
HETATM   31  C3  UNL     1      78.238  33.639  67.421  1.00  0.00     0.019 C 
BRANCH  31  32
HETATM   32  C2  UNL     1      76.771  33.664  67.728  1.00  0.00    -0.003 C 
HETATM   33  C1  UNL     1      76.366  34.392  68.954  1.00  0.00     0.005 C 
ENDBRANCH  31  32
ENDBRANCH  30  31
ENDBRANCH  28  30
ENDBRANCH   1  28
TORSDOF 11
ENDMDL
MODEL 4
REMARK VINA RESULT: -6.069459734      1.464      2.007
REMARK  11 active torsions:
REMARK  status: ('A' for Active; 'I' for Inactive)
REMARK    1  A    between atoms: C2_2  and  C3_3 
REMARK    2  A    between atoms: C3_3  and  C4_4 
REMARK    3  A    between atoms: C4_4  and  N1_5 
REMARK    4  A    between atoms: N1_5  and  C5_7 
REMARK    5  A    between atoms: C7_9  and  N2_10 
REMARK    6  A    between atoms: C8_14  and  C9_15 
REMARK    7  A    between atoms: C9_15  and  O1_16 
REMARK    8  A    between atoms: O1_16  and  C10_17 
REMARK    9  A    between atoms: C14_23  and  N4_24 
REMARK   10  A    between atoms: C15_28  and  O2_29 
REMARK   11  A    between atoms: C16_31  and  O3_32 
ROOT
HETATM    1  C5  UNL     1      75.461  34.696  62.542  1.00  0.00     0.110 C 
HETATM    2  C6  UNL     1      75.695  34.497  63.985  1.00  0.00     0.065 C 
HETATM    3  C7  UNL     1      76.907  33.808  64.456  1.00  0.00     0.219 C 
HETATM    4  C8  UNL     1      77.580  32.877  63.520  1.00  0.00     0.003 C 
HETATM    5  C15 UNL     1      76.884  32.766  62.178  1.00  0.00     0.181 C 
HETATM    6  C16 UNL     1      76.688  34.186  61.728  1.00  0.00     0.173 C 
ENDROOT
BRANCH   4   7
HETATM    7  C9  UNL     1      78.054  31.560  64.084  1.00  0.00     0.145 C 
BRANCH   7   8
HETATM    8  O1  UNL     1      78.888  31.410  64.974  1.00  0.00    -0.335 OA
BRANCH   8   9
HETATM    9  C10 UNL     1      79.748  31.252  65.892  1.00  0.00     0.256 C 
HETATM   10  N3  UNL     1      81.007  30.683  65.542  1.00  0.00    -0.375 N 
HETATM   11  C11 UNL     1      81.822  30.343  66.614  1.00  0.00     0.058 C 
ATOM     12  H3  UNL     1      81.289  30.536  64.573  1.00  0.00     0.161 HD
HETATM   13  C12 UNL     1      82.096  31.475  67.579  1.00  0.00     0.046 C 
HETATM   14  C13 UNL     1      80.847  32.257  67.858  1.00  0.00     0.042 C 
HETATM   15  C14 UNL     1      80.037  32.562  66.668  1.00  0.00     0.232 C 
BRANCH  15  16
HETATM   16  N4  UNL     1      80.637  33.566  65.846  1.00  0.00    -0.071 N 
ATOM     17  H43 UNL     1      81.652  33.565  65.947  1.00  0.00     0.274 HD
ATOM     18  H42 UNL     1      80.570  33.320  64.858  1.00  0.00     0.274 HD
ATOM     19  H41 UNL     1      80.253  34.495  66.019  1.00  0.00     0.274 HD
ENDBRANCH  15  16
ENDBRANCH   8   9
ENDBRANCH   7   8
ENDBRANCH   4   7
BRANCH   3  20
HETATM   20  N2  UNL     1      76.595  33.188  65.766  1.00  0.00    -0.071 N 
ATOM     21  H23 UNL     1      75.622  32.894  65.843  1.00  0.00     0.275 HD
ATOM     22  H22 UNL     1      77.023  32.269  65.880  1.00  0.00     0.275 HD
ATOM     23  H21 UNL     1      76.869  33.846  66.496  1.00  0.00     0.275 HD
ENDBRANCH   3  20
BRANCH   5  24
HETATM   24  O2  UNL     1      75.662  32.155  62.197  1.00  0.00    -0.388 OA
ATOM     25  H2  UNL     1      75.608  31.330  61.729  1.00  0.00     0.210 HD
ENDBRANCH   5  24
BRANCH   6  26
HETATM   26  O3  UNL     1      76.399  34.187  60.390  1.00  0.00    -0.391 OA
ATOM     27  H3  UNL     1      77.178  33.983  59.888  1.00  0.00     0.210 HD
ENDBRANCH   6  26
BRANCH   1  28
HETATM   28  N1  UNL     1      75.233  36.071  62.121  1.00  0.00    -0.414 N 
ATOM     29  H1  UNL     1      74.784  36.300  61.234  1.00  0.00     0.153 HD
BRANCH  28  30
HETATM   30  C4  UNL     1      75.674  37.066  63.019  1.00  0.00     0.114 C 
BRANCH  30  31
HETATM   31  C3  UNL     1      74.452  37.740  63.636  1.00  0.00     0.019 C 
BRANCH  31  32
HETATM   32  C2  UNL     1      74.476  37.755  65.135  1.00  0.00    -0.003 C 
HETATM   33  C1  UNL     1      73.339  38.429  65.806  1.00  0.00     0.005 C 
ENDBRANCH  31  32
ENDBRANCH  30  31
ENDBRANCH  28  30
ENDBRANCH   1  28
TORSDOF 11
ENDMDL
MODEL 5
REMARK VINA RESULT: -6.059831648      3.758      7.169
REMARK  11 active torsions:
REMARK  status: ('A' for Active; 'I' for Inactive)
REMARK    1  A    between atoms: C2_2  and  C3_3 
REMARK    2  A    between atoms: C3_3  and  C4_4 
REMARK    3  A    between atoms: C4_4  and  N1_5 
REMARK    4  A    between atoms: N1_5  and  C5_7 
REMARK    5  A    between atoms: C7_9  and  N2_10 
REMARK    6  A    between atoms: C8_14  and  C9_15 
REMARK    7  A    between atoms: C9_15  and  O1_16 
REMARK    8  A    between atoms: O1_16  and  C10_17 
REMARK    9  A    between atoms: C14_23  and  N4_24 
REMARK   10  A    between atoms: C15_28  and  O2_29 
REMARK   11  A    between atoms: C16_31  and  O3_32 
ROOT
HETATM    1  C5  UNL     1      76.135  33.379  63.935  1.00  0.00     0.110 C 
HETATM    2  C6  UNL     1      75.260  32.192  63.978  1.00  0.00     0.065 C 
HETATM    3  C7  UNL     1      75.724  30.903  63.443  1.00  0.00     0.219 C 
HETATM    4  C8  UNL     1      76.795  30.925  62.419  1.00  0.00     0.003 C 
HETATM    5  C15 UNL     1      77.253  32.324  62.059  1.00  0.00     0.181 C 
HETATM    6  C16 UNL     1      77.536  32.987  63.377  1.00  0.00     0.173 C 
ENDROOT
BRANCH   4   7
HETATM    7  C9  UNL     1      76.632  30.002  61.236  1.00  0.00     0.145 C 
BRANCH   7   8
HETATM    8  O1  UNL     1      77.108  30.168  60.115  1.00  0.00    -0.335 OA
BRANCH   8   9
HETATM    9  C10 UNL     1      77.597  30.338  58.958  1.00  0.00     0.256 C 
HETATM   10  N3  UNL     1      77.029  29.606  57.875  1.00  0.00    -0.375 N 
HETATM   11  C11 UNL     1      77.735  29.672  56.681  1.00  0.00     0.058 C 
ATOM     12  H3  UNL     1      76.165  29.072  57.970  1.00  0.00     0.161 HD
HETATM   13  C12 UNL     1      77.998  31.076  56.182  1.00  0.00     0.046 C 
HETATM   14  C13 UNL     1      78.421  31.974  57.307  1.00  0.00     0.042 C 
HETATM   15  C14 UNL     1      77.627  31.829  58.537  1.00  0.00     0.232 C 
BRANCH  15  16
HETATM   16  N4  UNL     1      76.319  32.390  58.409  1.00  0.00    -0.071 N 
ATOM     17  H43 UNL     1      75.656  31.920  59.026  1.00  0.00     0.274 HD
ATOM     18  H42 UNL     1      76.281  33.327  58.810  1.00  0.00     0.274 HD
ATOM     19  H41 UNL     1      75.985  32.390  57.445  1.00  0.00     0.274 HD
ENDBRANCH  15  16
ENDBRANCH   8   9
ENDBRANCH   7   8
ENDBRANCH   4   7
BRANCH   3  20
HETATM   20  N2  UNL     1      74.531  30.132  63.018  1.00  0.00    -0.071 N 
ATOM     21  H23 UNL     1      74.738  29.458  62.281  1.00  0.00     0.275 HD
ATOM     22  H22 UNL     1      74.217  29.468  63.725  1.00  0.00     0.275 HD
ATOM     23  H21 UNL     1      73.806  30.800  62.751  1.00  0.00     0.275 HD
ENDBRANCH   3  20
BRANCH   5  24
HETATM   24  O2  UNL     1      76.340  33.089  61.388  1.00  0.00    -0.388 OA
ATOM     25  H2  UNL     1      76.602  33.986  61.219  1.00  0.00     0.210 HD
ENDBRANCH   5  24
BRANCH   6  26
HETATM   26  O3  UNL     1      78.284  34.111  63.153  1.00  0.00    -0.391 OA
ATOM     27  H3  UNL     1      79.144  33.872  62.828  1.00  0.00     0.210 HD
ENDBRANCH   6  26
BRANCH   1  28
HETATM   28  N1  UNL     1      76.372  34.037  65.212  1.00  0.00    -0.414 N 
ATOM     29  H1  UNL     1      76.421  35.052  65.298  1.00  0.00     0.153 HD
BRANCH  28  30
HETATM   30  C4  UNL     1      76.529  33.180  66.322  1.00  0.00     0.114 C 
BRANCH  30  31
HETATM   31  C3  UNL     1      77.779  33.601  67.088  1.00  0.00     0.019 C 
BRANCH  31  32
HETATM   32  C2  UNL     1      77.500  33.999  68.507  1.00  0.00    -0.003 C 
HETATM   33  C1  UNL     1      76.074  34.091  68.898  1.00  0.00     0.005 C 
ENDBRANCH  31  32
ENDBRANCH  30  31
ENDBRANCH  28  30
ENDBRANCH   1  28
TORSDOF 11
ENDMDL
