MODEL 1
REMARK VINA RESULT: -6.464332209      0.000      0.000
REMARK  7 active torsions:
REMARK  status: ('A' for Active; 'I' for Inactive)
REMARK    1  A    between atoms: N2_3  and  C2_5 
REMARK    2  A    between atoms: C10_19  and  C11_20 
REMARK       I    between atoms: C11_20  and  N6_22 
REMARK    3  A    between atoms: N6_22  and  C12_24 
REMARK    4  A    between atoms: C12_24  and  C13_25 
REMARK    5  A    between atoms: C13_25  and  C14_26 
REMARK    6  A    between atoms: C14_26  and  C15_27 
REMARK    7  A    between atoms: C15_27  and  N7_28 
ROOT
HETATM    1  N1  UNL     1      73.816  30.193  63.306  1.00  0.00    -0.172 NA
HETATM    2  C1  UNL     1      74.743  30.878  63.389  1.00  0.00     0.177 C 
HETATM    3  N2  UNL     1      75.849  31.700  63.465  1.00  0.00    -0.321 N 
ATOM      4  H2  UNL     1      76.517  31.633  62.699  1.00  0.00     0.172 HD
ENDROOT
BRANCH   3   5
HETATM    5  C2  UNL     1      76.160  32.633  64.497  1.00  0.00     0.128 C 
HETATM    6  C3  UNL     1      76.819  31.925  65.657  1.00  0.00     0.072 C 
HETATM    7  C4  UNL     1      77.260  32.780  66.774  1.00  0.00     0.057 C 
HETATM    8  N3  UNL     1      78.603  33.204  66.761  1.00  0.00    -0.401 N 
HETATM    9  C5  UNL     1      79.635  32.247  66.769  1.00  0.00     0.138 C 
ATOM     10  H3  UNL     1      78.826  34.200  66.747  1.00  0.00     0.158 HD
HETATM   11  C6  UNL     1      80.827  32.844  66.017  1.00  0.00     0.133 C 
HETATM   12  N4  UNL     1      81.425  31.984  65.069  1.00  0.00    -0.420 N 
HETATM   13  C7  UNL     1      80.667  31.599  63.937  1.00  0.00     0.115 C 
ATOM     14  H4  UNL     1      82.380  31.648  65.198  1.00  0.00     0.153 HD
HETATM   15  C8  UNL     1      80.208  32.720  63.047  1.00  0.00     0.038 C 
HETATM   16  C9  UNL     1      78.673  32.728  62.889  1.00  0.00     0.116 C 
HETATM   17  N5  UNL     1      78.181  33.763  63.637  1.00  0.00    -0.408 N 
HETATM   18  C10 UNL     1      76.850  33.881  64.091  1.00  0.00     0.193 C 
ATOM     19  H5  UNL     1      78.829  34.510  63.888  1.00  0.00     0.154 HD
BRANCH  18  20
HETATM   20  C11 UNL     1      75.994  34.727  63.230  1.00  0.00     0.242 C 
HETATM   21  O1  UNL     1      75.748  34.368  62.056  1.00  0.00    -0.271 OA
HETATM   22  N6  UNL     1      75.444  35.938  63.703  1.00  0.00    -0.359 N 
ATOM     23  H6  UNL     1      75.644  36.235  64.658  1.00  0.00     0.162 HD
BRANCH  22  24
HETATM   24  C12 UNL     1      74.604  36.772  62.866  1.00  0.00     0.122 C 
BRANCH  24  25
HETATM   25  C13 UNL     1      75.357  38.012  62.455  1.00  0.00     0.021 C 
BRANCH  25  26
HETATM   26  C14 UNL     1      75.308  38.168  60.952  1.00  0.00     0.029 C 
BRANCH  26  27
HETATM   27  C15 UNL     1      76.416  37.282  60.370  1.00  0.00     0.229 C 
BRANCH  27  28
HETATM   28  N7  UNL     1      75.791  36.319  59.489  1.00  0.00    -0.079 N 
ATOM     29  H73 UNL     1      76.358  35.482  59.350  1.00  0.00     0.274 HD
ATOM     30  H72 UNL     1      74.980  35.865  59.909  1.00  0.00     0.274 HD
ATOM     31  H71 UNL     1      75.570  36.797  58.616  1.00  0.00     0.274 HD
ENDBRANCH  27  28
ENDBRANCH  26  27
ENDBRANCH  25  26
ENDBRANCH  24  25
ENDBRANCH  22  24
ENDBRANCH  18  20
ENDBRANCH   3   5
TORSDOF 7
ENDMDL
MODEL 2
REMARK VINA RESULT: -6.443719877      1.082      1.905
REMARK  7 active torsions:
REMARK  status: ('A' for Active; 'I' for Inactive)
REMARK    1  A    between atoms: N2_3  and  C2_5 
REMARK    2  A    between atoms: C10_19  and  C11_20 
REMARK       I    between atoms: C11_20  and  N6_22 
REMARK    3  A    between atoms: N6_22  and  C12_24 
REMARK    4  A    between atoms: C12_24  and  C13_25 
REMARK    5  A    between atoms: C13_25  and  C14_26 
REMARK    6  A    between atoms: C14_26  and  C15_27 
REMARK    7  A    between atoms: C15_27  and  N7_28 
ROOT
HETATM    1  N1  UNL     1      73.929  30.306  63.293  1.00  0.00    -0.172 NA
HETATM    2  C1  UNL     1      74.921  30.894  63.358  1.00  0.00     0.177 C 
HETATM    3  N2  UNL     1      76.107  31.597  63.412  1.00  0.00    -0.321 N 
ATOM      4  H2  UNL     1      76.818  31.340  62.727  1.00  0.00     0.172 HD
ENDROOT
BRANCH   3   5
HETATM    5  C2  UNL     1      76.449  32.643  64.318  1.00  0.00     0.128 C 
HETATM    6  C3  UNL     1      76.925  32.061  65.628  1.00  0.00     0.072 C 
HETATM    7  C4  UNL     1      77.381  33.030  66.641  1.00  0.00     0.057 C 
HETATM    8  N3  UNL     1      78.762  33.299  66.693  1.00  0.00    -0.401 N 
HETATM    9  C5  UNL     1      79.666  32.249  66.941  1.00  0.00     0.138 C 
ATOM     10  H3  UNL     1      79.105  34.249  66.552  1.00  0.00     0.158 HD
HETATM   11  C6  UNL     1      80.976  32.585  66.225  1.00  0.00     0.133 C 
HETATM   12  N4  UNL     1      81.536  31.525  65.478  1.00  0.00    -0.420 N 
HETATM   13  C7  UNL     1      80.826  31.050  64.349  1.00  0.00     0.115 C 
ATOM     14  H4  UNL     1      82.431  31.113  65.746  1.00  0.00     0.153 HD
HETATM   15  C8  UNL     1      80.578  32.058  63.262  1.00  0.00     0.038 C 
HETATM   16  C9  UNL     1      79.072  32.207  62.959  1.00  0.00     0.116 C 
HETATM   17  N5  UNL     1      78.653  33.396  63.495  1.00  0.00    -0.408 N 
HETATM   18  C10 UNL     1      77.316  33.728  63.797  1.00  0.00     0.193 C 
ATOM     19  H5  UNL     1      79.366  34.098  63.691  1.00  0.00     0.154 HD
BRANCH  18  20
HETATM   20  C11 UNL     1      76.638  34.513  62.742  1.00  0.00     0.242 C 
HETATM   21  O1  UNL     1      76.043  33.921  61.813  1.00  0.00    -0.271 OA
HETATM   22  N6  UNL     1      76.646  35.925  62.757  1.00  0.00    -0.359 N 
ATOM     23  H6  UNL     1      77.131  36.411  63.511  1.00  0.00     0.162 HD
BRANCH  22  24
HETATM   24  C12 UNL     1      75.983  36.702  61.728  1.00  0.00     0.122 C 
BRANCH  24  25
HETATM   25  C13 UNL     1      75.247  37.861  62.353  1.00  0.00     0.021 C 
BRANCH  25  26
HETATM   26  C14 UNL     1      74.169  37.345  63.279  1.00  0.00     0.029 C 
BRANCH  26  27
HETATM   27  C15 UNL     1      74.556  37.767  64.702  1.00  0.00     0.229 C 
BRANCH  27  28
HETATM   28  N7  UNL     1      73.409  38.422  65.293  1.00  0.00    -0.079 N 
ATOM     29  H73 UNL     1      73.093  39.230  64.755  1.00  0.00     0.274 HD
ATOM     30  H72 UNL     1      72.555  37.870  65.219  1.00  0.00     0.274 HD
ATOM     31  H71 UNL     1      73.649  38.656  66.256  1.00  0.00     0.274 HD
ENDBRANCH  27  28
ENDBRANCH  26  27
ENDBRANCH  25  26
ENDBRANCH  24  25
ENDBRANCH  22  24
ENDBRANCH  18  20
ENDBRANCH   3   5
TORSDOF 7
ENDMDL
MODEL 3
REMARK VINA RESULT: -6.385230760      2.268      6.693
REMARK  7 active torsions:
REMARK  status: ('A' for Active; 'I' for Inactive)
REMARK    1  A    between atoms: N2_3  and  C2_5 
REMARK    2  A    between atoms: C10_19  and  C11_20 
REMARK       I    between atoms: C11_20  and  N6_22 
REMARK    3  A    between atoms: N6_22  and  C12_24 
REMARK    4  A    between atoms: C12_24  and  C13_25 
REMARK    5  A    between atoms: C13_25  and  C14_26 
REMARK    6  A    between atoms: C14_26  and  C15_27 
REMARK    7  A    between atoms: C15_27  and  N7_28 
ROOT
HETATM    1  N1  UNL     1      73.693  29.488  62.926  1.00  0.00    -0.172 NA
HETATM    2  C1  UNL     1      74.490  30.231  63.311  1.00  0.00     0.177 C 
HETATM    3  N2  UNL     1      75.438  31.111  63.793  1.00  0.00    -0.321 N 
ATOM      4  H2  UNL     1      75.207  31.597  64.659  1.00  0.00     0.172 HD
ENDROOT
BRANCH   3   5
HETATM    5  C2  UNL     1      76.704  31.416  63.214  1.00  0.00     0.128 C 
HETATM    6  C3  UNL     1      76.537  31.774  61.756  1.00  0.00     0.072 C 
HETATM    7  C4  UNL     1      77.761  32.182  61.043  1.00  0.00     0.057 C 
HETATM    8  N3  UNL     1      78.022  33.563  60.961  1.00  0.00    -0.401 N 
HETATM    9  C5  UNL     1      77.088  34.412  60.339  1.00  0.00     0.138 C 
ATOM     10  H3  UNL     1      78.884  33.945  61.350  1.00  0.00     0.158 HD
HETATM   11  C6  UNL     1      77.185  35.783  61.014  1.00  0.00     0.133 C 
HETATM   12  N4  UNL     1      75.946  36.364  61.363  1.00  0.00    -0.420 N 
HETATM   13  C7  UNL     1      75.160  35.726  62.354  1.00  0.00     0.115 C 
ATOM     14  H4  UNL     1      75.626  37.222  60.914  1.00  0.00     0.153 HD
HETATM   15  C8  UNL     1      75.799  35.593  63.708  1.00  0.00     0.038 C 
HETATM   16  C9  UNL     1      75.863  34.119  64.163  1.00  0.00     0.116 C 
HETATM   17  N5  UNL     1      77.160  33.699  64.041  1.00  0.00    -0.408 N 
HETATM   18  C10 UNL     1      77.577  32.354  63.961  1.00  0.00     0.193 C 
ATOM     19  H5  UNL     1      77.883  34.417  64.005  1.00  0.00     0.154 HD
BRANCH  18  20
HETATM   20  C11 UNL     1      78.017  31.782  65.254  1.00  0.00     0.242 C 
HETATM   21  O1  UNL     1      77.166  31.493  66.125  1.00  0.00    -0.271 OA
HETATM   22  N6  UNL     1      79.382  31.555  65.531  1.00  0.00    -0.359 N 
ATOM     23  H6  UNL     1      80.079  31.792  64.824  1.00  0.00     0.162 HD
BRANCH  22  24
HETATM   24  C12 UNL     1      79.821  30.995  66.794  1.00  0.00     0.122 C 
BRANCH  24  25
HETATM   25  C13 UNL     1      80.209  32.104  67.741  1.00  0.00     0.021 C 
BRANCH  25  26
HETATM   26  C14 UNL     1      81.460  31.719  68.497  1.00  0.00     0.029 C 
BRANCH  26  27
HETATM   27  C15 UNL     1      81.014  30.941  69.741  1.00  0.00     0.229 C 
BRANCH  27  28
HETATM   28  N7  UNL     1      79.924  31.673  70.349  1.00  0.00    -0.079 N 
ATOM     29  H73 UNL     1      80.035  32.685  70.275  1.00  0.00     0.274 HD
ATOM     30  H72 UNL     1      79.053  31.595  69.825  1.00  0.00     0.274 HD
ATOM     31  H71 UNL     1      79.837  31.354  71.314  1.00  0.00     0.274 HD
ENDBRANCH  27  28
ENDBRANCH  26  27
ENDBRANCH  25  26
ENDBRANCH  24  25
ENDBRANCH  22  24
ENDBRANCH  18  20
ENDBRANCH   3   5
TORSDOF 7
ENDMDL
MODEL 4
REMARK VINA RESULT: -6.197785921      2.063      6.355
REMARK  7 active torsions:
REMARK  status: ('A' for Active; 'I' for Inactive)
REMARK    1  A    between atoms: N2_3  and  C2_5 
REMARK    2  A    between atoms: C10_19  and  C11_20 
REMARK       I    between atoms: C11_20  and  N6_22 
REMARK    3  A    between atoms: N6_22  and  C12_24 
REMARK    4  A    between atoms: C12_24  and  C13_25 
REMARK    5  A    between atoms: C13_25  and  C14_26 
REMARK    6  A    between atoms: C14_26  and  C15_27 
REMARK    7  A    between atoms: C15_27  and  N7_28 
ROOT
HETATM    1  N1  UNL     1      73.651  29.923  63.221  1.00  0.00    -0.172 NA
HETATM    2  C1  UNL     1      74.516  30.620  63.538  1.00  0.00     0.177 C 
HETATM    3  N2  UNL     1      75.545  31.447  63.940  1.00  0.00    -0.321 N 
ATOM      4  H2  UNL     1      75.382  31.997  64.783  1.00  0.00     0.172 HD
ENDROOT
BRANCH   3   5
HETATM    5  C2  UNL     1      76.811  31.617  63.308  1.00  0.00     0.128 C 
HETATM    6  C3  UNL     1      76.637  31.703  61.811  1.00  0.00     0.072 C 
HETATM    7  C4  UNL     1      77.862  31.949  61.028  1.00  0.00     0.057 C 
HETATM    8  N3  UNL     1      78.147  33.286  60.692  1.00  0.00    -0.401 N 
HETATM    9  C5  UNL     1      77.222  34.024  59.929  1.00  0.00     0.138 C 
ATOM     10  H3  UNL     1      79.019  33.718  60.999  1.00  0.00     0.158 HD
HETATM   11  C6  UNL     1      77.349  35.493  60.339  1.00  0.00     0.133 C 
HETATM   12  N4  UNL     1      76.124  36.152  60.582  1.00  0.00    -0.420 N 
HETATM   13  C7  UNL     1      75.335  35.723  61.678  1.00  0.00     0.115 C 
ATOM     14  H4  UNL     1      75.815  36.919  59.984  1.00  0.00     0.153 HD
HETATM   15  C8  UNL     1      75.984  35.829  63.029  1.00  0.00     0.038 C 
HETATM   16  C9  UNL     1      76.025  34.463  63.748  1.00  0.00     0.116 C 
HETATM   17  N5  UNL     1      77.314  34.003  63.699  1.00  0.00    -0.408 N 
HETATM   18  C10 UNL     1      77.707  32.659  63.865  1.00  0.00     0.193 C 
ATOM     19  H5  UNL     1      78.050  34.688  63.527  1.00  0.00     0.154 HD
BRANCH  18  20
HETATM   20  C11 UNL     1      78.148  32.327  65.238  1.00  0.00     0.242 C 
HETATM   21  O1  UNL     1      77.914  31.190  65.707  1.00  0.00    -0.271 OA
HETATM   22  N6  UNL     1      78.829  33.269  66.040  1.00  0.00    -0.359 N 
ATOM     23  H6  UNL     1      79.019  34.197  65.663  1.00  0.00     0.162 HD
BRANCH  22  24
HETATM   24  C12 UNL     1      79.264  32.951  67.386  1.00  0.00     0.122 C 
BRANCH  24  25
HETATM   25  C13 UNL     1      80.698  32.483  67.364  1.00  0.00     0.021 C 
BRANCH  25  26
HETATM   26  C14 UNL     1      80.903  31.409  68.410  1.00  0.00     0.029 C 
BRANCH  26  27
HETATM   27  C15 UNL     1      80.572  30.066  67.748  1.00  0.00     0.229 C 
BRANCH  27  28
HETATM   28  N7  UNL     1      80.950  30.158  66.354  1.00  0.00    -0.079 N 
ATOM     29  H73 UNL     1      81.924  29.904  66.189  1.00  0.00     0.274 HD
ATOM     30  H72 UNL     1      80.522  29.433  65.778  1.00  0.00     0.274 HD
ATOM     31  H71 UNL     1      80.727  31.101  66.035  1.00  0.00     0.274 HD
ENDBRANCH  27  28
ENDBRANCH  26  27
ENDBRANCH  25  26
ENDBRANCH  24  25
ENDBRANCH  22  24
ENDBRANCH  18  20
ENDBRANCH   3   5
TORSDOF 7
ENDMDL
MODEL 5
REMARK VINA RESULT: -6.162402464      1.010      1.601
REMARK  7 active torsions:
REMARK  status: ('A' for Active; 'I' for Inactive)
REMARK    1  A    between atoms: N2_3  and  C2_5 
REMARK    2  A    between atoms: C10_19  and  C11_20 
REMARK       I    between atoms: C11_20  and  N6_22 
REMARK    3  A    between atoms: N6_22  and  C12_24 
REMARK    4  A    between atoms: C12_24  and  C13_25 
REMARK    5  A    between atoms: C13_25  and  C14_26 
REMARK    6  A    between atoms: C14_26  and  C15_27 
REMARK    7  A    between atoms: C15_27  and  N7_28 
ROOT
HETATM    1  N1  UNL     1      73.878  30.279  63.319  1.00  0.00    -0.172 NA
HETATM    2  C1  UNL     1      74.907  30.787  63.456  1.00  0.00     0.177 C 
HETATM    3  N2  UNL     1      76.139  31.392  63.596  1.00  0.00    -0.321 N 
ATOM      4  H2  UNL     1      76.904  30.993  63.052  1.00  0.00     0.172 HD
ENDROOT
BRANCH   3   5
HETATM    5  C2  UNL     1      76.462  32.512  64.416  1.00  0.00     0.128 C 
HETATM    6  C3  UNL     1      76.928  32.045  65.775  1.00  0.00     0.072 C 
HETATM    7  C4  UNL     1      77.363  33.099  66.710  1.00  0.00     0.057 C 
HETATM    8  N3  UNL     1      78.741  33.384  66.754  1.00  0.00    -0.401 N 
HETATM    9  C5  UNL     1      79.651  32.366  67.098  1.00  0.00     0.138 C 
ATOM     10  H3  UNL     1      79.078  34.322  66.538  1.00  0.00     0.158 HD
HETATM   11  C6  UNL     1      80.967  32.655  66.371  1.00  0.00     0.133 C 
HETATM   12  N4  UNL     1      81.545  31.542  65.720  1.00  0.00    -0.420 N 
HETATM   13  C7  UNL     1      80.852  30.968  64.626  1.00  0.00     0.115 C 
ATOM     14  H4  UNL     1      82.439  31.162  66.030  1.00  0.00     0.153 HD
HETATM   15  C8  UNL     1      80.607  31.881  63.457  1.00  0.00     0.038 C 
HETATM   16  C9  UNL     1      79.104  31.991  63.127  1.00  0.00     0.116 C 
HETATM   17  N5  UNL     1      78.668  33.215  63.558  1.00  0.00    -0.408 N 
HETATM   18  C10 UNL     1      77.325  33.559  63.817  1.00  0.00     0.193 C 
ATOM     19  H5  UNL     1      79.373  33.938  63.703  1.00  0.00     0.154 HD
BRANCH  18  20
HETATM   20  C11 UNL     1      76.653  34.248  62.694  1.00  0.00     0.242 C 
HETATM   21  O1  UNL     1      75.402  34.251  62.627  1.00  0.00    -0.271 OA
HETATM   22  N6  UNL     1      77.391  34.906  61.686  1.00  0.00    -0.359 N 
ATOM     23  H6  UNL     1      78.410  34.903  61.736  1.00  0.00     0.162 HD
BRANCH  22  24
HETATM   24  C12 UNL     1      76.740  35.584  60.583  1.00  0.00     0.122 C 
BRANCH  24  25
HETATM   25  C13 UNL     1      76.773  37.076  60.806  1.00  0.00     0.021 C 
BRANCH  25  26
HETATM   26  C14 UNL     1      75.411  37.557  61.257  1.00  0.00     0.029 C 
BRANCH  26  27
HETATM   27  C15 UNL     1      75.478  37.737  62.778  1.00  0.00     0.229 C 
BRANCH  27  28
HETATM   28  N7  UNL     1      74.120  37.787  63.275  1.00  0.00    -0.079 N 
ATOM     29  H73 UNL     1      73.898  38.669  63.737  1.00  0.00     0.274 HD
ATOM     30  H72 UNL     1      73.427  37.847  62.529  1.00  0.00     0.274 HD
ATOM     31  H71 UNL     1      73.982  36.977  63.880  1.00  0.00     0.274 HD
ENDBRANCH  27  28
ENDBRANCH  26  27
ENDBRANCH  25  26
ENDBRANCH  24  25
ENDBRANCH  22  24
ENDBRANCH  18  20
ENDBRANCH   3   5
TORSDOF 7
ENDMDL
