MODEL 1
REMARK VINA RESULT: -5.078612805      0.000      0.000
REMARK  9 active torsions:
REMARK  status: ('A' for Active; 'I' for Inactive)
REMARK       I    between atoms: C1_4  and  N3_6 
REMARK    1  A    between atoms: N3_6  and  C2_8 
REMARK    2  A    between atoms: C2_8  and  C3_9 
REMARK    3  A    between atoms: C3_9  and  C4_10 
REMARK    4  A    between atoms: C4_10  and  S1_11 
REMARK    5  A    between atoms: S1_11  and  C5_12 
REMARK    6  A    between atoms: C5_12  and  C6_13 
REMARK    7  A    between atoms: C8_16  and  O1_17 
REMARK    8  A    between atoms: C9_19  and  O2_20 
REMARK    9  A    between atoms: C10_22  and  O3_23 
ROOT
HETATM    1  C6  UNL     1      78.246  33.010  61.969  1.00  0.00     0.087 C 
HETATM    2  S2  UNL     1      78.131  31.386  62.834  1.00  0.00    -0.151 SA
HETATM    3  C7  UNL     1      78.777  32.628  63.946  1.00  0.00     0.109 C 
HETATM    4  C8  UNL     1      78.449  32.427  65.404  1.00  0.00     0.168 C 
HETATM    5  C9  UNL     1      76.985  32.275  65.619  1.00  0.00     0.203 C 
HETATM    6  C10 UNL     1      76.127  33.182  64.806  1.00  0.00     0.288 C 
HETATM    7  O4  UNL     1      76.529  33.418  63.527  1.00  0.00    -0.351 OA
HETATM    8  C11 UNL     1      77.859  33.625  63.299  1.00  0.00     0.155 C 
ENDROOT
BRANCH   1   9
HETATM    9  C5  UNL     1      77.171  33.180  60.947  1.00  0.00     0.091 C 
BRANCH   9  10
HETATM   10  S1  UNL     1      77.222  34.761  60.069  1.00  0.00    -0.168 SA
BRANCH  10  11
HETATM   11  C4  UNL     1      75.741  35.739  60.458  1.00  0.00     0.075 C 
BRANCH  11  12
HETATM   12  C3  UNL     1      76.095  37.054  61.110  1.00  0.00     0.030 C 
BRANCH  12  13
HETATM   13  C2  UNL     1      76.445  36.843  62.572  1.00  0.00     0.123 C 
BRANCH  13  14
HETATM   14  N3  UNL     1      75.285  36.388  63.306  1.00  0.00    -0.365 N 
HETATM   15  C1  UNL     1      74.430  37.294  64.007  1.00  0.00     0.181 C 
HETATM   16  N1  UNL     1      73.620  38.019  63.360  1.00  0.00    -0.374 N 
HETATM   17  N2  UNL     1      74.564  37.326  65.400  1.00  0.00    -0.064 NA
ATOM     18  H12 UNL     1      73.010  38.666  63.860  1.00  0.00     0.158 HD
ATOM     19  H11 UNL     1      73.523  37.997  62.344  1.00  0.00     0.158 HD
ATOM     20  H3  UNL     1      75.071  35.391  63.324  1.00  0.00     0.162 HD
ENDBRANCH  13  14
ENDBRANCH  12  13
ENDBRANCH  11  12
ENDBRANCH  10  11
ENDBRANCH   9  10
ENDBRANCH   1   9
BRANCH   4  21
HETATM   21  O1  UNL     1      78.974  33.492  66.113  1.00  0.00    -0.392 OA
ATOM     22  H1  UNL     1      79.888  33.306  66.292  1.00  0.00     0.210 HD
ENDBRANCH   4  21
BRANCH   6  23
HETATM   23  O3  UNL     1      75.829  34.374  65.507  1.00  0.00    -0.369 OA
ATOM     24  H3  UNL     1      75.920  34.255  66.445  1.00  0.00     0.212 HD
ENDBRANCH   6  23
BRANCH   5  25
HETATM   25  O2  UNL     1      76.728  32.565  66.979  1.00  0.00    -0.388 OA
ATOM     26  H2  UNL     1      76.085  31.935  67.284  1.00  0.00     0.210 HD
ENDBRANCH   5  25
TORSDOF 9
ENDMDL
MODEL 2
REMARK VINA RESULT: -5.046100145      3.215      5.558
REMARK  9 active torsions:
REMARK  status: ('A' for Active; 'I' for Inactive)
REMARK       I    between atoms: C1_4  and  N3_6 
REMARK    1  A    between atoms: N3_6  and  C2_8 
REMARK    2  A    between atoms: C2_8  and  C3_9 
REMARK    3  A    between atoms: C3_9  and  C4_10 
REMARK    4  A    between atoms: C4_10  and  S1_11 
REMARK    5  A    between atoms: S1_11  and  C5_12 
REMARK    6  A    between atoms: C5_12  and  C6_13 
REMARK    7  A    between atoms: C8_16  and  O1_17 
REMARK    8  A    between atoms: C9_19  and  O2_20 
REMARK    9  A    between atoms: C10_22  and  O3_23 
ROOT
HETATM    1  C6  UNL     1      78.458  33.561  61.777  1.00  0.00     0.087 C 
HETATM    2  S2  UNL     1      79.094  34.866  60.641  1.00  0.00    -0.151 SA
HETATM    3  C7  UNL     1      77.376  34.528  60.282  1.00  0.00     0.109 C 
HETATM    4  C8  UNL     1      76.583  35.693  59.746  1.00  0.00     0.168 C 
HETATM    5  C9  UNL     1      76.684  36.879  60.637  1.00  0.00     0.203 C 
HETATM    6  C10 UNL     1      76.631  36.582  62.096  1.00  0.00     0.288 C 
HETATM    7  O4  UNL     1      77.271  35.456  62.513  1.00  0.00    -0.351 OA
HETATM    8  C11 UNL     1      77.152  34.329  61.754  1.00  0.00     0.155 C 
ENDROOT
BRANCH   1   9
HETATM    9  C5  UNL     1      79.109  33.617  63.119  1.00  0.00     0.091 C 
BRANCH   9  10
HETATM   10  S1  UNL     1      79.327  32.004  63.908  1.00  0.00    -0.168 SA
BRANCH  10  11
HETATM   11  C4  UNL     1      78.164  31.824  65.293  1.00  0.00     0.075 C 
BRANCH  11  12
HETATM   12  C3  UNL     1      77.256  33.023  65.420  1.00  0.00     0.030 C 
BRANCH  12  13
HETATM   13  C2  UNL     1      75.921  32.749  64.753  1.00  0.00     0.123 C 
BRANCH  13  14
HETATM   14  N3  UNL     1      75.811  31.350  64.405  1.00  0.00    -0.365 N 
HETATM   15  C1  UNL     1      75.170  30.919  63.201  1.00  0.00     0.181 C 
HETATM   16  N1  UNL     1      75.764  31.053  62.093  1.00  0.00    -0.374 N 
HETATM   17  N2  UNL     1      73.886  30.377  63.339  1.00  0.00    -0.064 NA
ATOM     18  H12 UNL     1      75.307  30.745  61.234  1.00  0.00     0.158 HD
ATOM     19  H11 UNL     1      76.699  31.448  61.993  1.00  0.00     0.158 HD
ATOM     20  H3  UNL     1      76.201  30.650  65.036  1.00  0.00     0.162 HD
ENDBRANCH  13  14
ENDBRANCH  12  13
ENDBRANCH  11  12
ENDBRANCH  10  11
ENDBRANCH   9  10
ENDBRANCH   1   9
BRANCH   4  21
HETATM   21  O1  UNL     1      75.275  35.279  59.572  1.00  0.00    -0.392 OA
ATOM     22  H1  UNL     1      74.898  35.782  58.860  1.00  0.00     0.210 HD
ENDBRANCH   4  21
BRANCH   6  23
HETATM   23  O3  UNL     1      75.308  36.665  62.590  1.00  0.00    -0.369 OA
ATOM     24  H3  UNL     1      74.902  37.491  62.354  1.00  0.00     0.212 HD
ENDBRANCH   6  23
BRANCH   5  25
HETATM   25  O2  UNL     1      75.587  37.721  60.342  1.00  0.00    -0.388 OA
ATOM     26  H2  UNL     1      75.084  37.820  61.142  1.00  0.00     0.210 HD
ENDBRANCH   5  25
TORSDOF 9
ENDMDL
MODEL 3
REMARK VINA RESULT: -5.028295169      1.607      1.882
REMARK  9 active torsions:
REMARK  status: ('A' for Active; 'I' for Inactive)
REMARK       I    between atoms: C1_4  and  N3_6 
REMARK    1  A    between atoms: N3_6  and  C2_8 
REMARK    2  A    between atoms: C2_8  and  C3_9 
REMARK    3  A    between atoms: C3_9  and  C4_10 
REMARK    4  A    between atoms: C4_10  and  S1_11 
REMARK    5  A    between atoms: S1_11  and  C5_12 
REMARK    6  A    between atoms: C5_12  and  C6_13 
REMARK    7  A    between atoms: C8_16  and  O1_17 
REMARK    8  A    between atoms: C9_19  and  O2_20 
REMARK    9  A    between atoms: C10_22  and  O3_23 
ROOT
HETATM    1  C6  UNL     1      77.727  32.262  60.917  1.00  0.00     0.087 C 
HETATM    2  S2  UNL     1      76.746  31.027  61.873  1.00  0.00    -0.151 SA
HETATM    3  C7  UNL     1      77.779  31.977  62.980  1.00  0.00     0.109 C 
HETATM    4  C8  UNL     1      77.232  32.171  64.372  1.00  0.00     0.168 C 
HETATM    5  C9  UNL     1      75.862  32.751  64.344  1.00  0.00     0.203 C 
HETATM    6  C10 UNL     1      75.647  33.820  63.328  1.00  0.00     0.288 C 
HETATM    7  O4  UNL     1      76.255  33.649  62.123  1.00  0.00    -0.351 OA
HETATM    8  C11 UNL     1      77.536  33.177  62.110  1.00  0.00     0.155 C 
ENDROOT
BRANCH   1   9
HETATM    9  C5  UNL     1      76.991  32.758  59.717  1.00  0.00     0.091 C 
BRANCH   9  10
HETATM   10  S1  UNL     1      77.818  34.108  58.843  1.00  0.00    -0.168 SA
BRANCH  10  11
HETATM   11  C4  UNL     1      76.632  35.439  58.486  1.00  0.00     0.075 C 
BRANCH  11  12
HETATM   12  C3  UNL     1      77.074  36.755  59.076  1.00  0.00     0.030 C 
BRANCH  12  13
HETATM   13  C2  UNL     1      77.109  36.672  60.591  1.00  0.00     0.123 C 
BRANCH  13  14
HETATM   14  N3  UNL     1      75.765  36.678  61.125  1.00  0.00    -0.365 N 
HETATM   15  C1  UNL     1      75.211  37.829  61.766  1.00  0.00     0.181 C 
HETATM   16  N1  UNL     1      74.838  38.816  61.068  1.00  0.00    -0.374 N 
HETATM   17  N2  UNL     1      75.132  37.786  63.164  1.00  0.00    -0.064 NA
ATOM     18  H12 UNL     1      74.443  39.638  61.526  1.00  0.00     0.158 HD
ATOM     19  H11 UNL     1      74.896  38.847  60.051  1.00  0.00     0.158 HD
ATOM     20  H3  UNL     1      75.196  35.835  61.043  1.00  0.00     0.162 HD
ENDBRANCH  13  14
ENDBRANCH  12  13
ENDBRANCH  11  12
ENDBRANCH  10  11
ENDBRANCH   9  10
ENDBRANCH   1   9
BRANCH   4  21
HETATM   21  O1  UNL     1      78.121  32.963  65.076  1.00  0.00    -0.392 OA
ATOM     22  H1  UNL     1      78.402  32.479  65.844  1.00  0.00     0.210 HD
ENDBRANCH   4  21
BRANCH   6  23
HETATM   23  O3  UNL     1      75.883  35.104  63.875  1.00  0.00    -0.369 OA
ATOM     24  H3  UNL     1      75.177  35.704  63.663  1.00  0.00     0.212 HD
ENDBRANCH   6  23
BRANCH   5  25
HETATM   25  O2  UNL     1      75.624  33.326  65.613  1.00  0.00    -0.388 OA
ATOM     26  H2  UNL     1      74.817  32.951  65.945  1.00  0.00     0.210 HD
ENDBRANCH   5  25
TORSDOF 9
ENDMDL
MODEL 4
REMARK VINA RESULT: -5.002180611      1.854      2.869
REMARK  9 active torsions:
REMARK  status: ('A' for Active; 'I' for Inactive)
REMARK       I    between atoms: C1_4  and  N3_6 
REMARK    1  A    between atoms: N3_6  and  C2_8 
REMARK    2  A    between atoms: C2_8  and  C3_9 
REMARK    3  A    between atoms: C3_9  and  C4_10 
REMARK    4  A    between atoms: C4_10  and  S1_11 
REMARK    5  A    between atoms: S1_11  and  C5_12 
REMARK    6  A    between atoms: C5_12  and  C6_13 
REMARK    7  A    between atoms: C8_16  and  O1_17 
REMARK    8  A    between atoms: C9_19  and  O2_20 
REMARK    9  A    between atoms: C10_22  and  O3_23 
ROOT
HETATM    1  C6  UNL     1      75.960  32.499  63.594  1.00  0.00     0.087 C 
HETATM    2  S2  UNL     1      76.994  33.976  63.978  1.00  0.00    -0.151 SA
HETATM    3  C7  UNL     1      76.297  33.309  65.483  1.00  0.00     0.109 C 
HETATM    4  C8  UNL     1      77.130  33.504  66.726  1.00  0.00     0.168 C 
HETATM    5  C9  UNL     1      78.513  32.990  66.543  1.00  0.00     0.203 C 
HETATM    6  C10 UNL     1      78.618  31.703  65.800  1.00  0.00     0.288 C 
HETATM    7  O4  UNL     1      77.766  31.531  64.753  1.00  0.00    -0.351 OA
HETATM    8  C11 UNL     1      76.471  31.934  64.904  1.00  0.00     0.155 C 
ENDROOT
BRANCH   1   9
HETATM    9  C5  UNL     1      76.481  31.736  62.422  1.00  0.00     0.091 C 
BRANCH   9  10
HETATM   10  S1  UNL     1      77.745  32.609  61.468  1.00  0.00    -0.168 SA
BRANCH  10  11
HETATM   11  C4  UNL     1      76.981  33.466  60.059  1.00  0.00     0.075 C 
BRANCH  11  12
HETATM   12  C3  UNL     1      77.160  34.962  60.150  1.00  0.00     0.030 C 
BRANCH  12  13
HETATM   13  C2  UNL     1      75.958  35.599  60.823  1.00  0.00     0.123 C 
BRANCH  13  14
HETATM   14  N3  UNL     1      76.267  36.953  61.226  1.00  0.00    -0.365 N 
HETATM   15  C1  UNL     1      75.253  37.861  61.665  1.00  0.00     0.181 C 
HETATM   16  N1  UNL     1      74.752  37.730  62.819  1.00  0.00    -0.374 N 
HETATM   17  N2  UNL     1      74.866  38.850  60.752  1.00  0.00    -0.064 NA
ATOM     18  H12 UNL     1      74.028  38.378  63.131  1.00  0.00     0.158 HD
ATOM     19  H11 UNL     1      75.033  37.010  63.483  1.00  0.00     0.158 HD
ATOM     20  H3  UNL     1      77.236  37.270  61.197  1.00  0.00     0.162 HD
ENDBRANCH  13  14
ENDBRANCH  12  13
ENDBRANCH  11  12
ENDBRANCH  10  11
ENDBRANCH   9  10
ENDBRANCH   1   9
BRANCH   4  21
HETATM   21  O1  UNL     1      76.478  32.891  67.780  1.00  0.00    -0.392 OA
ATOM     22  H1  UNL     1      76.544  33.459  68.539  1.00  0.00     0.210 HD
ENDBRANCH   4  21
BRANCH   6  23
HETATM   23  O3  UNL     1      78.617  30.597  66.684  1.00  0.00    -0.369 OA
ATOM     24  H3  UNL     1      79.493  30.247  66.799  1.00  0.00     0.212 HD
ENDBRANCH   6  23
BRANCH   5  25
HETATM   25  O2  UNL     1      79.055  32.775  67.831  1.00  0.00    -0.388 OA
ATOM     26  H2  UNL     1      79.908  32.374  67.715  1.00  0.00     0.210 HD
ENDBRANCH   5  25
TORSDOF 9
ENDMDL
MODEL 5
REMARK VINA RESULT: -4.934571826      4.070      6.451
REMARK  9 active torsions:
REMARK  status: ('A' for Active; 'I' for Inactive)
REMARK       I    between atoms: C1_4  and  N3_6 
REMARK    1  A    between atoms: N3_6  and  C2_8 
REMARK    2  A    between atoms: C2_8  and  C3_9 
REMARK    3  A    between atoms: C3_9  and  C4_10 
REMARK    4  A    between atoms: C4_10  and  S1_11 
REMARK    5  A    between atoms: S1_11  and  C5_12 
REMARK    6  A    between atoms: C5_12  and  C6_13 
REMARK    7  A    between atoms: C8_16  and  O1_17 
REMARK    8  A    between atoms: C9_19  and  O2_20 
REMARK    9  A    between atoms: C10_22  and  O3_23 
ROOT
HETATM    1  C6  UNL     1      76.310  35.195  63.421  1.00  0.00     0.087 C 
HETATM    2  S2  UNL     1      75.224  36.515  62.730  1.00  0.00    -0.151 SA
HETATM    3  C7  UNL     1      76.858  36.630  62.014  1.00  0.00     0.109 C 
HETATM    4  C8  UNL     1      76.914  37.171  60.608  1.00  0.00     0.168 C 
HETATM    5  C9  UNL     1      76.019  36.412  59.694  1.00  0.00     0.203 C 
HETATM    6  C10 UNL     1      76.009  34.936  59.898  1.00  0.00     0.288 C 
HETATM    7  O4  UNL     1      76.072  34.498  61.185  1.00  0.00    -0.351 OA
HETATM    8  C11 UNL     1      76.928  35.130  62.039  1.00  0.00     0.155 C 
ENDROOT
BRANCH   1   9
HETATM    9  C5  UNL     1      75.549  33.952  63.745  1.00  0.00     0.091 C 
BRANCH   9  10
HETATM   10  S1  UNL     1      76.585  32.545  64.210  1.00  0.00    -0.168 SA
BRANCH  10  11
HETATM   11  C4  UNL     1      75.683  30.990  63.942  1.00  0.00     0.075 C 
BRANCH  11  12
HETATM   12  C3  UNL     1      75.643  30.611  62.482  1.00  0.00     0.030 C 
BRANCH  12  13
HETATM   13  C2  UNL     1      76.913  31.061  61.783  1.00  0.00     0.123 C 
BRANCH  13  14
HETATM   14  N3  UNL     1      76.620  31.478  60.430  1.00  0.00    -0.365 N 
HETATM   15  C1  UNL     1      77.290  30.909  59.301  1.00  0.00     0.181 C 
HETATM   16  N1  UNL     1      76.982  29.746  58.911  1.00  0.00    -0.374 N 
HETATM   17  N2  UNL     1      78.279  31.698  58.701  1.00  0.00    -0.064 NA
ATOM     18  H12 UNL     1      77.460  29.340  58.107  1.00  0.00     0.158 HD
ATOM     19  H11 UNL     1      76.262  29.171  59.349  1.00  0.00     0.158 HD
ATOM     20  H3  UNL     1      75.916  32.200  60.275  1.00  0.00     0.162 HD
ENDBRANCH  13  14
ENDBRANCH  12  13
ENDBRANCH  11  12
ENDBRANCH  10  11
ENDBRANCH   9  10
ENDBRANCH   1   9
BRANCH   4  21
HETATM   21  O1  UNL     1      78.232  37.146  60.190  1.00  0.00    -0.392 OA
ATOM     22  H1  UNL     1      78.594  38.018  60.303  1.00  0.00     0.210 HD
ENDBRANCH   4  21
BRANCH   6  23
HETATM   23  O3  UNL     1      76.954  34.295  59.062  1.00  0.00    -0.369 OA
ATOM     24  H3  UNL     1      77.760  34.111  59.530  1.00  0.00     0.212 HD
ENDBRANCH   6  23
BRANCH   5  25
HETATM   25  O2  UNL     1      76.468  36.649  58.374  1.00  0.00    -0.388 OA
ATOM     26  H2  UNL     1      75.808  37.178  57.943  1.00  0.00     0.210 HD
ENDBRANCH   5  25
TORSDOF 9
ENDMDL
