MODEL 1
REMARK VINA RESULT: -4.676669048      0.000      0.000
REMARK  6 active torsions:
REMARK  status: ('A' for Active; 'I' for Inactive)
REMARK    1  A    between atoms: N1_1  and  C1_5 
REMARK    2  A    between atoms: C1_5  and  C2_6 
REMARK    3  A    between atoms: C2_6  and  C3_7 
REMARK    4  A    between atoms: C3_7  and  N2_8 
REMARK    5  A    between atoms: N2_8  and  C4_10 
REMARK    6  A    between atoms: C4_10  and  C5_11 
ROOT
HETATM    1  C5  UNL     1      85.377  -4.750  44.022  1.00  0.00     0.241 C 
HETATM    2  C6  UNL     1      86.199  -4.742  42.812  1.00  0.00     0.094 C 
HETATM    3  N3  UNL     1      87.296  -3.871  42.711  1.00  0.00    -0.380 N 
ATOM      4  H3  UNL     1      87.964  -3.992  41.949  1.00  0.00     0.164 HD
HETATM    5  C7  UNL     1      87.489  -2.841  43.636  1.00  0.00     0.062 C 
HETATM    6  C8  UNL     1      86.376  -1.813  43.725  1.00  0.00     0.072 C 
HETATM    7  C9  UNL     1      85.154  -2.456  44.289  1.00  0.00     0.238 C 
HETATM    8  N4  UNL     1      85.576  -3.695  44.964  1.00  0.00    -0.065 N 
ATOM      9  H41 UNL     1      86.526  -3.653  45.331  1.00  0.00     0.278 HD
ATOM     10  H42 UNL     1      85.104  -3.852  45.855  1.00  0.00     0.278 HD
ENDROOT
BRANCH   1  11
HETATM   11  C4  UNL     1      85.329  -6.126  44.719  1.00  0.00     0.152 C 
BRANCH  11  12
HETATM   12  N2  UNL     1      84.214  -6.797  44.143  1.00  0.00    -0.419 N 
ATOM     13  H2  UNL     1      83.261  -6.477  44.318  1.00  0.00     0.153 HD
BRANCH  12  14
HETATM   14  C3  UNL     1      84.464  -7.917  43.323  1.00  0.00     0.115 C 
BRANCH  14  15
HETATM   15  C2  UNL     1      83.446  -9.017  43.422  1.00  0.00     0.046 C 
BRANCH  15  16
HETATM   16  C1  UNL     1      82.221  -8.516  44.200  1.00  0.00     0.231 C 
BRANCH  16  17
HETATM   17  N1  UNL     1      81.352  -9.618  44.563  1.00  0.00    -0.079 N 
ATOM     18  H13 UNL     1      81.707 -10.508  44.214  1.00  0.00     0.274 HD
ATOM     19  H12 UNL     1      81.393  -9.817  45.563  1.00  0.00     0.274 HD
ATOM     20  H11 UNL     1      80.396  -9.446  44.254  1.00  0.00     0.274 HD
ENDBRANCH  16  17
ENDBRANCH  15  16
ENDBRANCH  14  15
ENDBRANCH  12  14
ENDBRANCH  11  12
ENDBRANCH   1  11
TORSDOF 6
ENDMDL
MODEL 2
REMARK VINA RESULT: -4.609258918      2.693      5.919
REMARK  6 active torsions:
REMARK  status: ('A' for Active; 'I' for Inactive)
REMARK    1  A    between atoms: N1_1  and  C1_5 
REMARK    2  A    between atoms: C1_5  and  C2_6 
REMARK    3  A    between atoms: C2_6  and  C3_7 
REMARK    4  A    between atoms: C3_7  and  N2_8 
REMARK    5  A    between atoms: N2_8  and  C4_10 
REMARK    6  A    between atoms: C4_10  and  C5_11 
ROOT
HETATM    1  C5  UNL     1      86.325  -3.610  43.029  1.00  0.00     0.241 C 
HETATM    2  C6  UNL     1      86.539  -4.877  42.331  1.00  0.00     0.094 C 
HETATM    3  N3  UNL     1      85.723  -5.985  42.616  1.00  0.00    -0.380 N 
ATOM      4  H3  UNL     1      85.759  -6.803  42.008  1.00  0.00     0.164 HD
HETATM    5  C7  UNL     1      84.864  -5.986  43.718  1.00  0.00     0.062 C 
HETATM    6  C8  UNL     1      85.525  -5.821  45.075  1.00  0.00     0.072 C 
HETATM    7  C9  UNL     1      86.098  -4.448  45.182  1.00  0.00     0.238 C 
HETATM    8  N4  UNL     1      85.447  -3.615  44.157  1.00  0.00    -0.065 N 
ATOM      9  H41 UNL     1      84.500  -3.916  43.931  1.00  0.00     0.278 HD
ATOM     10  H42 UNL     1      85.206  -2.681  44.487  1.00  0.00     0.278 HD
ENDROOT
BRANCH   1  11
HETATM   11  C4  UNL     1      86.016  -2.433  42.079  1.00  0.00     0.152 C 
BRANCH  11  12
HETATM   12  N2  UNL     1      85.046  -1.647  42.761  1.00  0.00    -0.419 N 
ATOM     13  H2  UNL     1      84.625  -1.973  43.632  1.00  0.00     0.153 HD
BRANCH  12  14
HETATM   14  C3  UNL     1      84.685  -0.405  42.199  1.00  0.00     0.115 C 
BRANCH  14  15
HETATM   15  C2  UNL     1      85.348  -0.084  40.890  1.00  0.00     0.046 C 
BRANCH  15  16
HETATM   16  C1  UNL     1      84.313  -0.154  39.758  1.00  0.00     0.231 C 
BRANCH  16  17
HETATM   17  N1  UNL     1      84.557  -1.301  38.904  1.00  0.00    -0.079 N 
ATOM     18  H13 UNL     1      85.481  -1.701  39.067  1.00  0.00     0.274 HD
ATOM     19  H12 UNL     1      83.990  -2.103  39.181  1.00  0.00     0.274 HD
ATOM     20  H11 UNL     1      84.417  -1.061  37.923  1.00  0.00     0.274 HD
ENDBRANCH  16  17
ENDBRANCH  15  16
ENDBRANCH  14  15
ENDBRANCH  12  14
ENDBRANCH  11  12
ENDBRANCH   1  11
TORSDOF 6
ENDMDL
MODEL 3
REMARK VINA RESULT: -4.594165532      1.195      1.889
REMARK  6 active torsions:
REMARK  status: ('A' for Active; 'I' for Inactive)
REMARK    1  A    between atoms: N1_1  and  C1_5 
REMARK    2  A    between atoms: C1_5  and  C2_6 
REMARK    3  A    between atoms: C2_6  and  C3_7 
REMARK    4  A    between atoms: C3_7  and  N2_8 
REMARK    5  A    between atoms: N2_8  and  C4_10 
REMARK    6  A    between atoms: C4_10  and  C5_11 
ROOT
HETATM    1  C5  UNL     1      86.012  -4.666  44.332  1.00  0.00     0.241 C 
HETATM    2  C6  UNL     1      85.820  -3.559  45.269  1.00  0.00     0.094 C 
HETATM    3  N3  UNL     1      85.089  -2.425  44.878  1.00  0.00    -0.380 N 
ATOM      4  H3  UNL     1      84.809  -1.742  45.582  1.00  0.00     0.164 HD
HETATM    5  C7  UNL     1      84.739  -2.215  43.541  1.00  0.00     0.062 C 
HETATM    6  C8  UNL     1      85.894  -2.103  42.563  1.00  0.00     0.072 C 
HETATM    7  C9  UNL     1      86.582  -3.422  42.457  1.00  0.00     0.238 C 
HETATM    8  N4  UNL     1      85.656  -4.447  42.966  1.00  0.00    -0.065 N 
ATOM      9  H41 UNL     1      84.673  -4.205  42.838  1.00  0.00     0.278 HD
ATOM     10  H42 UNL     1      85.649  -5.300  42.407  1.00  0.00     0.278 HD
ENDROOT
BRANCH   1  11
HETATM   11  C4  UNL     1      85.459  -6.010  44.851  1.00  0.00     0.152 C 
BRANCH  11  12
HETATM   12  N2  UNL     1      84.879  -6.639  43.715  1.00  0.00    -0.419 N 
ATOM     13  H2  UNL     1      85.137  -6.355  42.769  1.00  0.00     0.153 HD
BRANCH  12  14
HETATM   14  C3  UNL     1      83.936  -7.665  43.933  1.00  0.00     0.115 C 
BRANCH  14  15
HETATM   15  C2  UNL     1      84.230  -8.958  43.227  1.00  0.00     0.046 C 
BRANCH  15  16
HETATM   16  C1  UNL     1      83.029  -9.905  43.364  1.00  0.00     0.231 C 
BRANCH  16  17
HETATM   17  N1  UNL     1      81.922  -9.245  44.028  1.00  0.00    -0.079 N 
ATOM     18  H13 UNL     1      81.912  -8.243  43.838  1.00  0.00     0.274 HD
ATOM     19  H12 UNL     1      81.028  -9.492  43.604  1.00  0.00     0.274 HD
ATOM     20  H11 UNL     1      81.929  -9.439  45.029  1.00  0.00     0.274 HD
ENDBRANCH  16  17
ENDBRANCH  15  16
ENDBRANCH  14  15
ENDBRANCH  12  14
ENDBRANCH  11  12
ENDBRANCH   1  11
TORSDOF 6
ENDMDL
MODEL 4
REMARK VINA RESULT: -4.530276708      3.325      5.915
REMARK  6 active torsions:
REMARK  status: ('A' for Active; 'I' for Inactive)
REMARK    1  A    between atoms: N1_1  and  C1_5 
REMARK    2  A    between atoms: C1_5  and  C2_6 
REMARK    3  A    between atoms: C2_6  and  C3_7 
REMARK    4  A    between atoms: C3_7  and  N2_8 
REMARK    5  A    between atoms: N2_8  and  C4_10 
REMARK    6  A    between atoms: C4_10  and  C5_11 
ROOT
HETATM    1  C5  UNL     1      87.595  -4.509  43.118  1.00  0.00     0.241 C 
HETATM    2  C6  UNL     1      87.043  -3.723  44.221  1.00  0.00     0.094 C 
HETATM    3  N3  UNL     1      86.168  -4.321  45.144  1.00  0.00    -0.380 N 
ATOM      4  H3  UNL     1      85.929  -3.824  46.002  1.00  0.00     0.164 HD
HETATM    5  C7  UNL     1      85.619  -5.584  44.906  1.00  0.00     0.062 C 
HETATM    6  C8  UNL     1      84.771  -5.714  43.654  1.00  0.00     0.072 C 
HETATM    7  C9  UNL     1      85.640  -5.567  42.450  1.00  0.00     0.238 C 
HETATM    8  N4  UNL     1      87.030  -5.799  42.877  1.00  0.00    -0.065 N 
ATOM      9  H41 UNL     1      87.110  -6.431  43.673  1.00  0.00     0.278 HD
ATOM     10  H42 UNL     1      87.568  -6.361  42.217  1.00  0.00     0.278 HD
ENDROOT
BRANCH   1  11
HETATM   11  C4  UNL     1      89.138  -4.559  43.116  1.00  0.00     0.152 C 
BRANCH  11  12
HETATM   12  N2  UNL     1      89.468  -5.915  43.394  1.00  0.00    -0.419 N 
ATOM     13  H2  UNL     1      88.913  -6.466  44.049  1.00  0.00     0.153 HD
BRANCH  12  14
HETATM   14  C3  UNL     1      90.584  -6.474  42.738  1.00  0.00     0.115 C 
BRANCH  14  15
HETATM   15  C2  UNL     1      90.287  -7.114  41.412  1.00  0.00     0.046 C 
BRANCH  15  16
HETATM   16  C1  UNL     1      90.860  -6.247  40.281  1.00  0.00     0.231 C 
BRANCH  16  17
HETATM   17  N1  UNL     1      92.034  -6.865  39.698  1.00  0.00    -0.079 N 
ATOM     18  H13 UNL     1      91.925  -7.875  39.613  1.00  0.00     0.274 HD
ATOM     19  H12 UNL     1      92.128  -6.636  38.708  1.00  0.00     0.274 HD
ATOM     20  H11 UNL     1      92.874  -6.619  40.222  1.00  0.00     0.274 HD
ENDBRANCH  16  17
ENDBRANCH  15  16
ENDBRANCH  14  15
ENDBRANCH  12  14
ENDBRANCH  11  12
ENDBRANCH   1  11
TORSDOF 6
ENDMDL
MODEL 5
REMARK VINA RESULT: -4.513545540      2.884      6.036
REMARK  6 active torsions:
REMARK  status: ('A' for Active; 'I' for Inactive)
REMARK    1  A    between atoms: N1_1  and  C1_5 
REMARK    2  A    between atoms: C1_5  and  C2_6 
REMARK    3  A    between atoms: C2_6  and  C3_7 
REMARK    4  A    between atoms: C3_7  and  N2_8 
REMARK    5  A    between atoms: N2_8  and  C4_10 
REMARK    6  A    between atoms: C4_10  and  C5_11 
ROOT
HETATM    1  C5  UNL     1      86.456  -3.160  43.292  1.00  0.00     0.241 C 
HETATM    2  C6  UNL     1      85.760  -2.844  44.539  1.00  0.00     0.094 C 
HETATM    3  N3  UNL     1      85.648  -3.814  45.549  1.00  0.00    -0.380 N 
ATOM      4  H3  UNL     1      85.322  -3.537  46.476  1.00  0.00     0.164 HD
HETATM    5  C7  UNL     1      85.975  -5.151  45.307  1.00  0.00     0.062 C 
HETATM    6  C8  UNL     1      85.172  -5.844  44.221  1.00  0.00     0.072 C 
HETATM    7  C9  UNL     1      85.507  -5.241  42.898  1.00  0.00     0.238 C 
HETATM    8  N4  UNL     1      86.786  -4.528  43.047  1.00  0.00    -0.065 N 
ATOM      9  H41 UNL     1      87.395  -4.932  43.760  1.00  0.00     0.278 HD
ATOM     10  H42 UNL     1      87.417  -4.658  42.256  1.00  0.00     0.278 HD
ENDROOT
BRANCH   1  11
HETATM   11  C4  UNL     1      87.654  -2.231  43.008  1.00  0.00     0.152 C 
BRANCH  11  12
HETATM   12  N2  UNL     1      87.550  -1.898  41.629  1.00  0.00    -0.419 N 
ATOM     13  H2  UNL     1      88.374  -1.896  41.026  1.00  0.00     0.153 HD
BRANCH  12  14
HETATM   14  C3  UNL     1      86.276  -1.572  41.119  1.00  0.00     0.115 C 
BRANCH  14  15
HETATM   15  C2  UNL     1      85.888  -0.128  41.257  1.00  0.00     0.046 C 
BRANCH  15  16
HETATM   16  C1  UNL     1      84.378   0.024  41.023  1.00  0.00     0.231 C 
BRANCH  16  17
HETATM   17  N1  UNL     1      84.024  -0.346  39.667  1.00  0.00    -0.079 N 
ATOM     18  H13 UNL     1      83.229   0.194  39.325  1.00  0.00     0.274 HD
ATOM     19  H12 UNL     1      84.724  -0.032  38.995  1.00  0.00     0.274 HD
ATOM     20  H11 UNL     1      83.857  -1.349  39.595  1.00  0.00     0.274 HD
ENDBRANCH  16  17
ENDBRANCH  15  16
ENDBRANCH  14  15
ENDBRANCH  12  14
ENDBRANCH  11  12
ENDBRANCH   1  11
TORSDOF 6
ENDMDL
