MODEL 1
REMARK VINA RESULT: -5.028751136      0.000      0.000
REMARK  7 active torsions:
REMARK  status: ('A' for Active; 'I' for Inactive)
REMARK    1  A    between atoms: N1_1  and  C1_5 
REMARK    2  A    between atoms: C1_5  and  C2_6 
REMARK    3  A    between atoms: C2_6  and  N2_7 
REMARK    4  A    between atoms: N2_7  and  C3_10 
REMARK    5  A    between atoms: C3_10  and  C4_11 
REMARK    6  A    between atoms: C5_12  and  N3_13 
REMARK    7  A    between atoms: C6_17  and  C7_18 
ROOT
HETATM    1  C4  UNL     1      85.245  -3.943  43.695  1.00  0.00     0.054 A 
HETATM    2  C5  UNL     1      84.852  -5.358  43.674  1.00  0.00     0.200 A 
HETATM    3  C6  UNL     1      85.757  -4.747  42.602  1.00  0.00     0.075 A 
ENDROOT
BRANCH   1   4
HETATM    4  C3  UNL     1      85.988  -3.425  44.870  1.00  0.00     0.239 C 
BRANCH   4   5
HETATM    5  N2  UNL     1      85.151  -2.451  45.572  1.00  0.00    -0.073 N 
ATOM      6  H22 UNL     1      85.652  -2.012  46.345  1.00  0.00     0.277 HD
ATOM      7  H21 UNL     1      84.410  -2.906  46.106  1.00  0.00     0.277 HD
BRANCH   5   8
HETATM    8  C2  UNL     1      84.618  -1.464  44.650  1.00  0.00     0.259 C 
BRANCH   8   9
HETATM    9  C1  UNL     1      83.803  -0.483  45.452  1.00  0.00     0.257 C 
BRANCH   9  10
HETATM   10  N1  UNL     1      83.597  -0.897  46.808  1.00  0.00    -0.078 N 
ATOM     11  H13 UNL     1      84.315  -1.561  47.098  1.00  0.00     0.274 HD
ATOM     12  H12 UNL     1      83.803  -0.136  47.455  1.00  0.00     0.274 HD
ATOM     13  H11 UNL     1      82.665  -1.274  46.975  1.00  0.00     0.274 HD
ENDBRANCH   9  10
ENDBRANCH   8   9
ENDBRANCH   5   8
ENDBRANCH   4   5
ENDBRANCH   1   4
BRANCH   2  14
HETATM   14  N3  UNL     1      85.463  -6.396  44.443  1.00  0.00    -0.074 N 
ATOM     15  H33 UNL     1      86.327  -6.009  44.821  1.00  0.00     0.274 HD
ATOM     16  H32 UNL     1      84.886  -6.521  45.274  1.00  0.00     0.274 HD
ATOM     17  H31 UNL     1      85.687  -7.330  44.099  1.00  0.00     0.274 HD
ENDBRANCH   2  14
BRANCH   3  18
HETATM   18  C7  UNL     1      87.116  -5.291  42.483  1.00  0.00     0.033 A 
HETATM   19  C8  UNL     1      88.233  -4.701  43.070  1.00  0.00     0.045 A 
HETATM   20  C9  UNL     1      89.336  -5.475  42.758  1.00  0.00     0.109 A 
HETATM   21  N4  UNL     1      88.893  -6.496  42.009  1.00  0.00    -0.312 N 
HETATM   22  N5  UNL     1      87.593  -6.363  41.864  1.00  0.00    -0.305 N 
ATOM     23  H4  UNL     1      89.464  -7.245  41.619  1.00  0.00     0.186 HD
ATOM     24  H5  UNL     1      87.014  -7.014  41.333  1.00  0.00     0.186 HD
ENDBRANCH   3  18
TORSDOF 7
ENDMDL
MODEL 2
REMARK VINA RESULT: -4.976451430      6.148      6.679
REMARK  7 active torsions:
REMARK  status: ('A' for Active; 'I' for Inactive)
REMARK    1  A    between atoms: N1_1  and  C1_5 
REMARK    2  A    between atoms: C1_5  and  C2_6 
REMARK    3  A    between atoms: C2_6  and  N2_7 
REMARK    4  A    between atoms: N2_7  and  C3_10 
REMARK    5  A    between atoms: C3_10  and  C4_11 
REMARK    6  A    between atoms: C5_12  and  N3_13 
REMARK    7  A    between atoms: C6_17  and  C7_18 
ROOT
HETATM    1  C4  UNL     1      88.036  -4.491  38.916  1.00  0.00     0.054 A 
HETATM    2  C5  UNL     1      89.419  -4.439  39.408  1.00  0.00     0.200 A 
HETATM    3  C6  UNL     1      88.443  -5.537  39.835  1.00  0.00     0.075 A 
ENDROOT
BRANCH   1   4
HETATM    4  C3  UNL     1      87.800  -4.602  37.456  1.00  0.00     0.239 C 
BRANCH   4   5
HETATM    5  N2  UNL     1      86.997  -3.461  37.014  1.00  0.00    -0.073 N 
ATOM      6  H22 UNL     1      86.858  -3.468  36.003  1.00  0.00     0.277 HD
ATOM      7  H21 UNL     1      87.512  -2.585  37.093  1.00  0.00     0.277 HD
BRANCH   5   8
HETATM    8  C2  UNL     1      85.734  -3.408  37.728  1.00  0.00     0.259 C 
BRANCH   8   9
HETATM    9  C1  UNL     1      84.735  -4.227  36.952  1.00  0.00     0.257 C 
BRANCH   9  10
HETATM   10  N1  UNL     1      83.578  -3.479  36.559  1.00  0.00    -0.078 N 
ATOM     11  H13 UNL     1      83.844  -2.567  36.187  1.00  0.00     0.274 HD
ATOM     12  H12 UNL     1      83.151  -3.882  35.725  1.00  0.00     0.274 HD
ATOM     13  H11 UNL     1      82.892  -3.379  37.307  1.00  0.00     0.274 HD
ENDBRANCH   9  10
ENDBRANCH   8   9
ENDBRANCH   5   8
ENDBRANCH   4   5
ENDBRANCH   1   4
BRANCH   2  14
HETATM   14  N3  UNL     1      90.566  -4.911  38.697  1.00  0.00    -0.074 N 
ATOM     15  H33 UNL     1      90.956  -4.107  38.206  1.00  0.00     0.274 HD
ATOM     16  H32 UNL     1      91.277  -5.119  39.397  1.00  0.00     0.274 HD
ATOM     17  H31 UNL     1      90.570  -5.687  38.036  1.00  0.00     0.274 HD
ENDBRANCH   2  14
BRANCH   3  18
HETATM   18  C7  UNL     1      88.792  -6.918  39.481  1.00  0.00     0.033 A 
HETATM   19  C8  UNL     1      89.336  -7.830  40.384  1.00  0.00     0.045 A 
HETATM   20  C9  UNL     1      89.534  -9.023  39.716  1.00  0.00     0.109 A 
HETATM   21  N4  UNL     1      89.122  -8.834  38.453  1.00  0.00    -0.312 N 
HETATM   22  N5  UNL     1      88.694  -7.596  38.344  1.00  0.00    -0.305 N 
ATOM     23  H4  UNL     1      89.138  -9.529  37.707  1.00  0.00     0.186 HD
ATOM     24  H5  UNL     1      88.326  -7.199  37.479  1.00  0.00     0.186 HD
ENDBRANCH   3  18
TORSDOF 7
ENDMDL
MODEL 3
REMARK VINA RESULT: -4.904857242      2.897      4.841
REMARK  7 active torsions:
REMARK  status: ('A' for Active; 'I' for Inactive)
REMARK    1  A    between atoms: N1_1  and  C1_5 
REMARK    2  A    between atoms: C1_5  and  C2_6 
REMARK    3  A    between atoms: C2_6  and  N2_7 
REMARK    4  A    between atoms: N2_7  and  C3_10 
REMARK    5  A    between atoms: C3_10  and  C4_11 
REMARK    6  A    between atoms: C5_12  and  N3_13 
REMARK    7  A    between atoms: C6_17  and  C7_18 
ROOT
HETATM    1  C4  UNL     1      86.986  -3.000  43.851  1.00  0.00     0.054 A 
HETATM    2  C5  UNL     1      85.895  -2.207  44.433  1.00  0.00     0.200 A 
HETATM    3  C6  UNL     1      86.790  -1.666  43.315  1.00  0.00     0.075 A 
ENDROOT
BRANCH   1   4
HETATM    4  C3  UNL     1      86.663  -4.296  43.207  1.00  0.00     0.239 C 
BRANCH   4   5
HETATM    5  N2  UNL     1      86.891  -5.377  44.168  1.00  0.00    -0.073 N 
ATOM      6  H22 UNL     1      87.628  -5.140  44.833  1.00  0.00     0.277 HD
ATOM      7  H21 UNL     1      87.332  -6.185  43.729  1.00  0.00     0.277 HD
BRANCH   5   8
HETATM    8  C2  UNL     1      85.657  -5.739  44.842  1.00  0.00     0.259 C 
BRANCH   8   9
HETATM    9  C1  UNL     1      84.647  -6.100  43.783  1.00  0.00     0.257 C 
BRANCH   9  10
HETATM   10  N1  UNL     1      83.818  -7.210  44.151  1.00  0.00    -0.078 N 
ATOM     11  H13 UNL     1      84.296  -8.094  43.978  1.00  0.00     0.274 HD
ATOM     12  H12 UNL     1      83.720  -7.269  45.165  1.00  0.00     0.274 HD
ATOM     13  H11 UNL     1      82.905  -7.196  43.698  1.00  0.00     0.274 HD
ENDBRANCH   9  10
ENDBRANCH   8   9
ENDBRANCH   5   8
ENDBRANCH   4   5
ENDBRANCH   1   4
BRANCH   2  14
HETATM   14  N3  UNL     1      84.514  -2.321  44.082  1.00  0.00    -0.074 N 
ATOM     15  H33 UNL     1      83.991  -1.792  44.780  1.00  0.00     0.274 HD
ATOM     16  H32 UNL     1      84.382  -1.771  43.233  1.00  0.00     0.274 HD
ATOM     17  H31 UNL     1      84.012  -3.198  43.943  1.00  0.00     0.274 HD
ENDBRANCH   2  14
BRANCH   3  18
HETATM   18  C7  UNL     1      86.141  -1.326  42.043  1.00  0.00     0.033 A 
HETATM   19  C8  UNL     1      85.575  -0.081  41.777  1.00  0.00     0.045 A 
HETATM   20  C9  UNL     1      85.062  -0.113  40.494  1.00  0.00     0.109 A 
HETATM   21  N4  UNL     1      85.312  -1.338  40.007  1.00  0.00    -0.312 N 
HETATM   22  N5  UNL     1      85.942  -2.025  40.933  1.00  0.00    -0.305 N 
ATOM     23  H4  UNL     1      85.057  -1.677  39.079  1.00  0.00     0.186 HD
ATOM     24  H5  UNL     1      86.247  -2.991  40.811  1.00  0.00     0.186 HD
ENDBRANCH   3  18
TORSDOF 7
ENDMDL
MODEL 4
REMARK VINA RESULT: -4.883831158      3.116      4.293
REMARK  7 active torsions:
REMARK  status: ('A' for Active; 'I' for Inactive)
REMARK    1  A    between atoms: N1_1  and  C1_5 
REMARK    2  A    between atoms: C1_5  and  C2_6 
REMARK    3  A    between atoms: C2_6  and  N2_7 
REMARK    4  A    between atoms: N2_7  and  C3_10 
REMARK    5  A    between atoms: C3_10  and  C4_11 
REMARK    6  A    between atoms: C5_12  and  N3_13 
REMARK    7  A    between atoms: C6_17  and  C7_18 
ROOT
HETATM    1  C4  UNL     1      86.320  -2.051  42.924  1.00  0.00     0.054 A 
HETATM    2  C5  UNL     1      87.465  -2.413  43.770  1.00  0.00     0.200 A 
HETATM    3  C6  UNL     1      86.021  -2.699  44.187  1.00  0.00     0.075 A 
ENDROOT
BRANCH   1   4
HETATM    4  C3  UNL     1      86.228  -2.628  41.561  1.00  0.00     0.239 C 
BRANCH   4   5
HETATM    5  N2  UNL     1      86.157  -1.539  40.586  1.00  0.00    -0.073 N 
ATOM      6  H22 UNL     1      85.612  -1.803  39.765  1.00  0.00     0.277 HD
ATOM      7  H21 UNL     1      87.056  -1.382  40.130  1.00  0.00     0.277 HD
BRANCH   5   8
HETATM    8  C2  UNL     1      85.648  -0.326  41.199  1.00  0.00     0.259 C 
BRANCH   8   9
HETATM    9  C1  UNL     1      84.317  -0.016  40.564  1.00  0.00     0.257 C 
BRANCH   9  10
HETATM   10  N1  UNL     1      84.099  -0.727  39.339  1.00  0.00    -0.078 N 
ATOM     11  H13 UNL     1      84.490  -1.667  39.390  1.00  0.00     0.274 HD
ATOM     12  H12 UNL     1      83.113  -0.962  39.226  1.00  0.00     0.274 HD
ATOM     13  H11 UNL     1      84.450  -0.231  38.519  1.00  0.00     0.274 HD
ENDBRANCH   9  10
ENDBRANCH   8   9
ENDBRANCH   5   8
ENDBRANCH   4   5
ENDBRANCH   1   4
BRANCH   2  14
HETATM   14  N3  UNL     1      88.275  -3.579  43.607  1.00  0.00    -0.074 N 
ATOM     15  H33 UNL     1      87.703  -4.374  43.888  1.00  0.00     0.274 HD
ATOM     16  H32 UNL     1      88.386  -3.720  42.604  1.00  0.00     0.274 HD
ATOM     17  H31 UNL     1      89.196  -3.720  44.025  1.00  0.00     0.274 HD
ENDBRANCH   2  14
BRANCH   3  18
HETATM   18  C7  UNL     1      85.644  -4.105  44.376  1.00  0.00     0.033 A 
HETATM   19  C8  UNL     1      84.956  -4.851  43.422  1.00  0.00     0.045 A 
HETATM   20  C9  UNL     1      84.773  -6.124  43.928  1.00  0.00     0.109 A 
HETATM   21  N4  UNL     1      85.335  -6.141  45.147  1.00  0.00    -0.312 N 
HETATM   22  N5  UNL     1      85.835  -4.949  45.382  1.00  0.00    -0.305 N 
ATOM     23  H4  UNL     1      85.368  -6.940  45.780  1.00  0.00     0.186 HD
ATOM     24  H5  UNL     1      86.318  -4.699  46.245  1.00  0.00     0.186 HD
ENDBRANCH   3  18
TORSDOF 7
ENDMDL
MODEL 5
REMARK VINA RESULT: -4.866314039      1.794      2.356
REMARK  7 active torsions:
REMARK  status: ('A' for Active; 'I' for Inactive)
REMARK    1  A    between atoms: N1_1  and  C1_5 
REMARK    2  A    between atoms: C1_5  and  C2_6 
REMARK    3  A    between atoms: C2_6  and  N2_7 
REMARK    4  A    between atoms: N2_7  and  C3_10 
REMARK    5  A    between atoms: C3_10  and  C4_11 
REMARK    6  A    between atoms: C5_12  and  N3_13 
REMARK    7  A    between atoms: C6_17  and  C7_18 
ROOT
HETATM    1  C4  UNL     1      86.703  -2.004  43.694  1.00  0.00     0.054 A 
HETATM    2  C5  UNL     1      87.043  -1.958  42.265  1.00  0.00     0.200 A 
HETATM    3  C6  UNL     1      88.061  -2.366  43.332  1.00  0.00     0.075 A 
ENDROOT
BRANCH   1   4
HETATM    4  C3  UNL     1      85.610  -2.901  44.140  1.00  0.00     0.239 C 
BRANCH   4   5
HETATM    5  N2  UNL     1      84.795  -2.202  45.135  1.00  0.00    -0.073 N 
ATOM      6  H22 UNL     1      85.300  -2.072  46.011  1.00  0.00     0.277 HD
ATOM      7  H21 UNL     1      84.036  -2.790  45.480  1.00  0.00     0.277 HD
BRANCH   5   8
HETATM    8  C2  UNL     1      84.301  -0.943  44.608  1.00  0.00     0.259 C 
BRANCH   8   9
HETATM    9  C1  UNL     1      83.671  -0.185  45.748  1.00  0.00     0.257 C 
BRANCH   9  10
HETATM   10  N1  UNL     1      83.569  -0.960  46.950  1.00  0.00    -0.078 N 
ATOM     11  H13 UNL     1      83.065  -1.830  46.779  1.00  0.00     0.274 HD
ATOM     12  H12 UNL     1      84.477  -1.341  47.214  1.00  0.00     0.274 HD
ATOM     13  H11 UNL     1      83.152  -0.444  47.725  1.00  0.00     0.274 HD
ENDBRANCH   9  10
ENDBRANCH   8   9
ENDBRANCH   5   8
ENDBRANCH   4   5
ENDBRANCH   1   4
BRANCH   2  14
HETATM   14  N3  UNL     1      86.743  -2.980  41.313  1.00  0.00    -0.074 N 
ATOM     15  H33 UNL     1      87.239  -3.817  41.616  1.00  0.00     0.274 HD
ATOM     16  H32 UNL     1      85.765  -3.231  41.452  1.00  0.00     0.274 HD
ATOM     17  H31 UNL     1      86.884  -2.906  40.305  1.00  0.00     0.274 HD
ENDBRANCH   2  14
BRANCH   3  18
HETATM   18  C7  UNL     1      88.607  -3.726  43.252  1.00  0.00     0.033 A 
HETATM   19  C8  UNL     1      89.828  -4.030  42.655  1.00  0.00     0.045 A 
HETATM   20  C9  UNL     1      90.026  -5.394  42.762  1.00  0.00     0.109 A 
HETATM   21  N4  UNL     1      88.957  -5.892  43.404  1.00  0.00    -0.312 N 
HETATM   22  N5  UNL     1      88.145  -4.895  43.677  1.00  0.00    -0.305 N 
ATOM     23  H4  UNL     1      88.802  -6.872  43.638  1.00  0.00     0.186 HD
ATOM     24  H5  UNL     1      87.256  -5.008  44.165  1.00  0.00     0.186 HD
ENDBRANCH   3  18
TORSDOF 7
ENDMDL
