MODEL 1
REMARK VINA RESULT: -5.035125902      0.000      0.000
REMARK  7 active torsions:
REMARK  status: ('A' for Active; 'I' for Inactive)
REMARK    1  A    between atoms: O1_2  and  C2_3 
REMARK    2  A    between atoms: C2_3  and  C3_4 
REMARK    3  A    between atoms: C3_4  and  N1_5 
REMARK    4  A    between atoms: C3_4  and  C4_9 
REMARK    5  A    between atoms: C4_9  and  C5_10 
REMARK    6  A    between atoms: C5_10  and  N2_11 
REMARK    7  A    between atoms: N2_11  and  C6_13 
ROOT
HETATM    1  C5  UNL     1      85.035  -5.948  44.263  1.00  0.00     0.123 C 
ENDROOT
BRANCH   1   2
HETATM    2  C4  UNL     1      85.053  -4.702  43.447  1.00  0.00     0.054 C 
BRANCH   2   3
HETATM    3  C3  UNL     1      85.718  -3.592  44.238  1.00  0.00     0.208 C 
BRANCH   3   4
HETATM    4  C2  UNL     1      84.758  -2.396  44.147  1.00  0.00     0.199 C 
BRANCH   4   5
HETATM    5  O1  UNL     1      84.397  -2.283  42.823  1.00  0.00    -0.394 OA
HETATM    6  C1  UNL     1      84.886  -1.154  42.202  1.00  0.00     0.201 C 
ENDBRANCH   4   5
ENDBRANCH   3   4
BRANCH   3   7
HETATM    7  N1  UNL     1      85.783  -4.020  45.628  1.00  0.00    -0.073 N 
ATOM      8  H13 UNL     1      86.717  -4.327  45.901  1.00  0.00     0.274 HD
ATOM      9  H12 UNL     1      85.696  -3.242  46.283  1.00  0.00     0.274 HD
ATOM     10  H11 UNL     1      85.075  -4.738  45.774  1.00  0.00     0.274 HD
ENDBRANCH   3   7
ENDBRANCH   2   3
ENDBRANCH   1   2
BRANCH   1  11
HETATM   11  N2  UNL     1      84.939  -7.162  43.484  1.00  0.00    -0.375 N 
ATOM     12  H2  UNL     1      85.662  -7.359  42.791  1.00  0.00     0.161 HD
BRANCH  11  13
HETATM   13  C6  UNL     1      83.981  -8.002  43.630  1.00  0.00     0.117 A 
HETATM   14  C7  UNL     1      83.925  -9.321  43.223  1.00  0.00     0.068 A 
HETATM   15  C8  UNL     1      82.706  -9.854  43.585  1.00  0.00     0.111 A 
HETATM   16  N3  UNL     1      82.055  -8.855  44.196  1.00  0.00    -0.310 N 
HETATM   17  N4  UNL     1      82.811  -7.764  44.223  1.00  0.00    -0.286 N 
ATOM     18  H3  UNL     1      81.115  -8.923  44.586  1.00  0.00     0.186 HD
ATOM     19  H4  UNL     1      82.536  -6.872  44.636  1.00  0.00     0.188 HD
ENDBRANCH  11  13
ENDBRANCH   1  11
TORSDOF 7
ENDMDL
MODEL 2
REMARK VINA RESULT: -5.021664495      2.731      6.137
REMARK  7 active torsions:
REMARK  status: ('A' for Active; 'I' for Inactive)
REMARK    1  A    between atoms: O1_2  and  C2_3 
REMARK    2  A    between atoms: C2_3  and  C3_4 
REMARK    3  A    between atoms: C3_4  and  N1_5 
REMARK    4  A    between atoms: C3_4  and  C4_9 
REMARK    5  A    between atoms: C4_9  and  C5_10 
REMARK    6  A    between atoms: C5_10  and  N2_11 
REMARK    7  A    between atoms: N2_11  and  C6_13 
ROOT
HETATM    1  C5  UNL     1      85.054  -2.989  44.059  1.00  0.00     0.123 C 
ENDROOT
BRANCH   1   2
HETATM    2  C4  UNL     1      85.861  -4.240  44.093  1.00  0.00     0.054 C 
BRANCH   2   3
HETATM    3  C3  UNL     1      85.022  -5.394  43.578  1.00  0.00     0.208 C 
BRANCH   3   4
HETATM    4  C2  UNL     1      85.812  -5.978  42.398  1.00  0.00     0.199 C 
BRANCH   4   5
HETATM    5  O1  UNL     1      85.549  -5.173  41.313  1.00  0.00    -0.394 OA
HETATM    6  C1  UNL     1      86.669  -4.812  40.596  1.00  0.00     0.201 C 
ENDBRANCH   4   5
ENDBRANCH   3   4
BRANCH   3   7
HETATM    7  N1  UNL     1      84.964  -6.399  44.630  1.00  0.00    -0.073 N 
ATOM      8  H13 UNL     1      84.279  -7.130  44.438  1.00  0.00     0.274 HD
ATOM      9  H12 UNL     1      85.795  -6.990  44.655  1.00  0.00     0.274 HD
ATOM     10  H11 UNL     1      84.793  -5.924  45.516  1.00  0.00     0.274 HD
ENDBRANCH   3   7
ENDBRANCH   2   3
ENDBRANCH   1   2
BRANCH   1  11
HETATM   11  N2  UNL     1      84.995  -2.290  45.324  1.00  0.00    -0.375 N 
ATOM     12  H2  UNL     1      85.529  -2.657  46.111  1.00  0.00     0.161 HD
BRANCH  11  13
HETATM   13  C6  UNL     1      84.298  -1.228  45.494  1.00  0.00     0.117 A 
HETATM   14  C7  UNL     1      83.900  -0.300  44.552  1.00  0.00     0.068 A 
HETATM   15  C8  UNL     1      83.162   0.687  45.172  1.00  0.00     0.111 A 
HETATM   16  N3  UNL     1      83.132   0.339  46.466  1.00  0.00    -0.310 N 
HETATM   17  N4  UNL     1      83.801  -0.792  46.653  1.00  0.00    -0.286 N 
ATOM     18  H3  UNL     1      82.661   0.867  47.200  1.00  0.00     0.186 HD
ATOM     19  H4  UNL     1      83.919  -1.260  47.552  1.00  0.00     0.188 HD
ENDBRANCH  11  13
ENDBRANCH   1  11
TORSDOF 7
ENDMDL
MODEL 3
REMARK VINA RESULT: -5.012684456      2.826      6.508
REMARK  7 active torsions:
REMARK  status: ('A' for Active; 'I' for Inactive)
REMARK    1  A    between atoms: O1_2  and  C2_3 
REMARK    2  A    between atoms: C2_3  and  C3_4 
REMARK    3  A    between atoms: C3_4  and  N1_5 
REMARK    4  A    between atoms: C3_4  and  C4_9 
REMARK    5  A    between atoms: C4_9  and  C5_10 
REMARK    6  A    between atoms: C5_10  and  N2_11 
REMARK    7  A    between atoms: N2_11  and  C6_13 
ROOT
HETATM    1  C5  UNL     1      85.667  -1.815  44.117  1.00  0.00     0.123 C 
ENDROOT
BRANCH   1   2
HETATM    2  C4  UNL     1      86.344  -3.137  44.007  1.00  0.00     0.054 C 
BRANCH   2   3
HETATM    3  C3  UNL     1      85.399  -4.228  44.472  1.00  0.00     0.208 C 
BRANCH   3   4
HETATM    4  C2  UNL     1      85.420  -5.287  43.360  1.00  0.00     0.199 C 
BRANCH   4   5
HETATM    5  O1  UNL     1      84.203  -5.931  43.408  1.00  0.00    -0.394 OA
HETATM    6  C1  UNL     1      84.280  -7.246  43.812  1.00  0.00     0.201 C 
ENDBRANCH   4   5
ENDBRANCH   3   4
BRANCH   3   7
HETATM    7  N1  UNL     1      85.968  -4.819  45.675  1.00  0.00    -0.073 N 
ATOM      8  H13 UNL     1      86.216  -5.801  45.551  1.00  0.00     0.274 HD
ATOM      9  H12 UNL     1      86.902  -4.465  45.883  1.00  0.00     0.274 HD
ATOM     10  H11 UNL     1      85.312  -4.674  46.442  1.00  0.00     0.274 HD
ENDBRANCH   3   7
ENDBRANCH   2   3
ENDBRANCH   1   2
BRANCH   1  11
HETATM   11  N2  UNL     1      84.422  -1.850  44.851  1.00  0.00    -0.375 N 
ATOM     12  H2  UNL     1      83.900  -2.725  44.888  1.00  0.00     0.161 HD
BRANCH  11  13
HETATM   13  C6  UNL     1      83.948  -0.824  45.456  1.00  0.00     0.117 A 
HETATM   14  C7  UNL     1      83.566   0.390  44.920  1.00  0.00     0.068 A 
HETATM   15  C8  UNL     1      83.112   1.209  45.933  1.00  0.00     0.111 A 
HETATM   16  N3  UNL     1      83.230   0.480  47.051  1.00  0.00    -0.310 N 
HETATM   17  N4  UNL     1      83.722  -0.720  46.767  1.00  0.00    -0.286 N 
ATOM     18  H3  UNL     1      82.978   0.800  47.985  1.00  0.00     0.186 HD
ATOM     19  H4  UNL     1      83.902  -1.455  47.451  1.00  0.00     0.188 HD
ENDBRANCH  11  13
ENDBRANCH   1  11
TORSDOF 7
ENDMDL
MODEL 4
REMARK VINA RESULT: -5.002369897      3.981      6.350
REMARK  7 active torsions:
REMARK  status: ('A' for Active; 'I' for Inactive)
REMARK    1  A    between atoms: O1_2  and  C2_3 
REMARK    2  A    between atoms: C2_3  and  C3_4 
REMARK    3  A    between atoms: C3_4  and  N1_5 
REMARK    4  A    between atoms: C3_4  and  C4_9 
REMARK    5  A    between atoms: C4_9  and  C5_10 
REMARK    6  A    between atoms: C5_10  and  N2_11 
REMARK    7  A    between atoms: N2_11  and  C6_13 
ROOT
HETATM    1  C5  UNL     1      84.726  -2.500  43.496  1.00  0.00     0.123 C 
ENDROOT
BRANCH   1   2
HETATM    2  C4  UNL     1      86.023  -2.841  42.850  1.00  0.00     0.054 C 
BRANCH   2   3
HETATM    3  C3  UNL     1      87.070  -3.085  43.919  1.00  0.00     0.208 C 
BRANCH   3   4
HETATM    4  C2  UNL     1      87.161  -4.612  44.059  1.00  0.00     0.199 C 
BRANCH   4   5
HETATM    5  O1  UNL     1      86.540  -4.935  45.246  1.00  0.00    -0.394 OA
HETATM    6  C1  UNL     1      85.520  -5.852  45.114  1.00  0.00     0.201 C 
ENDBRANCH   4   5
ENDBRANCH   3   4
BRANCH   3   7
HETATM    7  N1  UNL     1      88.343  -2.598  43.408  1.00  0.00    -0.073 N 
ATOM      8  H13 UNL     1      89.080  -3.302  43.453  1.00  0.00     0.274 HD
ATOM      9  H12 UNL     1      88.337  -2.468  42.396  1.00  0.00     0.274 HD
ATOM     10  H11 UNL     1      88.584  -1.745  43.913  1.00  0.00     0.274 HD
ENDBRANCH   3   7
ENDBRANCH   2   3
ENDBRANCH   1   2
BRANCH   1  11
HETATM   11  N2  UNL     1      84.843  -2.092  44.878  1.00  0.00    -0.375 N 
ATOM     12  H2  UNL     1      85.454  -2.627  45.496  1.00  0.00     0.161 HD
BRANCH  11  13
HETATM   13  C6  UNL     1      84.211  -1.086  45.358  1.00  0.00     0.117 A 
HETATM   14  C7  UNL     1      83.734   0.027  44.693  1.00  0.00     0.068 A 
HETATM   15  C8  UNL     1      83.113   0.863  45.597  1.00  0.00     0.111 A 
HETATM   16  N3  UNL     1      83.229   0.245  46.780  1.00  0.00    -0.310 N 
HETATM   17  N4  UNL     1      83.875  -0.906  46.636  1.00  0.00    -0.286 N 
ATOM     18  H3  UNL     1      82.871   0.606  47.664  1.00  0.00     0.186 HD
ATOM     19  H4  UNL     1      84.085  -1.557  47.393  1.00  0.00     0.188 HD
ENDBRANCH  11  13
ENDBRANCH   1  11
TORSDOF 7
ENDMDL
MODEL 5
REMARK VINA RESULT: -4.989864958      1.902      2.370
REMARK  7 active torsions:
REMARK  status: ('A' for Active; 'I' for Inactive)
REMARK    1  A    between atoms: O1_2  and  C2_3 
REMARK    2  A    between atoms: C2_3  and  C3_4 
REMARK    3  A    between atoms: C3_4  and  N1_5 
REMARK    4  A    between atoms: C3_4  and  C4_9 
REMARK    5  A    between atoms: C4_9  and  C5_10 
REMARK    6  A    between atoms: C5_10  and  N2_11 
REMARK    7  A    between atoms: N2_11  and  C6_13 
ROOT
HETATM    1  C5  UNL     1      85.000  -6.012  43.256  1.00  0.00     0.123 C 
ENDROOT
BRANCH   1   2
HETATM    2  C4  UNL     1      85.051  -4.544  43.502  1.00  0.00     0.054 C 
BRANCH   2   3
HETATM    3  C3  UNL     1      85.996  -4.259  44.653  1.00  0.00     0.208 C 
BRANCH   3   4
HETATM    4  C2  UNL     1      87.349  -3.939  44.001  1.00  0.00     0.199 C 
BRANCH   4   5
HETATM    5  O1  UNL     1      88.131  -5.064  44.148  1.00  0.00    -0.394 OA
HETATM    6  C1  UNL     1      89.110  -5.198  43.187  1.00  0.00     0.201 C 
ENDBRANCH   4   5
ENDBRANCH   3   4
BRANCH   3   7
HETATM    7  N1  UNL     1      85.520  -3.059  45.326  1.00  0.00    -0.073 N 
ATOM      8  H13 UNL     1      85.169  -2.357  44.675  1.00  0.00     0.274 HD
ATOM      9  H12 UNL     1      84.654  -3.216  45.842  1.00  0.00     0.274 HD
ATOM     10  H11 UNL     1      86.271  -2.705  45.918  1.00  0.00     0.274 HD
ENDBRANCH   3   7
ENDBRANCH   2   3
ENDBRANCH   1   2
BRANCH   1  11
HETATM   11  N2  UNL     1      84.291  -6.756  44.272  1.00  0.00    -0.375 N 
ATOM     12  H2  UNL     1      84.306  -6.411  45.232  1.00  0.00     0.161 HD
BRANCH  11  13
HETATM   13  C6  UNL     1      83.644  -7.833  44.016  1.00  0.00     0.117 A 
HETATM   14  C7  UNL     1      84.079  -8.957  43.341  1.00  0.00     0.068 A 
HETATM   15  C8  UNL     1      83.056  -9.881  43.293  1.00  0.00     0.111 A 
HETATM   16  N3  UNL     1      82.032  -9.300  43.934  1.00  0.00    -0.310 N 
HETATM   17  N4  UNL     1      82.382  -8.092  44.360  1.00  0.00    -0.286 N 
ATOM     18  H3  UNL     1      81.115  -9.725  44.074  1.00  0.00     0.186 HD
ATOM     19  H4  UNL     1      81.774  -7.456  44.876  1.00  0.00     0.188 HD
ENDBRANCH  11  13
ENDBRANCH   1  11
TORSDOF 7
ENDMDL
