MODEL 1
REMARK VINA RESULT: -4.910541579      0.000      0.000
REMARK  7 active torsions:
REMARK  status: ('A' for Active; 'I' for Inactive)
REMARK    1  A    between atoms: C2_2  and  C3_3 
REMARK    2  A    between atoms: C3_3  and  C4_4 
REMARK    3  A    between atoms: C4_4  and  N1_5 
REMARK    4  A    between atoms: N3_11  and  C6_12 
REMARK    5  A    between atoms: C6_12  and  C7_13 
REMARK    6  A    between atoms: C7_13  and  C8_14 
REMARK    7  A    between atoms: C8_14  and  N4_15 
ROOT
HETATM    1  C3  UNL     1      86.295  -3.937  42.820  1.00  0.00     0.011 C 
HETATM    2  C5  UNL     1      86.086  -2.680  42.002  1.00  0.00     0.141 C 
HETATM    3  N2  UNL     1      84.786  -2.148  42.324  1.00  0.00    -0.164 NA
HETATM    4  N3  UNL     1      84.407  -2.678  43.557  1.00  0.00    -0.234 NA
HETATM    5  C9  UNL     1      85.063  -3.936  43.706  1.00  0.00     0.121 C 
ENDROOT
BRANCH   1   6
HETATM    6  C2  UNL     1      87.551  -3.773  43.602  1.00  0.00     0.009 C 
HETATM    7  C1  UNL     1      88.441  -2.642  43.368  1.00  0.00     0.006 C 
ENDBRANCH   1   6
BRANCH   1   8
HETATM    8  C4  UNL     1      86.211  -5.103  41.911  1.00  0.00     0.241 C 
BRANCH   8   9
HETATM    9  N1  UNL     1      85.623  -6.298  42.401  1.00  0.00    -0.079 N 
ATOM     10  H13 UNL     1      85.694  -6.309  43.419  1.00  0.00     0.274 HD
ATOM     11  H12 UNL     1      84.612  -6.246  42.276  1.00  0.00     0.274 HD
ATOM     12  H11 UNL     1      85.960  -7.188  42.035  1.00  0.00     0.274 HD
ENDBRANCH   8   9
ENDBRANCH   1   8
BRANCH   4  13
HETATM   13  C6  UNL     1      84.658  -1.763  44.646  1.00  0.00     0.111 C 
BRANCH  13  14
HETATM   14  C7  UNL     1      83.979  -0.418  44.361  1.00  0.00     0.043 C 
BRANCH  14  15
HETATM   15  C8  UNL     1      83.396   0.125  45.669  1.00  0.00     0.231 C 
BRANCH  15  16
HETATM   16  N4  UNL     1      83.626  -0.847  46.731  1.00  0.00    -0.079 N 
ATOM     17  H43 UNL     1      84.583  -1.201  46.734  1.00  0.00     0.274 HD
ATOM     18  H42 UNL     1      83.630  -0.417  47.656  1.00  0.00     0.274 HD
ATOM     19  H41 UNL     1      82.936  -1.595  46.653  1.00  0.00     0.274 HD
ENDBRANCH  15  16
ENDBRANCH  14  15
ENDBRANCH  13  14
ENDBRANCH   4  13
TORSDOF 7
ENDMDL
MODEL 2
REMARK VINA RESULT: -4.803928440      2.013      2.925
REMARK  7 active torsions:
REMARK  status: ('A' for Active; 'I' for Inactive)
REMARK    1  A    between atoms: C2_2  and  C3_3 
REMARK    2  A    between atoms: C3_3  and  C4_4 
REMARK    3  A    between atoms: C4_4  and  N1_5 
REMARK    4  A    between atoms: N3_11  and  C6_12 
REMARK    5  A    between atoms: C6_12  and  C7_13 
REMARK    6  A    between atoms: C7_13  and  C8_14 
REMARK    7  A    between atoms: C8_14  and  N4_15 
ROOT
HETATM    1  C3  UNL     1      86.199  -4.288  44.332  1.00  0.00     0.011 C 
HETATM    2  C5  UNL     1      85.302  -4.406  43.118  1.00  0.00     0.141 C 
HETATM    3  N2  UNL     1      84.407  -3.276  43.113  1.00  0.00    -0.164 NA
HETATM    4  N3  UNL     1      84.975  -2.284  43.911  1.00  0.00    -0.234 NA
HETATM    5  C9  UNL     1      85.803  -2.930  44.878  1.00  0.00     0.121 C 
ENDROOT
BRANCH   1   6
HETATM    6  C2  UNL     1      87.612  -4.316  43.864  1.00  0.00     0.009 C 
HETATM    7  C1  UNL     1      87.936  -4.221  42.446  1.00  0.00     0.006 C 
ENDBRANCH   1   6
BRANCH   1   8
HETATM    8  C4  UNL     1      85.791  -5.319  45.314  1.00  0.00     0.241 C 
BRANCH   8   9
HETATM    9  N1  UNL     1      85.088  -6.458  44.843  1.00  0.00    -0.079 N 
ATOM     10  H13 UNL     1      84.389  -6.158  44.162  1.00  0.00     0.274 HD
ATOM     11  H12 UNL     1      85.710  -7.011  44.253  1.00  0.00     0.274 HD
ATOM     12  H11 UNL     1      84.645  -7.070  45.527  1.00  0.00     0.274 HD
ENDBRANCH   8   9
ENDBRANCH   1   8
BRANCH   4  13
HETATM   13  C6  UNL     1      85.669  -1.285  43.132  1.00  0.00     0.111 C 
BRANCH  13  14
HETATM   14  C7  UNL     1      84.654  -0.427  42.367  1.00  0.00     0.043 C 
BRANCH  14  15
HETATM   15  C8  UNL     1      84.918  -0.578  40.865  1.00  0.00     0.231 C 
BRANCH  15  16
HETATM   16  N4  UNL     1      85.813  -1.710  40.651  1.00  0.00    -0.079 N 
ATOM     17  H43 UNL     1      86.476  -1.543  39.895  1.00  0.00     0.274 HD
ATOM     18  H42 UNL     1      86.486  -1.822  41.409  1.00  0.00     0.274 HD
ATOM     19  H41 UNL     1      85.255  -2.551  40.499  1.00  0.00     0.274 HD
ENDBRANCH  15  16
ENDBRANCH  14  15
ENDBRANCH  13  14
ENDBRANCH   4  13
TORSDOF 7
ENDMDL
MODEL 3
REMARK VINA RESULT: -4.781584410      2.329      2.953
REMARK  7 active torsions:
REMARK  status: ('A' for Active; 'I' for Inactive)
REMARK    1  A    between atoms: C2_2  and  C3_3 
REMARK    2  A    between atoms: C3_3  and  C4_4 
REMARK    3  A    between atoms: C4_4  and  N1_5 
REMARK    4  A    between atoms: N3_11  and  C6_12 
REMARK    5  A    between atoms: C6_12  and  C7_13 
REMARK    6  A    between atoms: C7_13  and  C8_14 
REMARK    7  A    between atoms: C8_14  and  N4_15 
ROOT
HETATM    1  C3  UNL     1      86.042  -4.155  43.199  1.00  0.00     0.011 C 
HETATM    2  C5  UNL     1      86.516  -4.079  41.762  1.00  0.00     0.141 C 
HETATM    3  N2  UNL     1      85.797  -3.012  41.111  1.00  0.00    -0.164 NA
HETATM    4  N3  UNL     1      85.305  -2.166  42.104  1.00  0.00    -0.234 NA
HETATM    5  C9  UNL     1      85.129  -2.947  43.287  1.00  0.00     0.121 C 
ENDROOT
BRANCH   1   6
HETATM    6  C2  UNL     1      87.233  -4.026  44.082  1.00  0.00     0.009 C 
HETATM    7  C1  UNL     1      88.534  -3.648  43.542  1.00  0.00     0.006 C 
ENDBRANCH   1   6
BRANCH   1   8
HETATM    8  C4  UNL     1      85.214  -5.373  43.352  1.00  0.00     0.241 C 
BRANCH   8   9
HETATM    9  N1  UNL     1      85.440  -6.203  44.480  1.00  0.00    -0.079 N 
ATOM     10  H13 UNL     1      86.331  -6.686  44.363  1.00  0.00     0.274 HD
ATOM     11  H12 UNL     1      85.641  -5.616  45.289  1.00  0.00     0.274 HD
ATOM     12  H11 UNL     1      84.723  -6.884  44.731  1.00  0.00     0.274 HD
ENDBRANCH   8   9
ENDBRANCH   1   8
BRANCH   4  13
HETATM   13  C6  UNL     1      86.142  -1.005  42.298  1.00  0.00     0.111 C 
BRANCH  13  14
HETATM   14  C7  UNL     1      85.844   0.035  41.212  1.00  0.00     0.043 C 
BRANCH  14  15
HETATM   15  C8  UNL     1      84.332   0.075  40.972  1.00  0.00     0.231 C 
BRANCH  15  16
HETATM   16  N4  UNL     1      84.033  -0.589  39.708  1.00  0.00    -0.079 N 
ATOM     17  H43 UNL     1      84.304  -0.027  38.901  1.00  0.00     0.274 HD
ATOM     18  H42 UNL     1      84.642  -1.389  39.536  1.00  0.00     0.274 HD
ATOM     19  H41 UNL     1      83.044  -0.841  39.691  1.00  0.00     0.274 HD
ENDBRANCH  15  16
ENDBRANCH  14  15
ENDBRANCH  13  14
ENDBRANCH   4  13
TORSDOF 7
ENDMDL
MODEL 4
REMARK VINA RESULT: -4.780242375      5.326      7.496
REMARK  7 active torsions:
REMARK  status: ('A' for Active; 'I' for Inactive)
REMARK    1  A    between atoms: C2_2  and  C3_3 
REMARK    2  A    between atoms: C3_3  and  C4_4 
REMARK    3  A    between atoms: C4_4  and  N1_5 
REMARK    4  A    between atoms: N3_11  and  C6_12 
REMARK    5  A    between atoms: C6_12  and  C7_13 
REMARK    6  A    between atoms: C7_13  and  C8_14 
REMARK    7  A    between atoms: C8_14  and  N4_15 
ROOT
HETATM    1  C3  UNL     1      88.248  -3.667  38.371  1.00  0.00     0.011 C 
HETATM    2  C5  UNL     1      87.579  -3.799  39.723  1.00  0.00     0.141 C 
HETATM    3  N2  UNL     1      87.305  -5.196  39.951  1.00  0.00    -0.164 NA
HETATM    4  N3  UNL     1      88.140  -5.933  39.113  1.00  0.00    -0.234 NA
HETATM    5  C9  UNL     1      88.437  -5.120  37.978  1.00  0.00     0.121 C 
ENDROOT
BRANCH   1   6
HETATM    6  C2  UNL     1      89.545  -2.964  38.566  1.00  0.00     0.009 C 
HETATM    7  C1  UNL     1      90.056  -2.685  39.903  1.00  0.00     0.006 C 
ENDBRANCH   1   6
BRANCH   1   8
HETATM    8  C4  UNL     1      87.281  -3.055  37.431  1.00  0.00     0.241 C 
BRANCH   8   9
HETATM    9  N1  UNL     1      86.123  -3.795  37.080  1.00  0.00    -0.079 N 
ATOM     10  H13 UNL     1      85.781  -4.288  37.904  1.00  0.00     0.274 HD
ATOM     11  H12 UNL     1      85.355  -3.147  36.907  1.00  0.00     0.274 HD
ATOM     12  H11 UNL     1      86.186  -4.452  36.302  1.00  0.00     0.274 HD
ENDBRANCH   8   9
ENDBRANCH   1   8
BRANCH   4  13
HETATM   13  C6  UNL     1      89.315  -6.418  39.799  1.00  0.00     0.111 C 
BRANCH  13  14
HETATM   14  C7  UNL     1      89.017  -7.779  40.439  1.00  0.00     0.043 C 
BRANCH  14  15
HETATM   15  C8  UNL     1      89.564  -8.880  39.526  1.00  0.00     0.231 C 
BRANCH  15  16
HETATM   16  N4  UNL     1      88.947  -8.757  38.210  1.00  0.00    -0.079 N 
ATOM     17  H43 UNL     1      87.928  -8.743  38.258  1.00  0.00     0.274 HD
ATOM     18  H42 UNL     1      89.083  -7.832  37.802  1.00  0.00     0.274 HD
ATOM     19  H41 UNL     1      89.296  -9.503  37.608  1.00  0.00     0.274 HD
ENDBRANCH  15  16
ENDBRANCH  14  15
ENDBRANCH  13  14
ENDBRANCH   4  13
TORSDOF 7
ENDMDL
MODEL 5
REMARK VINA RESULT: -4.731039744      1.424      1.870
REMARK  7 active torsions:
REMARK  status: ('A' for Active; 'I' for Inactive)
REMARK    1  A    between atoms: C2_2  and  C3_3 
REMARK    2  A    between atoms: C3_3  and  C4_4 
REMARK    3  A    between atoms: C4_4  and  N1_5 
REMARK    4  A    between atoms: N3_11  and  C6_12 
REMARK    5  A    between atoms: C6_12  and  C7_13 
REMARK    6  A    between atoms: C7_13  and  C8_14 
REMARK    7  A    between atoms: C8_14  and  N4_15 
ROOT
HETATM    1  C3  UNL     1      87.683  -3.790  43.163  1.00  0.00     0.011 C 
HETATM    2  C5  UNL     1      86.809  -4.116  41.970  1.00  0.00     0.141 C 
HETATM    3  N2  UNL     1      85.492  -4.444  42.459  1.00  0.00    -0.164 NA
HETATM    4  N3  UNL     1      85.370  -3.906  43.739  1.00  0.00    -0.234 NA
HETATM    5  C9  UNL     1      86.680  -3.828  44.300  1.00  0.00     0.121 C 
ENDROOT
BRANCH   1   6
HETATM    6  C2  UNL     1      88.250  -2.429  42.959  1.00  0.00     0.009 C 
HETATM    7  C1  UNL     1      87.725  -1.542  41.927  1.00  0.00     0.006 C 
ENDBRANCH   1   6
BRANCH   1   8
HETATM    8  C4  UNL     1      88.643  -4.901  43.354  1.00  0.00     0.241 C 
BRANCH   8   9
HETATM    9  N1  UNL     1      88.524  -6.044  42.522  1.00  0.00    -0.079 N 
ATOM     10  H13 UNL     1      88.240  -5.747  41.588  1.00  0.00     0.274 HD
ATOM     11  H12 UNL     1      89.455  -6.416  42.334  1.00  0.00     0.274 HD
ATOM     12  H11 UNL     1      87.916  -6.804  42.828  1.00  0.00     0.274 HD
ENDBRANCH   8   9
ENDBRANCH   1   8
BRANCH   4  13
HETATM   13  C6  UNL     1      84.666  -2.645  43.738  1.00  0.00     0.111 C 
BRANCH  13  14
HETATM   14  C7  UNL     1      85.113  -1.801  44.937  1.00  0.00     0.043 C 
BRANCH  14  15
HETATM   15  C8  UNL     1      84.001  -0.804  45.276  1.00  0.00     0.231 C 
BRANCH  15  16
HETATM   16  N4  UNL     1      83.692  -0.902  46.698  1.00  0.00    -0.079 N 
ATOM     17  H43 UNL     1      84.277  -1.587  47.176  1.00  0.00     0.274 HD
ATOM     18  H42 UNL     1      83.988  -0.075  47.218  1.00  0.00     0.274 HD
ATOM     19  H41 UNL     1      82.697  -1.096  46.809  1.00  0.00     0.274 HD
ENDBRANCH  15  16
ENDBRANCH  14  15
ENDBRANCH  13  14
ENDBRANCH   4  13
TORSDOF 7
ENDMDL
