MODEL 1
REMARK VINA RESULT: -4.510300550      0.000      0.000
REMARK  6 active torsions:
REMARK  status: ('A' for Active; 'I' for Inactive)
REMARK    1  A    between atoms: C2_2  and  N1_3 
REMARK    2  A    between atoms: C2_2  and  C3_7 
REMARK    3  A    between atoms: C3_7  and  N2_8 
REMARK    4  A    between atoms: C3_7  and  C4_12 
REMARK    5  A    between atoms: C4_12  and  C5_13 
REMARK    6  A    between atoms: C5_13  and  N3_14 
ROOT
HETATM    1  C3  UNL     1      86.265  -4.159  44.682  1.00  0.00     0.214 C 
ENDROOT
BRANCH   1   2
HETATM    2  C2  UNL     1      85.325  -5.134  44.045  1.00  0.00     0.209 C 
HETATM    3  C1  UNL     1      85.783  -5.550  42.656  1.00  0.00     0.042 C 
BRANCH   2   4
HETATM    4  N1  UNL     1      85.156  -6.351  44.812  1.00  0.00    -0.073 N 
ATOM      5  H13 UNL     1      84.775  -7.121  44.263  1.00  0.00     0.274 HD
ATOM      6  H12 UNL     1      86.039  -6.794  45.063  1.00  0.00     0.274 HD
ATOM      7  H11 UNL     1      84.582  -6.112  45.621  1.00  0.00     0.274 HD
ENDBRANCH   2   4
ENDBRANCH   1   2
BRANCH   1   8
HETATM    8  N2  UNL     1      85.558  -3.281  45.552  1.00  0.00    -0.073 N 
ATOM      9  H23 UNL     1      84.577  -3.192  45.286  1.00  0.00     0.274 HD
ATOM     10  H22 UNL     1      85.427  -3.689  46.478  1.00  0.00     0.274 HD
ATOM     11  H21 UNL     1      86.022  -2.375  45.600  1.00  0.00     0.274 HD
ENDBRANCH   1   8
BRANCH   1  12
HETATM   12  C4  UNL     1      87.155  -3.474  43.694  1.00  0.00     0.054 C 
BRANCH  12  13
HETATM   13  C5  UNL     1      86.732  -2.039  43.440  1.00  0.00     0.124 C 
BRANCH  13  14
HETATM   14  N3  UNL     1      85.816  -1.955  42.354  1.00  0.00    -0.390 N 
HETATM   15  C6  UNL     1      86.341  -1.925  41.045  1.00  0.00     0.149 C 
HETATM   16  C7  UNL     1      85.374  -1.197  40.134  1.00  0.00     0.252 C 
HETATM   17  N4  UNL     1      85.155   0.168  40.516  1.00  0.00    -0.069 N 
HETATM   18  C8  UNL     1      84.842   0.279  41.911  1.00  0.00     0.276 C 
ATOM     19  H42 UNL     1      85.948   0.758  40.263  1.00  0.00     0.277 HD
ATOM     20  H41 UNL     1      84.440   0.608  39.936  1.00  0.00     0.277 HD
HETATM   21  C9  UNL     1      84.736  -1.070  42.544  1.00  0.00     0.085 C 
ENDBRANCH  13  14
ENDBRANCH  12  13
ENDBRANCH   1  12
TORSDOF 6
ENDMDL
MODEL 2
REMARK VINA RESULT: -4.505872859      1.150      1.732
REMARK  6 active torsions:
REMARK  status: ('A' for Active; 'I' for Inactive)
REMARK    1  A    between atoms: C2_2  and  N1_3 
REMARK    2  A    between atoms: C2_2  and  C3_7 
REMARK    3  A    between atoms: C3_7  and  N2_8 
REMARK    4  A    between atoms: C3_7  and  C4_12 
REMARK    5  A    between atoms: C4_12  and  C5_13 
REMARK    6  A    between atoms: C5_13  and  N3_14 
ROOT
HETATM    1  C3  UNL     1      85.668  -4.276  44.240  1.00  0.00     0.214 C 
ENDROOT
BRANCH   1   2
HETATM    2  C2  UNL     1      84.969  -5.450  43.631  1.00  0.00     0.209 C 
HETATM    3  C1  UNL     1      85.649  -5.929  42.358  1.00  0.00     0.042 C 
BRANCH   2   4
HETATM    4  N1  UNL     1      84.888  -6.592  44.517  1.00  0.00    -0.073 N 
ATOM      5  H13 UNL     1      84.371  -7.375  44.118  1.00  0.00     0.274 HD
ATOM      6  H12 UNL     1      85.779  -7.073  44.636  1.00  0.00     0.274 HD
ATOM      7  H11 UNL     1      84.493  -6.256  45.396  1.00  0.00     0.274 HD
ENDBRANCH   2   4
ENDBRANCH   1   2
BRANCH   1   8
HETATM    8  N2  UNL     1      85.847  -4.472  45.639  1.00  0.00    -0.073 N 
ATOM      9  H23 UNL     1      85.547  -5.401  45.933  1.00  0.00     0.274 HD
ATOM     10  H22 UNL     1      86.833  -4.544  45.889  1.00  0.00     0.274 HD
ATOM     11  H21 UNL     1      85.375  -3.737  46.166  1.00  0.00     0.274 HD
ENDBRANCH   1   8
BRANCH   1  12
HETATM   12  C4  UNL     1      85.046  -2.967  43.867  1.00  0.00     0.054 C 
BRANCH  12  13
HETATM   13  C5  UNL     1      86.049  -1.827  43.899  1.00  0.00     0.124 C 
BRANCH  13  14
HETATM   14  N3  UNL     1      86.084  -1.135  42.657  1.00  0.00    -0.390 N 
HETATM   15  C6  UNL     1      84.893  -1.065  41.903  1.00  0.00     0.149 C 
HETATM   16  C7  UNL     1      85.236  -0.922  40.435  1.00  0.00     0.252 C 
HETATM   17  N4  UNL     1      85.980  -2.032  39.916  1.00  0.00    -0.069 N 
HETATM   18  C8  UNL     1      87.103  -2.348  40.753  1.00  0.00     0.276 C 
ATOM     19  H42 UNL     1      85.383  -2.846  39.770  1.00  0.00     0.277 HD
ATOM     20  H41 UNL     1      86.268  -1.871  38.951  1.00  0.00     0.277 HD
HETATM   21  C9  UNL     1      87.230  -1.365  41.870  1.00  0.00     0.085 C 
ENDBRANCH  13  14
ENDBRANCH  12  13
ENDBRANCH   1  12
TORSDOF 6
ENDMDL
MODEL 3
REMARK VINA RESULT: -4.436093665      4.726      5.627
REMARK  6 active torsions:
REMARK  status: ('A' for Active; 'I' for Inactive)
REMARK    1  A    between atoms: C2_2  and  N1_3 
REMARK    2  A    between atoms: C2_2  and  C3_7 
REMARK    3  A    between atoms: C3_7  and  N2_8 
REMARK    4  A    between atoms: C3_7  and  C4_12 
REMARK    5  A    between atoms: C4_12  and  C5_13 
REMARK    6  A    between atoms: C5_13  and  N3_14 
ROOT
HETATM    1  C3  UNL     1      88.979  -6.673  39.613  1.00  0.00     0.214 C 
ENDROOT
BRANCH   1   2
HETATM    2  C2  UNL     1      90.256  -6.443  40.359  1.00  0.00     0.209 C 
HETATM    3  C1  UNL     1      90.127  -6.773  41.838  1.00  0.00     0.042 C 
BRANCH   2   4
HETATM    4  N1  UNL     1      91.365  -7.224  39.852  1.00  0.00    -0.073 N 
ATOM      5  H13 UNL     1      91.174  -8.225  39.830  1.00  0.00     0.274 HD
ATOM      6  H12 UNL     1      91.520  -7.100  38.851  1.00  0.00     0.274 HD
ATOM      7  H11 UNL     1      92.179  -6.982  40.417  1.00  0.00     0.274 HD
ENDBRANCH   2   4
ENDBRANCH   1   2
BRANCH   1   8
HETATM    8  N2  UNL     1      89.058  -7.871  38.848  1.00  0.00    -0.073 N 
ATOM      9  H23 UNL     1      88.162  -8.356  38.809  1.00  0.00     0.274 HD
ATOM     10  H22 UNL     1      89.169  -7.678  37.852  1.00  0.00     0.274 HD
ATOM     11  H21 UNL     1      89.800  -8.473  39.202  1.00  0.00     0.274 HD
ENDBRANCH   1   8
BRANCH   1  12
HETATM   12  C4  UNL     1      88.524  -5.471  38.848  1.00  0.00     0.054 C 
BRANCH  12  13
HETATM   13  C5  UNL     1      87.528  -4.636  39.633  1.00  0.00     0.124 C 
BRANCH  13  14
HETATM   14  N3  UNL     1      87.064  -3.531  38.867  1.00  0.00    -0.390 N 
HETATM   15  C6  UNL     1      86.169  -2.629  39.480  1.00  0.00     0.149 C 
HETATM   16  C7  UNL     1      85.310  -1.975  38.418  1.00  0.00     0.252 C 
HETATM   17  N4  UNL     1      84.506  -2.910  37.685  1.00  0.00    -0.069 N 
HETATM   18  C8  UNL     1      85.289  -4.014  37.208  1.00  0.00     0.276 C 
ATOM     19  H42 UNL     1      83.708  -3.228  38.235  1.00  0.00     0.277 HD
ATOM     20  H41 UNL     1      84.002  -2.454  36.925  1.00  0.00     0.277 HD
HETATM   21  C9  UNL     1      86.735  -3.821  37.528  1.00  0.00     0.085 C 
ENDBRANCH  13  14
ENDBRANCH  12  13
ENDBRANCH   1  12
TORSDOF 6
ENDMDL
MODEL 4
REMARK VINA RESULT: -4.429801886      1.469      4.850
REMARK  6 active torsions:
REMARK  status: ('A' for Active; 'I' for Inactive)
REMARK    1  A    between atoms: C2_2  and  N1_3 
REMARK    2  A    between atoms: C2_2  and  C3_7 
REMARK    3  A    between atoms: C3_7  and  N2_8 
REMARK    4  A    between atoms: C3_7  and  C4_12 
REMARK    5  A    between atoms: C4_12  and  C5_13 
REMARK    6  A    between atoms: C5_13  and  N3_14 
ROOT
HETATM    1  C3  UNL     1      86.106  -1.136  40.699  1.00  0.00     0.214 C 
ENDROOT
BRANCH   1   2
HETATM    2  C2  UNL     1      84.662  -0.781  40.862  1.00  0.00     0.209 C 
HETATM    3  C1  UNL     1      84.461   0.386  41.817  1.00  0.00     0.042 C 
BRANCH   2   4
HETATM    4  N1  UNL     1      84.016  -0.420  39.618  1.00  0.00    -0.073 N 
ATOM      5  H13 UNL     1      83.046  -0.730  39.564  1.00  0.00     0.274 HD
ATOM      6  H12 UNL     1      83.837   0.580  39.533  1.00  0.00     0.274 HD
ATOM      7  H11 UNL     1      84.598  -0.790  38.866  1.00  0.00     0.274 HD
ENDBRANCH   2   4
ENDBRANCH   1   2
BRANCH   1   8
HETATM    8  N2  UNL     1      86.239  -2.430  40.119  1.00  0.00    -0.073 N 
ATOM      9  H23 UNL     1      85.736  -2.503  39.235  1.00  0.00     0.274 HD
ATOM     10  H22 UNL     1      87.183  -2.594  39.769  1.00  0.00     0.274 HD
ATOM     11  H21 UNL     1      85.950  -3.150  40.780  1.00  0.00     0.274 HD
ENDBRANCH   1   8
BRANCH   1  12
HETATM   12  C4  UNL     1      86.905  -0.926  41.946  1.00  0.00     0.054 C 
BRANCH  12  13
HETATM   13  C5  UNL     1      87.710  -2.156  42.325  1.00  0.00     0.124 C 
BRANCH  13  14
HETATM   14  N3  UNL     1      87.296  -2.678  43.583  1.00  0.00    -0.390 N 
HETATM   15  C6  UNL     1      87.475  -4.057  43.819  1.00  0.00     0.149 C 
HETATM   16  C7  UNL     1      86.444  -4.531  44.822  1.00  0.00     0.252 C 
HETATM   17  N4  UNL     1      85.094  -4.368  44.368  1.00  0.00    -0.069 N 
HETATM   18  C8  UNL     1      84.863  -3.041  43.873  1.00  0.00     0.276 C 
ATOM     19  H42 UNL     1      84.846  -5.073  43.674  1.00  0.00     0.277 HD
ATOM     20  H41 UNL     1      84.422  -4.617  45.094  1.00  0.00     0.277 HD
HETATM   21  C9  UNL     1      86.070  -2.181  44.066  1.00  0.00     0.085 C 
ENDBRANCH  13  14
ENDBRANCH  12  13
ENDBRANCH   1  12
TORSDOF 6
ENDMDL
MODEL 5
REMARK VINA RESULT: -4.405046985      2.194      4.249
REMARK  6 active torsions:
REMARK  status: ('A' for Active; 'I' for Inactive)
REMARK    1  A    between atoms: C2_2  and  N1_3 
REMARK    2  A    between atoms: C2_2  and  C3_7 
REMARK    3  A    between atoms: C3_7  and  N2_8 
REMARK    4  A    between atoms: C3_7  and  C4_12 
REMARK    5  A    between atoms: C4_12  and  C5_13 
REMARK    6  A    between atoms: C5_13  and  N3_14 
ROOT
HETATM    1  C3  UNL     1      84.615  -1.994  44.652  1.00  0.00     0.214 C 
ENDROOT
BRANCH   1   2
HETATM    2  C2  UNL     1      84.361  -0.770  45.474  1.00  0.00     0.209 C 
HETATM    3  C1  UNL     1      83.462   0.227  44.759  1.00  0.00     0.042 C 
BRANCH   2   4
HETATM    4  N1  UNL     1      83.737  -1.055  46.749  1.00  0.00    -0.073 N 
ATOM      5  H13 UNL     1      84.350  -0.876  47.545  1.00  0.00     0.274 HD
ATOM      6  H12 UNL     1      83.006  -0.389  46.998  1.00  0.00     0.274 HD
ATOM      7  H11 UNL     1      83.406  -2.019  46.706  1.00  0.00     0.274 HD
ENDBRANCH   2   4
ENDBRANCH   1   2
BRANCH   1   8
HETATM    8  N2  UNL     1      85.334  -2.962  45.408  1.00  0.00    -0.073 N 
ATOM      9  H23 UNL     1      86.279  -2.647  45.627  1.00  0.00     0.274 HD
ATOM     10  H22 UNL     1      84.977  -3.043  46.360  1.00  0.00     0.274 HD
ATOM     11  H21 UNL     1      85.337  -3.861  44.927  1.00  0.00     0.274 HD
ENDBRANCH   1   8
BRANCH   1  12
HETATM   12  C4  UNL     1      85.202  -1.686  43.311  1.00  0.00     0.054 C 
BRANCH  12  13
HETATM   13  C5  UNL     1      86.720  -1.656  43.344  1.00  0.00     0.124 C 
BRANCH  13  14
HETATM   14  N3  UNL     1      87.275  -2.685  42.533  1.00  0.00    -0.390 N 
HETATM   15  C6  UNL     1      86.399  -3.426  41.711  1.00  0.00     0.149 C 
HETATM   16  C7  UNL     1      86.982  -4.803  41.471  1.00  0.00     0.252 C 
HETATM   17  N4  UNL     1      87.152  -5.564  42.674  1.00  0.00    -0.069 N 
HETATM   18  C8  UNL     1      87.835  -4.806  43.683  1.00  0.00     0.276 C 
ATOM     19  H42 UNL     1      86.261  -5.924  43.017  1.00  0.00     0.277 HD
ATOM     20  H41 UNL     1      87.621  -6.452  42.492  1.00  0.00     0.277 HD
HETATM   21  C9  UNL     1      88.261  -3.476  43.154  1.00  0.00     0.085 C 
ENDBRANCH  13  14
ENDBRANCH  12  13
ENDBRANCH   1  12
TORSDOF 6
ENDMDL
