MODEL 1
REMARK VINA RESULT: -4.883776746      0.000      0.000
REMARK  7 active torsions:
REMARK  status: ('A' for Active; 'I' for Inactive)
REMARK    1  A    between atoms: C2_2  and  N1_3 
REMARK    2  A    between atoms: N1_3  and  C3_6 
REMARK    3  A    between atoms: C3_6  and  C4_7 
REMARK    4  A    between atoms: C7_14  and  N4_15 
REMARK    5  A    between atoms: N4_15  and  C8_17 
REMARK    6  A    between atoms: C8_17  and  C9_18 
REMARK    7  A    between atoms: C9_18  and  N5_19 
ROOT
HETATM    1  C4  UNL     1      86.295  -2.366  43.472  1.00  0.00     0.026 A 
HETATM    2  C5  UNL     1      87.279  -3.315  43.308  1.00  0.00     0.101 A 
HETATM    3  N2  UNL     1      87.299  -4.387  44.119  1.00  0.00    -0.361 N 
ATOM      4  H2  UNL     1      88.026  -5.092  44.000  1.00  0.00     0.166 HD
HETATM    5  C6  UNL     1      86.378  -4.543  45.081  1.00  0.00     0.181 A 
HETATM    6  N3  UNL     1      85.426  -3.610  45.230  1.00  0.00    -0.338 N 
ATOM      7  H3  UNL     1      84.730  -3.739  45.965  1.00  0.00     0.168 HD
HETATM    8  C7  UNL     1      85.341  -2.511  44.456  1.00  0.00     0.111 A 
ENDROOT
BRANCH   8   9
HETATM    9  N4  UNL     1      84.452  -1.615  44.576  1.00  0.00    -0.374 N 
ATOM     10  H4  UNL     1      83.902  -1.412  43.741  1.00  0.00     0.161 HD
BRANCH   9  11
HETATM   11  C8  UNL     1      84.132  -0.860  45.739  1.00  0.00     0.148 C 
BRANCH  11  12
HETATM   12  C9  UNL     1      83.270   0.327  45.289  1.00  0.00     0.249 C 
BRANCH  12  13
HETATM   13  N5  UNL     1      82.891   1.057  46.468  1.00  0.00    -0.078 N 
ATOM     14  H53 UNL     1      83.667   1.574  46.882  1.00  0.00     0.274 HD
ATOM     15  H52 UNL     1      82.292   1.857  46.265  1.00  0.00     0.274 HD
ATOM     16  H51 UNL     1      82.463   0.395  47.115  1.00  0.00     0.274 HD
ENDBRANCH  12  13
ENDBRANCH  11  12
ENDBRANCH   9  11
ENDBRANCH   8   9
BRANCH   1  17
HETATM   17  C3  UNL     1      86.234  -1.158  42.592  1.00  0.00     0.276 C 
BRANCH  17  18
HETATM   18  N1  UNL     1      86.064  -1.536  41.201  1.00  0.00    -0.071 N 
ATOM     19  H12 UNL     1      85.882  -2.531  41.075  1.00  0.00     0.277 HD
ATOM     20  H11 UNL     1      86.931  -1.494  40.665  1.00  0.00     0.277 HD
BRANCH  18  21
HETATM   21  C2  UNL     1      85.010  -0.685  40.656  1.00  0.00     0.228 C 
HETATM   22  C1  UNL     1      84.525   0.321  41.647  1.00  0.00     0.034 C 
ENDBRANCH  18  21
ENDBRANCH  17  18
ENDBRANCH   1  17
TORSDOF 7
ENDMDL
MODEL 2
REMARK VINA RESULT: -4.779013829      1.095      1.174
REMARK  7 active torsions:
REMARK  status: ('A' for Active; 'I' for Inactive)
REMARK    1  A    between atoms: C2_2  and  N1_3 
REMARK    2  A    between atoms: N1_3  and  C3_6 
REMARK    3  A    between atoms: C3_6  and  C4_7 
REMARK    4  A    between atoms: C7_14  and  N4_15 
REMARK    5  A    between atoms: N4_15  and  C8_17 
REMARK    6  A    between atoms: C8_17  and  C9_18 
REMARK    7  A    between atoms: C9_18  and  N5_19 
ROOT
HETATM    1  C4  UNL     1      86.989  -3.161  43.542  1.00  0.00     0.026 A 
HETATM    2  C5  UNL     1      87.456  -4.436  43.319  1.00  0.00     0.101 A 
HETATM    3  N2  UNL     1      86.965  -5.452  44.049  1.00  0.00    -0.361 N 
ATOM      4  H2  UNL     1      87.309  -6.399  43.886  1.00  0.00     0.166 HD
HETATM    5  C6  UNL     1      86.031  -5.242  44.988  1.00  0.00     0.181 A 
HETATM    6  N3  UNL     1      85.585  -3.993  45.194  1.00  0.00    -0.338 N 
ATOM      7  H3  UNL     1      84.874  -3.844  45.911  1.00  0.00     0.168 HD
HETATM    8  C7  UNL     1      86.029  -2.926  44.502  1.00  0.00     0.111 A 
ENDROOT
BRANCH   8   9
HETATM    9  N4  UNL     1      85.624  -1.737  44.678  1.00  0.00    -0.374 N 
ATOM     10  H4  UNL     1      86.336  -1.052  44.928  1.00  0.00     0.161 HD
BRANCH   9  11
HETATM   11  C8  UNL     1      84.292  -1.249  44.568  1.00  0.00     0.148 C 
BRANCH  11  12
HETATM   12  C9  UNL     1      83.939  -0.584  45.905  1.00  0.00     0.249 C 
BRANCH  12  13
HETATM   13  N5  UNL     1      82.978   0.451  45.633  1.00  0.00    -0.078 N 
ATOM     14  H53 UNL     1      83.383   1.386  45.660  1.00  0.00     0.274 HD
ATOM     15  H52 UNL     1      82.674   0.465  44.660  1.00  0.00     0.274 HD
ATOM     16  H51 UNL     1      82.205   0.332  46.289  1.00  0.00     0.274 HD
ENDBRANCH  12  13
ENDBRANCH  11  12
ENDBRANCH   9  11
ENDBRANCH   8   9
BRANCH   1  17
HETATM   17  C3  UNL     1      87.506  -2.001  42.752  1.00  0.00     0.276 C 
BRANCH  17  18
HETATM   18  N1  UNL     1      87.274  -2.193  41.333  1.00  0.00    -0.071 N 
ATOM     19  H12 UNL     1      87.286  -3.173  41.054  1.00  0.00     0.277 HD
ATOM     20  H11 UNL     1      88.055  -1.884  40.753  1.00  0.00     0.277 HD
BRANCH  18  21
HETATM   21  C2  UNL     1      86.019  -1.518  41.013  1.00  0.00     0.228 C 
HETATM   22  C1  UNL     1      86.015  -0.091  41.451  1.00  0.00     0.034 C 
ENDBRANCH  18  21
ENDBRANCH  17  18
ENDBRANCH   1  17
TORSDOF 7
ENDMDL
MODEL 3
REMARK VINA RESULT: -4.749174518      1.921      3.818
REMARK  7 active torsions:
REMARK  status: ('A' for Active; 'I' for Inactive)
REMARK    1  A    between atoms: C2_2  and  N1_3 
REMARK    2  A    between atoms: N1_3  and  C3_6 
REMARK    3  A    between atoms: C3_6  and  C4_7 
REMARK    4  A    between atoms: C7_14  and  N4_15 
REMARK    5  A    between atoms: N4_15  and  C8_17 
REMARK    6  A    between atoms: C8_17  and  C9_18 
REMARK    7  A    between atoms: C9_18  and  N5_19 
ROOT
HETATM    1  C4  UNL     1      86.649  -4.012  44.416  1.00  0.00     0.026 A 
HETATM    2  C5  UNL     1      87.819  -4.417  43.812  1.00  0.00     0.101 A 
HETATM    3  N2  UNL     1      88.521  -3.534  43.082  1.00  0.00    -0.361 N 
ATOM      4  H2  UNL     1      89.388  -3.830  42.633  1.00  0.00     0.166 HD
HETATM    5  C6  UNL     1      88.100  -2.269  42.933  1.00  0.00     0.181 A 
HETATM    6  N3  UNL     1      86.958  -1.889  43.528  1.00  0.00    -0.338 N 
ATOM      7  H3  UNL     1      86.648  -0.924  43.409  1.00  0.00     0.168 HD
HETATM    8  C7  UNL     1      86.203  -2.717  44.274  1.00  0.00     0.111 A 
ENDROOT
BRANCH   8   9
HETATM    9  N4  UNL     1      85.121  -2.382  44.846  1.00  0.00    -0.374 N 
ATOM     10  H4  UNL     1      84.770  -3.023  45.557  1.00  0.00     0.161 HD
BRANCH   9  11
HETATM   11  C8  UNL     1      84.340  -1.216  44.609  1.00  0.00     0.148 C 
BRANCH  11  12
HETATM   12  C9  UNL     1      83.947  -0.646  45.979  1.00  0.00     0.249 C 
BRANCH  12  13
HETATM   13  N5  UNL     1      83.033   0.441  45.749  1.00  0.00    -0.078 N 
ATOM     14  H53 UNL     1      82.402   0.601  46.533  1.00  0.00     0.274 HD
ATOM     15  H52 UNL     1      83.490   1.352  45.756  1.00  0.00     0.274 HD
ATOM     16  H51 UNL     1      82.542   0.249  44.875  1.00  0.00     0.274 HD
ENDBRANCH  12  13
ENDBRANCH  11  12
ENDBRANCH   9  11
ENDBRANCH   8   9
BRANCH   1  17
HETATM   17  C3  UNL     1      85.837  -4.961  45.238  1.00  0.00     0.276 C 
BRANCH  17  18
HETATM   18  N1  UNL     1      85.805  -6.279  44.632  1.00  0.00    -0.071 N 
ATOM     19  H12 UNL     1      85.889  -7.035  45.311  1.00  0.00     0.277 HD
ATOM     20  H11 UNL     1      86.646  -6.495  44.095  1.00  0.00     0.277 HD
BRANCH  18  21
HETATM   21  C2  UNL     1      84.581  -6.352  43.838  1.00  0.00     0.228 C 
HETATM   22  C1  UNL     1      84.006  -7.729  43.808  1.00  0.00     0.034 C 
ENDBRANCH  18  21
ENDBRANCH  17  18
ENDBRANCH   1  17
TORSDOF 7
ENDMDL
MODEL 4
REMARK VINA RESULT: -4.596430151      1.288      3.855
REMARK  7 active torsions:
REMARK  status: ('A' for Active; 'I' for Inactive)
REMARK    1  A    between atoms: C2_2  and  N1_3 
REMARK    2  A    between atoms: N1_3  and  C3_6 
REMARK    3  A    between atoms: C3_6  and  C4_7 
REMARK    4  A    between atoms: C7_14  and  N4_15 
REMARK    5  A    between atoms: N4_15  and  C8_17 
REMARK    6  A    between atoms: C8_17  and  C9_18 
REMARK    7  A    between atoms: C9_18  and  N5_19 
ROOT
HETATM    1  C4  UNL     1      85.703  -2.377  44.110  1.00  0.00     0.026 A 
HETATM    2  C5  UNL     1      85.985  -3.531  44.806  1.00  0.00     0.101 A 
HETATM    3  N2  UNL     1      87.021  -4.295  44.419  1.00  0.00    -0.361 N 
ATOM      4  H2  UNL     1      87.233  -5.151  44.932  1.00  0.00     0.166 HD
HETATM    5  C6  UNL     1      87.781  -3.950  43.369  1.00  0.00     0.181 A 
HETATM    6  N3  UNL     1      87.495  -2.822  42.700  1.00  0.00    -0.338 N 
ATOM      7  H3  UNL     1      88.080  -2.569  41.904  1.00  0.00     0.168 HD
HETATM    8  C7  UNL     1      86.474  -2.007  43.029  1.00  0.00     0.111 A 
ENDROOT
BRANCH   8   9
HETATM    9  N4  UNL     1      86.183  -0.937  42.413  1.00  0.00    -0.374 N 
ATOM     10  H4  UNL     1      86.156  -0.087  42.976  1.00  0.00     0.161 HD
BRANCH   9  11
HETATM   11  C8  UNL     1      85.889  -0.785  41.030  1.00  0.00     0.148 C 
BRANCH  11  12
HETATM   12  C9  UNL     1      84.521  -0.098  40.928  1.00  0.00     0.249 C 
BRANCH  12  13
HETATM   13  N5  UNL     1      83.982  -0.397  39.628  1.00  0.00    -0.078 N 
ATOM     14  H53 UNL     1      84.632  -0.187  38.871  1.00  0.00     0.274 HD
ATOM     15  H52 UNL     1      83.895  -1.398  39.455  1.00  0.00     0.274 HD
ATOM     16  H51 UNL     1      83.095   0.100  39.542  1.00  0.00     0.274 HD
ENDBRANCH  12  13
ENDBRANCH  11  12
ENDBRANCH   9  11
ENDBRANCH   8   9
BRANCH   1  17
HETATM   17  C3  UNL     1      84.561  -1.497  44.505  1.00  0.00     0.276 C 
BRANCH  17  18
HETATM   18  N1  UNL     1      84.391  -1.481  45.946  1.00  0.00    -0.071 N 
ATOM     19  H12 UNL     1      85.270  -1.577  46.455  1.00  0.00     0.277 HD
ATOM     20  H11 UNL     1      83.940  -2.322  46.307  1.00  0.00     0.277 HD
BRANCH  18  21
HETATM   21  C2  UNL     1      83.668  -0.255  46.275  1.00  0.00     0.228 C 
HETATM   22  C1  UNL     1      83.233   0.490  45.056  1.00  0.00     0.034 C 
ENDBRANCH  18  21
ENDBRANCH  17  18
ENDBRANCH   1  17
TORSDOF 7
ENDMDL
MODEL 5
REMARK VINA RESULT: -4.560033196      1.617      1.737
REMARK  7 active torsions:
REMARK  status: ('A' for Active; 'I' for Inactive)
REMARK    1  A    between atoms: C2_2  and  N1_3 
REMARK    2  A    between atoms: N1_3  and  C3_6 
REMARK    3  A    between atoms: C3_6  and  C4_7 
REMARK    4  A    between atoms: C7_14  and  N4_15 
REMARK    5  A    between atoms: N4_15  and  C8_17 
REMARK    6  A    between atoms: C8_17  and  C9_18 
REMARK    7  A    between atoms: C9_18  and  N5_19 
ROOT
HETATM    1  C4  UNL     1      86.176  -3.469  42.332  1.00  0.00     0.026 A 
HETATM    2  C5  UNL     1      86.660  -4.640  41.793  1.00  0.00     0.101 A 
HETATM    3  N2  UNL     1      86.188  -5.814  42.245  1.00  0.00    -0.361 N 
ATOM      4  H2  UNL     1      86.545  -6.684  41.849  1.00  0.00     0.166 HD
HETATM    5  C6  UNL     1      85.258  -5.861  43.210  1.00  0.00     0.181 A 
HETATM    6  N3  UNL     1      84.795  -4.712  43.725  1.00  0.00    -0.338 N 
ATOM      7  H3  UNL     1      84.087  -4.760  44.458  1.00  0.00     0.168 HD
HETATM    8  C7  UNL     1      85.219  -3.499  43.323  1.00  0.00     0.111 A 
ENDROOT
BRANCH   8   9
HETATM    9  N4  UNL     1      84.798  -2.399  43.794  1.00  0.00    -0.374 N 
ATOM     10  H4  UNL     1      84.179  -1.858  43.190  1.00  0.00     0.161 HD
BRANCH   9  11
HETATM   11  C8  UNL     1      85.089  -1.832  45.066  1.00  0.00     0.148 C 
BRANCH  11  12
HETATM   12  C9  UNL     1      84.017  -0.771  45.348  1.00  0.00     0.249 C 
BRANCH  12  13
HETATM   13  N5  UNL     1      83.650  -0.886  46.734  1.00  0.00    -0.078 N 
ATOM     14  H53 UNL     1      84.020  -0.128  47.307  1.00  0.00     0.274 HD
ATOM     15  H52 UNL     1      82.659  -0.707  46.898  1.00  0.00     0.274 HD
ATOM     16  H51 UNL     1      83.945  -1.808  47.054  1.00  0.00     0.274 HD
ENDBRANCH  12  13
ENDBRANCH  11  12
ENDBRANCH   9  11
ENDBRANCH   8   9
BRANCH   1  17
HETATM   17  C3  UNL     1      86.671  -2.139  41.858  1.00  0.00     0.276 C 
BRANCH  17  18
HETATM   18  N1  UNL     1      86.071  -1.783  40.586  1.00  0.00    -0.071 N 
ATOM     19  H12 UNL     1      85.438  -2.498  40.227  1.00  0.00     0.277 HD
ATOM     20  H11 UNL     1      86.734  -1.797  39.811  1.00  0.00     0.277 HD
BRANCH  18  21
HETATM   21  C2  UNL     1      85.427  -0.485  40.769  1.00  0.00     0.228 C 
HETATM   22  C1  UNL     1      84.249  -0.305  39.871  1.00  0.00     0.034 C 
ENDBRANCH  18  21
ENDBRANCH  17  18
ENDBRANCH   1  17
TORSDOF 7
ENDMDL
