MODEL 1
REMARK VINA RESULT: -8.850902643      0.000      0.000
REMARK  6 active torsions:
REMARK  status: ('A' for Active; 'I' for Inactive)
REMARK    1  A    between atoms: C2_2  and  C3_3 
REMARK    2  A    between atoms: C3_3  and  C5_6 
REMARK    3  A    between atoms: C3_3  and  N2_8 
REMARK    4  A    between atoms: N2_8  and  C7_10 
REMARK    5  A    between atoms: C11_14  and  C12_15 
REMARK    6  A    between atoms: C21_25  and  C22_26 
ROOT
HETATM    1  C3  UNL     1       6.818   8.164  24.447  1.00  0.00     0.119 C 
HETATM    2  C4  UNL     1       8.023   7.876  25.212  1.00  0.00     0.090 C 
HETATM    3  N1  UNL     1       8.989   7.667  25.811  1.00  0.00    -0.195 NA
ENDROOT
BRANCH   1   4
HETATM    4  C2  UNL     1       5.835   8.739  25.460  1.00  0.00     0.042 C 
HETATM    5  C1  UNL     1       4.485   8.133  25.436  1.00  0.00     0.009 C 
ENDBRANCH   1   4
BRANCH   1   6
HETATM    6  C5  UNL     1       7.069   9.364  23.511  1.00  0.00     0.042 C 
HETATM    7  C6  UNL     1       8.552   9.654  23.467  1.00  0.00     0.009 C 
ENDBRANCH   1   6
BRANCH   1   8
HETATM    8  N2  UNL     1       6.209   7.173  23.766  1.00  0.00    -0.375 N 
ATOM      9  H2  UNL     1       5.826   6.453  24.378  1.00  0.00     0.161 HD
BRANCH   8  10
HETATM   10  C7  UNL     1       5.986   6.910  22.442  1.00  0.00    -0.012 C 
HETATM   11  C8  UNL     1       4.879   6.025  21.988  1.00  0.00     0.057 C 
HETATM   12  C9  UNL     1       4.683   5.976  20.507  1.00  0.00    -0.007 C 
HETATM   13  C10 UNL     1       5.418   4.781  19.960  1.00  0.00     0.019 C 
HETATM   14  C23 UNL     1       4.996   7.193  19.740  1.00  0.00     0.022 C 
HETATM   15  C11 UNL     1       6.902   5.028  19.750  1.00  0.00    -0.011 C 
HETATM   16  C18 UNL     1       7.489   5.366  21.085  1.00  0.00     0.025 C 
HETATM   17  C24 UNL     1       7.040   6.144  18.749  1.00  0.00     0.032 C 
HETATM   18  C19 UNL     1       7.223   6.731  21.568  1.00  0.00     0.033 C 
HETATM   19  C20 UNL     1       7.318   7.788  20.481  1.00  0.00     0.028 C 
HETATM   20  C21 UNL     1       6.424   7.375  19.343  1.00  0.00     0.023 C 
BRANCH  15  21
HETATM   21  C12 UNL     1       7.447   3.810  19.151  1.00  0.00    -0.049 A 
HETATM   22  C13 UNL     1       8.799   3.846  18.772  1.00  0.00     0.009 A 
HETATM   23  C14 UNL     1       9.418   2.740  18.198  1.00  0.00     0.019 A 
HETATM   24  C15 UNL     1       8.710   1.595  17.992  1.00  0.00     0.011 A 
HETATM   25 BR1  UNL     1       9.526   0.078  17.210  1.00  0.00    -0.051 Br
HETATM   26  C16 UNL     1       7.368   1.551  18.365  1.00  0.00     0.019 A 
HETATM   27  C17 UNL     1       6.758   2.653  18.936  1.00  0.00     0.009 A 
ENDBRANCH  15  21
BRANCH  20  28
HETATM   28  C22 UNL     1       6.494   8.474  18.334  1.00  0.00     0.121 A 
HETATM   29  N3  UNL     1       7.318   9.532  18.415  1.00  0.00    -0.272 N 
HETATM   30  N4  UNL     1       7.109  10.292  17.356  1.00  0.00    -0.227 N 
ATOM     31  H3  UNL     1       7.987   9.715  19.163  1.00  0.00     0.190 HD
HETATM   32  N5  UNL     1       6.158   9.741  16.588  1.00  0.00    -0.227 N 
ATOM     33  H4  UNL     1       7.597  11.165  17.153  1.00  0.00     0.210 HD
HETATM   34  N6  UNL     1       5.797   8.637  17.197  1.00  0.00    -0.272 N 
ATOM     35  H5  UNL     1       5.790  10.107  15.709  1.00  0.00     0.210 HD
ATOM     36  H6  UNL     1       5.085   7.991  16.854  1.00  0.00     0.190 HD
ENDBRANCH  20  28
ENDBRANCH   8  10
ENDBRANCH   1   8
TORSDOF 6
ENDMDL
MODEL 2
REMARK VINA RESULT: -8.824495958      0.765      1.574
REMARK  6 active torsions:
REMARK  status: ('A' for Active; 'I' for Inactive)
REMARK    1  A    between atoms: C2_2  and  C3_3 
REMARK    2  A    between atoms: C3_3  and  C5_6 
REMARK    3  A    between atoms: C3_3  and  N2_8 
REMARK    4  A    between atoms: N2_8  and  C7_10 
REMARK    5  A    between atoms: C11_14  and  C12_15 
REMARK    6  A    between atoms: C21_25  and  C22_26 
ROOT
HETATM    1  C3  UNL     1       6.969   8.406  24.327  1.00  0.00     0.119 C 
HETATM    2  C4  UNL     1       7.625   9.452  23.556  1.00  0.00     0.090 C 
HETATM    3  N1  UNL     1       8.133  10.298  22.955  1.00  0.00    -0.195 NA
ENDROOT
BRANCH   1   4
HETATM    4  C2  UNL     1       7.969   8.030  25.414  1.00  0.00     0.042 C 
HETATM    5  C1  UNL     1       9.371   8.410  25.134  1.00  0.00     0.009 C 
ENDBRANCH   1   4
BRANCH   1   6
HETATM    6  C5  UNL     1       5.806   9.011  25.142  1.00  0.00     0.042 C 
HETATM    7  C6  UNL     1       4.733   7.962  25.323  1.00  0.00     0.009 C 
ENDBRANCH   1   6
BRANCH   1   8
HETATM    8  N2  UNL     1       6.557   7.282  23.708  1.00  0.00    -0.375 N 
ATOM      9  H2  UNL     1       6.456   6.495  24.350  1.00  0.00     0.161 HD
BRANCH   8  10
HETATM   10  C7  UNL     1       6.242   6.952  22.419  1.00  0.00    -0.012 C 
HETATM   11  C8  UNL     1       5.130   6.018  22.091  1.00  0.00     0.057 C 
HETATM   12  C9  UNL     1       4.824   5.895  20.633  1.00  0.00    -0.007 C 
HETATM   13  C10 UNL     1       5.551   4.697  20.084  1.00  0.00     0.019 C 
HETATM   14  C23 UNL     1       5.041   7.083  19.792  1.00  0.00     0.022 C 
HETATM   15  C11 UNL     1       7.007   4.973  19.749  1.00  0.00    -0.011 C 
HETATM   16  C18 UNL     1       7.683   5.389  21.018  1.00  0.00     0.025 C 
HETATM   17  C24 UNL     1       7.034   6.046  18.692  1.00  0.00     0.032 C 
HETATM   18  C19 UNL     1       7.413   6.766  21.461  1.00  0.00     0.033 C 
HETATM   19  C20 UNL     1       7.393   7.775  20.324  1.00  0.00     0.028 C 
HETATM   20  C21 UNL     1       6.428   7.285  19.278  1.00  0.00     0.023 C 
BRANCH  15  21
HETATM   21  C12 UNL     1       7.541   3.744  19.164  1.00  0.00    -0.049 A 
HETATM   22  C13 UNL     1       8.889   3.771  18.769  1.00  0.00     0.009 A 
HETATM   23  C14 UNL     1       9.498   2.653  18.205  1.00  0.00     0.019 A 
HETATM   24  C15 UNL     1       8.784   1.507  18.027  1.00  0.00     0.011 A 
HETATM   25 BR1  UNL     1       9.588  -0.026  17.260  1.00  0.00    -0.051 Br
HETATM   26  C16 UNL     1       7.447   1.473  18.417  1.00  0.00     0.019 A 
HETATM   27  C17 UNL     1       6.847   2.586  18.976  1.00  0.00     0.009 A 
ENDBRANCH  15  21
BRANCH  20  28
HETATM   28  C22 UNL     1       6.388   8.338  18.219  1.00  0.00     0.121 A 
HETATM   29  N3  UNL     1       7.085   9.485  18.257  1.00  0.00    -0.272 N 
HETATM   30  N4  UNL     1       6.807  10.168  17.162  1.00  0.00    -0.227 N 
ATOM     31  H3  UNL     1       7.719   9.778  19.002  1.00  0.00     0.190 HD
HETATM   32  N5  UNL     1       5.935   9.478  16.412  1.00  0.00    -0.227 N 
ATOM     33  H4  UNL     1       7.195  11.081  16.923  1.00  0.00     0.210 HD
HETATM   34  N6  UNL     1       5.693   8.368  17.069  1.00  0.00    -0.272 N 
ATOM     35  H5  UNL     1       5.541   9.759  15.514  1.00  0.00     0.210 HD
ATOM     36  H6  UNL     1       5.064   7.631  16.751  1.00  0.00     0.190 HD
ENDBRANCH  20  28
ENDBRANCH   8  10
ENDBRANCH   1   8
TORSDOF 6
ENDMDL
MODEL 3
REMARK VINA RESULT: -8.804021959      1.856      2.763
REMARK  6 active torsions:
REMARK  status: ('A' for Active; 'I' for Inactive)
REMARK    1  A    between atoms: C2_2  and  C3_3 
REMARK    2  A    between atoms: C3_3  and  C5_6 
REMARK    3  A    between atoms: C3_3  and  N2_8 
REMARK    4  A    between atoms: N2_8  and  C7_10 
REMARK    5  A    between atoms: C11_14  and  C12_15 
REMARK    6  A    between atoms: C21_25  and  C22_26 
ROOT
HETATM    1  C3  UNL     1       6.335   7.289  22.661  1.00  0.00     0.119 C 
HETATM    2  C4  UNL     1       5.487   7.594  23.804  1.00  0.00     0.090 C 
HETATM    3  N1  UNL     1       4.831   7.849  24.721  1.00  0.00    -0.195 NA
ENDROOT
BRANCH   1   4
HETATM    4  C2  UNL     1       5.835   8.198  21.545  1.00  0.00     0.042 C 
HETATM    5  C1  UNL     1       4.409   8.027  21.188  1.00  0.00     0.009 C 
ENDBRANCH   1   4
BRANCH   1   6
HETATM    6  C5  UNL     1       7.760   7.824  22.912  1.00  0.00     0.042 C 
HETATM    7  C6  UNL     1       7.744   9.332  22.819  1.00  0.00     0.009 C 
ENDBRANCH   1   6
BRANCH   1   8
HETATM    8  N2  UNL     1       6.397   6.025  22.197  1.00  0.00    -0.375 N 
ATOM      9  H2  UNL     1       6.682   5.357  22.912  1.00  0.00     0.161 HD
BRANCH   8  10
HETATM   10  C7  UNL     1       6.164   5.432  20.986  1.00  0.00    -0.012 C 
HETATM   11  C8  UNL     1       5.278   4.243  20.847  1.00  0.00     0.057 C 
HETATM   12  C9  UNL     1       5.011   3.824  19.437  1.00  0.00    -0.007 C 
HETATM   13  C10 UNL     1       5.978   2.733  19.064  1.00  0.00     0.019 C 
HETATM   14  C23 UNL     1       4.972   4.878  18.411  1.00  0.00     0.022 C 
HETATM   15  C11 UNL     1       7.343   3.252  18.644  1.00  0.00    -0.011 C 
HETATM   16  C18 UNL     1       7.911   4.001  19.809  1.00  0.00     0.025 C 
HETATM   17  C24 UNL     1       7.145   4.120  17.429  1.00  0.00     0.032 C 
HETATM   18  C19 UNL     1       7.351   5.344  20.034  1.00  0.00     0.033 C 
HETATM   19  C20 UNL     1       7.121   6.127  18.753  1.00  0.00     0.028 C 
HETATM   20  C21 UNL     1       6.286   5.282  17.828  1.00  0.00     0.023 C 
BRANCH  15  21
HETATM   21  C12 UNL     1       8.129   2.084  18.245  1.00  0.00    -0.049 A 
HETATM   22  C13 UNL     1       7.608   1.304  17.200  1.00  0.00     0.009 A 
HETATM   23  C14 UNL     1       8.278   0.175  16.739  1.00  0.00     0.019 A 
HETATM   24  C15 UNL     1       9.462  -0.192  17.305  1.00  0.00     0.011 A 
HETATM   25 BR1  UNL     1      10.392  -1.725  16.700  1.00  0.00    -0.051 Br
HETATM   26  C16 UNL     1       9.985   0.577  18.343  1.00  0.00     0.019 A 
HETATM   27  C17 UNL     1       9.314   1.698  18.796  1.00  0.00     0.009 A 
ENDBRANCH  15  21
BRANCH  20  28
HETATM   28  C22 UNL     1       6.027   6.116  16.617  1.00  0.00     0.121 A 
HETATM   29  N3  UNL     1       5.517   7.359  16.641  1.00  0.00    -0.272 N 
HETATM   30  N4  UNL     1       5.427   7.787  15.396  1.00  0.00    -0.227 N 
ATOM     31  H3  UNL     1       5.247   7.880  17.476  1.00  0.00     0.190 HD
HETATM   32  N5  UNL     1       5.872   6.836  14.561  1.00  0.00    -0.227 N 
ATOM     33  H4  UNL     1       5.073   8.701  15.112  1.00  0.00     0.210 HD
HETATM   34  N6  UNL     1       6.233   5.829  15.320  1.00  0.00    -0.272 N 
ATOM     35  H5  UNL     1       5.919   6.885  13.543  1.00  0.00     0.210 HD
ATOM     36  H6  UNL     1       6.618   4.950  14.974  1.00  0.00     0.190 HD
ENDBRANCH  20  28
ENDBRANCH   8  10
ENDBRANCH   1   8
TORSDOF 6
ENDMDL
MODEL 4
REMARK VINA RESULT: -8.803797428      2.574      4.147
REMARK  6 active torsions:
REMARK  status: ('A' for Active; 'I' for Inactive)
REMARK    1  A    between atoms: C2_2  and  C3_3 
REMARK    2  A    between atoms: C3_3  and  C5_6 
REMARK    3  A    between atoms: C3_3  and  N2_8 
REMARK    4  A    between atoms: N2_8  and  C7_10 
REMARK    5  A    between atoms: C11_14  and  C12_15 
REMARK    6  A    between atoms: C21_25  and  C22_26 
ROOT
HETATM    1  C3  UNL     1       1.837   6.417  23.581  1.00  0.00     0.119 C 
HETATM    2  C4  UNL     1       2.008   5.140  24.259  1.00  0.00     0.090 C 
HETATM    3  N1  UNL     1       2.151   4.138  24.816  1.00  0.00    -0.195 NA
ENDROOT
BRANCH   1   4
HETATM    4  C2  UNL     1       0.340   6.696  23.637  1.00  0.00     0.042 C 
HETATM    5  C1  UNL     1      -0.315   6.871  22.322  1.00  0.00     0.009 C 
ENDBRANCH   1   4
BRANCH   1   6
HETATM    6  C5  UNL     1       2.418   7.551  24.451  1.00  0.00     0.042 C 
HETATM    7  C6  UNL     1       1.431   7.890  25.544  1.00  0.00     0.009 C 
ENDBRANCH   1   6
BRANCH   1   8
HETATM    8  N2  UNL     1       2.257   6.556  22.308  1.00  0.00    -0.375 N 
ATOM      9  H2  UNL     1       1.499   6.466  21.632  1.00  0.00     0.161 HD
BRANCH   8  10
HETATM   10  C7  UNL     1       3.466   6.792  21.713  1.00  0.00    -0.012 C 
HETATM   11  C8  UNL     1       3.606   6.935  20.238  1.00  0.00     0.057 C 
HETATM   12  C9  UNL     1       4.966   7.346  19.774  1.00  0.00    -0.007 C 
HETATM   13  C10 UNL     1       5.742   6.114  19.394  1.00  0.00     0.019 C 
HETATM   14  C23 UNL     1       5.751   8.219  20.663  1.00  0.00     0.022 C 
HETATM   15  C11 UNL     1       6.368   5.403  20.582  1.00  0.00    -0.011 C 
HETATM   16  C18 UNL     1       5.252   4.990  21.491  1.00  0.00     0.025 C 
HETATM   17  C24 UNL     1       7.329   6.363  21.232  1.00  0.00     0.032 C 
HETATM   18  C19 UNL     1       4.668   6.066  22.308  1.00  0.00     0.033 C 
HETATM   19  C20 UNL     1       5.700   7.029  22.871  1.00  0.00     0.028 C 
HETATM   20  C21 UNL     1       6.541   7.536  21.730  1.00  0.00     0.023 C 
BRANCH  15  21
HETATM   21  C12 UNL     1       7.139   4.284  20.040  1.00  0.00    -0.049 A 
HETATM   22  C13 UNL     1       8.103   4.599  19.068  1.00  0.00     0.009 A 
HETATM   23  C14 UNL     1       8.896   3.612  18.491  1.00  0.00     0.019 A 
HETATM   24  C15 UNL     1       8.742   2.311  18.866  1.00  0.00     0.011 A 
HETATM   25 BR1  UNL     1       9.804   0.948  18.094  1.00  0.00    -0.051 Br
HETATM   26  C16 UNL     1       7.788   1.991  19.830  1.00  0.00     0.019 A 
HETATM   27  C17 UNL     1       7.004   2.977  20.400  1.00  0.00     0.009 A 
ENDBRANCH  15  21
BRANCH  20  28
HETATM   28  C22 UNL     1       7.490   8.528  22.318  1.00  0.00     0.121 A 
HETATM   29  N3  UNL     1       7.493   9.842  22.038  1.00  0.00    -0.272 N 
HETATM   30  N4  UNL     1       8.461  10.406  22.735  1.00  0.00    -0.227 N 
ATOM     31  H3  UNL     1       6.858  10.320  21.398  1.00  0.00     0.190 HD
HETATM   32  N5  UNL     1       9.090   9.474  23.466  1.00  0.00    -0.227 N 
ATOM     33  H4  UNL     1       8.696  11.399  22.720  1.00  0.00     0.210 HD
HETATM   34  N6  UNL     1       8.486   8.339  23.201  1.00  0.00    -0.272 N 
ATOM     35  H5  UNL     1       9.878   9.617  24.099  1.00  0.00     0.210 HD
ATOM     36  H6  UNL     1       8.738   7.439  23.609  1.00  0.00     0.190 HD
ENDBRANCH  20  28
ENDBRANCH   8  10
ENDBRANCH   1   8
TORSDOF 6
ENDMDL
MODEL 5
REMARK VINA RESULT: -8.800225200      2.490      4.116
REMARK  6 active torsions:
REMARK  status: ('A' for Active; 'I' for Inactive)
REMARK    1  A    between atoms: C2_2  and  C3_3 
REMARK    2  A    between atoms: C3_3  and  C5_6 
REMARK    3  A    between atoms: C3_3  and  N2_8 
REMARK    4  A    between atoms: N2_8  and  C7_10 
REMARK    5  A    between atoms: C11_14  and  C12_15 
REMARK    6  A    between atoms: C21_25  and  C22_26 
ROOT
HETATM    1  C3  UNL     1       1.982   7.573  23.582  1.00  0.00     0.119 C 
HETATM    2  C4  UNL     1       2.808   8.059  24.677  1.00  0.00     0.090 C 
HETATM    3  N1  UNL     1       3.449   8.464  25.550  1.00  0.00    -0.195 NA
ENDROOT
BRANCH   1   4
HETATM    4  C2  UNL     1       1.152   6.446  24.184  1.00  0.00     0.042 C 
HETATM    5  C1  UNL     1       1.886   5.181  24.415  1.00  0.00     0.009 C 
ENDBRANCH   1   4
BRANCH   1   6
HETATM    6  C5  UNL     1       0.908   8.624  23.231  1.00  0.00     0.042 C 
HETATM    7  C6  UNL     1      -0.071   8.730  24.377  1.00  0.00     0.009 C 
ENDBRANCH   1   6
BRANCH   1   8
HETATM    8  N2  UNL     1       2.568   7.125  22.454  1.00  0.00    -0.375 N 
ATOM      9  H2  UNL     1       1.938   6.568  21.878  1.00  0.00     0.161 HD
BRANCH   8  10
HETATM   10  C7  UNL     1       3.815   7.246  21.903  1.00  0.00    -0.012 C 
HETATM   11  C8  UNL     1       4.015   7.454  20.443  1.00  0.00     0.057 C 
HETATM   12  C9  UNL     1       5.429   7.724  20.037  1.00  0.00    -0.007 C 
HETATM   13  C10 UNL     1       6.064   6.430  19.603  1.00  0.00     0.019 C 
HETATM   14  C23 UNL     1       6.284   8.445  20.994  1.00  0.00     0.022 C 
HETATM   15  C11 UNL     1       6.564   5.584  20.761  1.00  0.00    -0.011 C 
HETATM   16  C18 UNL     1       5.380   5.259  21.617  1.00  0.00     0.025 C 
HETATM   17  C24 UNL     1       7.612   6.384  21.489  1.00  0.00     0.032 C 
HETATM   18  C19 UNL     1       4.903   6.350  22.482  1.00  0.00     0.033 C 
HETATM   19  C20 UNL     1       6.025   7.148  23.125  1.00  0.00     0.028 C 
HETATM   20  C21 UNL     1       6.954   7.614  22.037  1.00  0.00     0.023 C 
BRANCH  15  21
HETATM   21  C12 UNL     1       7.214   4.413  20.172  1.00  0.00    -0.049 A 
HETATM   22  C13 UNL     1       8.174   4.662  19.177  1.00  0.00     0.009 A 
HETATM   23  C14 UNL     1       8.855   3.620  18.555  1.00  0.00     0.019 A 
HETATM   24  C15 UNL     1       8.595   2.330  18.908  1.00  0.00     0.011 A 
HETATM   25 BR1  UNL     1       9.505   0.895  18.076  1.00  0.00    -0.051 Br
HETATM   26  C16 UNL     1       7.644   2.076  19.894  1.00  0.00     0.019 A 
HETATM   27  C17 UNL     1       6.970   3.115  20.509  1.00  0.00     0.009 A 
ENDBRANCH  15  21
BRANCH  20  28
HETATM   28  C22 UNL     1       7.996   8.450  22.705  1.00  0.00     0.121 A 
HETATM   29  N3  UNL     1       9.189   8.755  22.169  1.00  0.00    -0.272 N 
HETATM   30  N4  UNL     1       9.845   9.505  23.035  1.00  0.00    -0.227 N 
ATOM     31  H3  UNL     1       9.529   8.459  21.254  1.00  0.00     0.190 HD
HETATM   32  N5  UNL     1       9.093   9.691  24.129  1.00  0.00    -0.227 N 
ATOM     33  H4  UNL     1      10.782   9.885  22.893  1.00  0.00     0.210 HD
HETATM   34  N6  UNL     1       7.973   9.044  23.911  1.00  0.00    -0.272 N 
ATOM     35  H5  UNL     1       9.341  10.226  24.962  1.00  0.00     0.210 HD
ATOM     36  H6  UNL     1       7.192   8.998  24.566  1.00  0.00     0.190 HD
ENDBRANCH  20  28
ENDBRANCH   8  10
ENDBRANCH   1   8
TORSDOF 6
ENDMDL
