MODEL 1
REMARK VINA RESULT: -5.773900936      0.000      0.000
REMARK  1 active torsions:
REMARK  status: ('A' for Active; 'I' for Inactive)
REMARK    1  A    between atoms: C3_3  and  N1_4 
ROOT
HETATM    1  C1  UNL     1      21.157  18.205  26.461  1.00  0.00     0.014 C 
HETATM    2  C2  UNL     1      21.971  18.747  27.170  1.00  0.00    -0.097 C 
HETATM    3  C3  UNL     1      22.957  19.433  28.035  1.00  0.00     0.227 C 
ENDROOT
BRANCH   3   4
HETATM    4  N1  UNL     1      22.759  20.868  28.009  1.00  0.00    -0.273 N 
HETATM    5  C4  UNL     1      23.560  21.662  27.270  1.00  0.00     0.213 A 
HETATM    6  N2  UNL     1      24.594  21.027  26.528  1.00  0.00    -0.062 NA
HETATM    7  N3  UNL     1      23.381  23.004  27.240  1.00  0.00    -0.272 N 
HETATM    8  N4  UNL     1      22.407  23.569  27.943  1.00  0.00    -0.279 N 
ATOM      9  H3  UNL     1      24.000  23.584  26.672  1.00  0.00     0.189 HD
HETATM   10  C5  UNL     1      21.579  22.813  28.700  1.00  0.00     0.183 A 
ATOM     11  H4  UNL     1      22.283  24.581  27.912  1.00  0.00     0.189 HD
HETATM   12  N5  UNL     1      20.652  23.400  29.362  1.00  0.00    -0.380 N 
HETATM   13  C6  UNL     1      21.779  21.454  28.714  1.00  0.00     0.295 A 
ATOM     14  H52 UNL     1      20.502  24.409  29.351  1.00  0.00     0.158 HD
ATOM     15  H51 UNL     1      20.027  22.830  29.933  1.00  0.00     0.158 HD
HETATM   16  O1  UNL     1      21.005  20.766  29.418  1.00  0.00    -0.264 OA
ENDBRANCH   3   4
TORSDOF 1
ENDMDL
MODEL 2
REMARK VINA RESULT: -5.618480241      0.805      1.496
REMARK  1 active torsions:
REMARK  status: ('A' for Active; 'I' for Inactive)
REMARK    1  A    between atoms: C3_3  and  N1_4 
ROOT
HETATM    1  C1  UNL     1      24.076  18.496  29.964  1.00  0.00     0.014 C 
HETATM    2  C2  UNL     1      23.493  18.905  28.990  1.00  0.00    -0.097 C 
HETATM    3  C3  UNL     1      22.781  19.431  27.802  1.00  0.00     0.227 C 
ENDROOT
BRANCH   3   4
HETATM    4  N1  UNL     1      22.642  20.871  27.877  1.00  0.00    -0.273 N 
HETATM    5  C4  UNL     1      23.521  21.682  27.256  1.00  0.00     0.213 A 
HETATM    6  N2  UNL     1      24.577  21.061  26.532  1.00  0.00    -0.062 NA
HETATM    7  N3  UNL     1      23.399  23.029  27.320  1.00  0.00    -0.272 N 
HETATM    8  N4  UNL     1      22.403  23.582  28.003  1.00  0.00    -0.279 N 
ATOM      9  H3  UNL     1      24.076  23.623  26.841  1.00  0.00     0.189 HD
HETATM   10  C5  UNL     1      21.497  22.809  28.644  1.00  0.00     0.183 A 
ATOM     11  H4  UNL     1      22.322  24.598  28.045  1.00  0.00     0.189 HD
HETATM   12  N5  UNL     1      20.552  23.384  29.291  1.00  0.00    -0.380 N 
HETATM   13  C6  UNL     1      21.642  21.445  28.564  1.00  0.00     0.295 A 
ATOM     14  H52 UNL     1      20.444  24.397  29.350  1.00  0.00     0.158 HD
ATOM     15  H51 UNL     1      19.869  22.801  29.775  1.00  0.00     0.158 HD
HETATM   16  O1  UNL     1      20.797  20.740  29.160  1.00  0.00    -0.264 OA
ENDBRANCH   3   4
TORSDOF 1
ENDMDL
MODEL 3
REMARK VINA RESULT: -5.481592578      1.794      2.976
REMARK  1 active torsions:
REMARK  status: ('A' for Active; 'I' for Inactive)
REMARK    1  A    between atoms: C3_3  and  N1_4 
ROOT
HETATM    1  C1  UNL     1      19.384  18.650  27.502  1.00  0.00     0.014 C 
HETATM    2  C2  UNL     1      20.235  18.973  28.297  1.00  0.00    -0.097 C 
HETATM    3  C3  UNL     1      21.273  19.393  29.265  1.00  0.00     0.227 C 
ENDROOT
BRANCH   3   4
HETATM    4  N1  UNL     1      21.514  20.819  29.179  1.00  0.00    -0.273 N 
HETATM    5  C4  UNL     1      20.924  21.671  30.041  1.00  0.00     0.213 A 
HETATM    6  N2  UNL     1      20.067  21.106  31.026  1.00  0.00    -0.062 NA
HETATM    7  N3  UNL     1      21.144  23.006  29.969  1.00  0.00    -0.272 N 
HETATM    8  N4  UNL     1      21.950  23.505  29.040  1.00  0.00    -0.279 N 
ATOM      9  H3  UNL     1      20.687  23.631  30.633  1.00  0.00     0.189 HD
HETATM   10  C5  UNL     1      22.564  22.689  28.151  1.00  0.00     0.183 A 
ATOM     11  H4  UNL     1      22.108  24.512  28.995  1.00  0.00     0.189 HD
HETATM   12  N5  UNL     1      23.334  23.214  27.272  1.00  0.00    -0.380 N 
HETATM   13  C6  UNL     1      22.325  21.339  28.246  1.00  0.00     0.295 A 
ATOM     14  H52 UNL     1      23.511  24.216  27.202  1.00  0.00     0.158 HD
ATOM     15  H51 UNL     1      23.796  22.598  26.602  1.00  0.00     0.158 HD
HETATM   16  O1  UNL     1      22.900  20.595  27.419  1.00  0.00    -0.264 OA
ENDBRANCH   3   4
TORSDOF 1
ENDMDL
MODEL 4
REMARK VINA RESULT: -5.411570087      2.136      3.577
REMARK  1 active torsions:
REMARK  status: ('A' for Active; 'I' for Inactive)
REMARK    1  A    between atoms: C3_3  and  N1_4 
ROOT
HETATM    1  C1  UNL     1      23.878  19.237  31.812  1.00  0.00     0.014 C 
HETATM    2  C2  UNL     1      22.992  19.370  31.003  1.00  0.00    -0.097 C 
HETATM    3  C3  UNL     1      21.913  19.557  30.006  1.00  0.00     0.227 C 
ENDROOT
BRANCH   3   4
HETATM    4  N1  UNL     1      21.839  20.938  29.576  1.00  0.00    -0.273 N 
HETATM    5  C4  UNL     1      20.941  21.784  30.122  1.00  0.00     0.213 A 
HETATM    6  N2  UNL     1      20.084  21.257  31.128  1.00  0.00    -0.062 NA
HETATM    7  N3  UNL     1      20.866  23.077  29.727  1.00  0.00    -0.272 N 
HETATM    8  N4  UNL     1      21.679  23.541  28.786  1.00  0.00    -0.279 N 
ATOM      9  H3  UNL     1      20.179  23.698  30.155  1.00  0.00     0.189 HD
HETATM   10  C5  UNL     1      22.596  22.730  28.208  1.00  0.00     0.183 A 
ATOM     11  H4  UNL     1      21.612  24.517  28.496  1.00  0.00     0.189 HD
HETATM   12  N5  UNL     1      23.361  23.220  27.305  1.00  0.00    -0.380 N 
HETATM   13  C6  UNL     1      22.653  21.423  28.627  1.00  0.00     0.295 A 
ATOM     14  H52 UNL     1      23.318  24.191  26.995  1.00  0.00     0.158 HD
ATOM     15  H51 UNL     1      24.052  22.609  26.869  1.00  0.00     0.158 HD
HETATM   16  O1  UNL     1      23.506  20.683  28.085  1.00  0.00    -0.264 OA
ENDBRANCH   3   4
TORSDOF 1
ENDMDL
MODEL 5
REMARK VINA RESULT: -5.311000683      2.431      3.440
REMARK  1 active torsions:
REMARK  status: ('A' for Active; 'I' for Inactive)
REMARK    1  A    between atoms: C3_3  and  N1_4 
ROOT
HETATM    1  C1  UNL     1      24.908  22.914  32.252  1.00  0.00     0.014 C 
HETATM    2  C2  UNL     1      24.322  22.075  31.611  1.00  0.00    -0.097 C 
HETATM    3  C3  UNL     1      23.594  21.066  30.809  1.00  0.00     0.227 C 
ENDROOT
BRANCH   3   4
HETATM    4  N1  UNL     1      22.697  21.701  29.866  1.00  0.00    -0.273 N 
HETATM    5  C4  UNL     1      23.157  22.182  28.693  1.00  0.00     0.213 A 
HETATM    6  N2  UNL     1      24.548  22.034  28.433  1.00  0.00    -0.062 NA
HETATM    7  N3  UNL     1      22.326  22.777  27.805  1.00  0.00    -0.272 N 
HETATM    8  N4  UNL     1      21.032  22.901  28.074  1.00  0.00    -0.279 N 
ATOM      9  H3  UNL     1      22.697  23.132  26.923  1.00  0.00     0.189 HD
HETATM   10  C5  UNL     1      20.524  22.435  29.239  1.00  0.00     0.183 A 
ATOM     11  H4  UNL     1      20.415  23.352  27.397  1.00  0.00     0.189 HD
HETATM   12  N5  UNL     1      19.269  22.576  29.457  1.00  0.00    -0.380 N 
HETATM   13  C6  UNL     1      21.387  21.835  30.123  1.00  0.00     0.295 A 
ATOM     14  H52 UNL     1      18.628  23.021  28.800  1.00  0.00     0.158 HD
ATOM     15  H51 UNL     1      18.887  22.224  30.335  1.00  0.00     0.158 HD
HETATM   16  O1  UNL     1      20.905  21.407  31.196  1.00  0.00    -0.264 OA
ENDBRANCH   3   4
TORSDOF 1
ENDMDL
