MODEL 1
REMARK VINA RESULT: -5.675299061      0.000      0.000
REMARK  1 active torsions:
REMARK  status: ('A' for Active; 'I' for Inactive)
REMARK    1  A    between atoms: C3_3  and  N1_4 
ROOT
HETATM    1  C1  UNL     1      17.472  18.876  31.926  1.00  0.00     0.014 C 
HETATM    2  C2  UNL     1      18.573  18.813  31.419  1.00  0.00    -0.096 C 
HETATM    3  C3  UNL     1      19.917  18.762  30.807  1.00  0.00     0.242 C 
ENDROOT
BRANCH   3   4
HETATM    4  N1  UNL     1      20.203  20.015  30.136  1.00  0.00    -0.274 N 
HETATM    5  C4  UNL     1      19.390  20.260  29.002  1.00  0.00     0.217 C 
HETATM    6  N2  UNL     1      19.362  21.334  28.275  1.00  0.00    -0.293 N 
HETATM    7  N3  UNL     1      20.078  22.528  28.367  1.00  0.00    -0.282 N 
ATOM      8  H2  UNL     1      18.700  21.299  27.500  1.00  0.00     0.187 HD
HETATM    9  C5  UNL     1      21.204  22.773  29.198  1.00  0.00     0.157 C 
ATOM     10  H3  UNL     1      19.762  23.300  27.781  1.00  0.00     0.188 HD
HETATM   11  N4  UNL     1      21.910  23.812  28.951  1.00  0.00    -0.382 N 
HETATM   12  C6  UNL     1      21.684  21.973  30.333  1.00  0.00     0.176 C 
ATOM     13  H42 UNL     1      21.577  24.367  28.163  1.00  0.00     0.157 HD
ATOM     14  H41 UNL     1      22.718  23.987  29.547  1.00  0.00     0.157 HD
HETATM   15  N5  UNL     1      22.742  22.534  31.103  1.00  0.00    -0.077 NA
HETATM   16  N6  UNL     1      21.227  20.822  30.681  1.00  0.00    -0.281 N 
ATOM     17  H6  UNL     1      21.686  20.419  31.498  1.00  0.00     0.188 HD
ENDBRANCH   3   4
TORSDOF 1
ENDMDL
MODEL 2
REMARK VINA RESULT: -5.435786584      2.045      2.800
REMARK  1 active torsions:
REMARK  status: ('A' for Active; 'I' for Inactive)
REMARK    1  A    between atoms: C3_3  and  N1_4 
ROOT
HETATM    1  C1  UNL     1      17.495  19.595  27.356  1.00  0.00     0.014 C 
HETATM    2  C2  UNL     1      18.370  19.630  28.198  1.00  0.00    -0.096 C 
HETATM    3  C3  UNL     1      19.433  19.700  29.222  1.00  0.00     0.242 C 
ENDROOT
BRANCH   3   4
HETATM    4  N1  UNL     1      20.323  20.808  28.937  1.00  0.00    -0.274 N 
HETATM    5  C4  UNL     1      19.875  22.053  29.445  1.00  0.00     0.217 C 
HETATM    6  N2  UNL     1      20.509  23.183  29.421  1.00  0.00    -0.293 N 
HETATM    7  N3  UNL     1      21.766  23.525  28.920  1.00  0.00    -0.282 N 
ATOM      8  H2  UNL     1      19.999  23.960  29.843  1.00  0.00     0.187 HD
HETATM    9  C5  UNL     1      22.593  22.713  28.097  1.00  0.00     0.157 C 
ATOM     10  H3  UNL     1      22.126  24.446  29.168  1.00  0.00     0.188 HD
HETATM   11  N4  UNL     1      23.570  23.280  27.496  1.00  0.00    -0.382 N 
HETATM   12  C6  UNL     1      22.475  21.272  27.835  1.00  0.00     0.176 C 
ATOM     13  H42 UNL     1      23.652  24.280  27.678  1.00  0.00     0.157 HD
ATOM     14  H41 UNL     1      24.164  22.697  26.905  1.00  0.00     0.157 HD
HETATM   15  N5  UNL     1      23.539  20.671  27.103  1.00  0.00    -0.077 NA
HETATM   16  N6  UNL     1      21.500  20.523  28.211  1.00  0.00    -0.281 N 
ATOM     17  H6  UNL     1      21.595  19.544  27.936  1.00  0.00     0.188 HD
ENDBRANCH   3   4
TORSDOF 1
ENDMDL
MODEL 3
REMARK VINA RESULT: -5.413864197      0.766      1.453
REMARK  1 active torsions:
REMARK  status: ('A' for Active; 'I' for Inactive)
REMARK    1  A    between atoms: C3_3  and  N1_4 
ROOT
HETATM    1  C1  UNL     1      21.649  17.408  31.451  1.00  0.00     0.014 C 
HETATM    2  C2  UNL     1      20.677  18.084  31.181  1.00  0.00    -0.096 C 
HETATM    3  C3  UNL     1      19.505  18.913  30.829  1.00  0.00     0.242 C 
ENDROOT
BRANCH   3   4
HETATM    4  N1  UNL     1      19.936  20.111  30.137  1.00  0.00    -0.274 N 
HETATM    5  C4  UNL     1      19.207  20.387  28.954  1.00  0.00     0.217 C 
HETATM    6  N2  UNL     1      19.313  21.432  28.194  1.00  0.00    -0.293 N 
HETATM    7  N3  UNL     1      20.127  22.562  28.288  1.00  0.00    -0.282 N 
ATOM      8  H2  UNL     1      18.691  21.428  27.385  1.00  0.00     0.187 HD
HETATM    9  C5  UNL     1      21.227  22.736  29.171  1.00  0.00     0.157 C 
ATOM     10  H3  UNL     1      19.912  23.337  27.662  1.00  0.00     0.188 HD
HETATM   11  N4  UNL     1      22.034  23.699  28.931  1.00  0.00    -0.382 N 
HETATM   12  C6  UNL     1      21.573  21.937  30.355  1.00  0.00     0.176 C 
ATOM     13  H42 UNL     1      21.793  24.254  28.109  1.00  0.00     0.157 HD
ATOM     14  H41 UNL     1      22.823  23.824  29.564  1.00  0.00     0.157 HD
HETATM   15  N5  UNL     1      22.637  22.430  31.163  1.00  0.00    -0.077 NA
HETATM   16  N6  UNL     1      20.998  20.844  30.712  1.00  0.00    -0.281 N 
ATOM     17  H6  UNL     1      21.377  20.431  31.564  1.00  0.00     0.188 HD
ENDBRANCH   3   4
TORSDOF 1
ENDMDL
MODEL 4
REMARK VINA RESULT: -5.351105245      2.446      4.766
REMARK  1 active torsions:
REMARK  status: ('A' for Active; 'I' for Inactive)
REMARK    1  A    between atoms: C3_3  and  N1_4 
ROOT
HETATM    1  C1  UNL     1      26.521  23.343  30.469  1.00  0.00     0.014 C 
HETATM    2  C2  UNL     1      25.762  22.407  30.314  1.00  0.00    -0.096 C 
HETATM    3  C3  UNL     1      24.827  21.283  30.104  1.00  0.00     0.242 C 
ENDROOT
BRANCH   3   4
HETATM    4  N1  UNL     1      23.543  21.783  29.654  1.00  0.00    -0.274 N 
HETATM    5  C4  UNL     1      23.610  22.559  28.470  1.00  0.00     0.217 C 
HETATM    6  N2  UNL     1      22.616  23.047  27.797  1.00  0.00    -0.293 N 
HETATM    7  N3  UNL     1      21.237  22.973  28.002  1.00  0.00    -0.282 N 
ATOM      8  H2  UNL     1      22.889  23.580  26.971  1.00  0.00     0.187 HD
HETATM    9  C5  UNL     1      20.585  22.492  29.169  1.00  0.00     0.157 C 
ATOM     10  H3  UNL     1      20.640  23.295  27.241  1.00  0.00     0.188 HD
HETATM   11  N4  UNL     1      19.341  22.758  29.306  1.00  0.00    -0.382 N 
HETATM   12  C6  UNL     1      21.161  21.709  30.272  1.00  0.00     0.176 C 
ATOM     13  H42 UNL     1      18.941  23.302  28.541  1.00  0.00     0.157 HD
ATOM     14  H41 UNL     1      18.873  22.413  30.144  1.00  0.00     0.157 HD
HETATM   15  N5  UNL     1      20.245  21.211  31.242  1.00  0.00    -0.077 NA
HETATM   16  N6  UNL     1      22.410  21.443  30.425  1.00  0.00    -0.281 N 
ATOM     17  H6  UNL     1      22.620  20.885  31.253  1.00  0.00     0.188 HD
ENDBRANCH   3   4
TORSDOF 1
ENDMDL
MODEL 5
REMARK VINA RESULT: -5.194642163      1.920      2.550
REMARK  1 active torsions:
REMARK  status: ('A' for Active; 'I' for Inactive)
REMARK    1  A    between atoms: C3_3  and  N1_4 
ROOT
HETATM    1  C1  UNL     1      20.949  18.036  31.154  1.00  0.00     0.014 C 
HETATM    2  C2  UNL     1      20.304  18.819  30.486  1.00  0.00    -0.096 C 
HETATM    3  C3  UNL     1      19.541  19.776  29.658  1.00  0.00     0.242 C 
ENDROOT
BRANCH   3   4
HETATM    4  N1  UNL     1      20.408  20.852  29.219  1.00  0.00    -0.274 N 
HETATM    5  C4  UNL     1      20.000  22.136  29.658  1.00  0.00     0.217 C 
HETATM    6  N2  UNL     1      20.631  23.257  29.497  1.00  0.00    -0.293 N 
HETATM    7  N3  UNL     1      21.848  23.549  28.878  1.00  0.00    -0.282 N 
ATOM      8  H2  UNL     1      20.155  24.068  29.892  1.00  0.00     0.187 HD
HETATM    9  C5  UNL     1      22.611  22.670  28.064  1.00  0.00     0.157 C 
ATOM     10  H3  UNL     1      22.226  24.485  29.024  1.00  0.00     0.188 HD
HETATM   11  N4  UNL     1      23.540  23.180  27.348  1.00  0.00    -0.382 N 
HETATM   12  C6  UNL     1      22.473  21.213  27.927  1.00  0.00     0.176 C 
ATOM     13  H42 UNL     1      23.636  24.191  27.442  1.00  0.00     0.157 HD
ATOM     14  H41 UNL     1      24.088  22.548  26.763  1.00  0.00     0.157 HD
HETATM   15  N5  UNL     1      23.478  20.548  27.168  1.00  0.00    -0.077 NA
HETATM   16  N6  UNL     1      21.528  20.502  28.433  1.00  0.00    -0.281 N 
ATOM     17  H6  UNL     1      21.601  19.504  28.231  1.00  0.00     0.188 HD
ENDBRANCH   3   4
TORSDOF 1
ENDMDL
