MODEL 1
REMARK VINA RESULT: -5.579535522      0.000      0.000
REMARK  1 active torsions:
REMARK  status: ('A' for Active; 'I' for Inactive)
REMARK    1  A    between atoms: C5_10  and  N4_11 
REMARK       I    between atoms: N4_11  and  C6_13 
REMARK       I    between atoms: C6_13  and  N5_14 
REMARK       I    between atoms: C6_13  and  N6_18 
ROOT
HETATM    1  N1  UNL     1      24.285  21.057  26.392  1.00  0.00    -0.190 NA
HETATM    2  C1  UNL     1      24.262  21.395  27.498  1.00  0.00     0.121 C 
HETATM    3  C2  UNL     1      24.241  21.834  28.867  1.00  0.00     0.158 A 
HETATM    4  N2  UNL     1      25.226  21.431  29.719  1.00  0.00    -0.353 N 
ATOM      5  H2  UNL     1      25.979  20.821  29.402  1.00  0.00     0.166 HD
HETATM    6  C3  UNL     1      25.173  21.866  31.003  1.00  0.00     0.106 A 
HETATM    7  C4  UNL     1      24.160  22.692  31.448  1.00  0.00     0.106 A 
HETATM    8  N3  UNL     1      23.217  23.056  30.561  1.00  0.00    -0.349 N 
ATOM      9  H3  UNL     1      22.463  23.665  30.876  1.00  0.00     0.167 HD
HETATM   10  C5  UNL     1      23.220  22.657  29.282  1.00  0.00     0.142 A 
ENDROOT
BRANCH  10  11
HETATM   11  N4  UNL     1      22.335  23.001  28.454  1.00  0.00    -0.325 N 
HETATM   12  C6  UNL     1      20.964  22.660  28.408  1.00  0.00     0.481 C 
HETATM   13  N5  UNL     1      20.277  23.200  29.547  1.00  0.00    -0.033 N 
HETATM   14  N6  UNL     1      20.697  21.245  28.275  1.00  0.00    -0.033 N 
ATOM     15  H53 UNL     1      20.711  22.912  30.424  1.00  0.00     0.278 HD
ATOM     16  H52 UNL     1      20.417  24.207  29.632  1.00  0.00     0.278 HD
ATOM     17  H51 UNL     1      19.288  22.954  29.514  1.00  0.00     0.278 HD
ATOM     18  H63 UNL     1      21.184  20.868  27.461  1.00  0.00     0.278 HD
ATOM     19  H62 UNL     1      21.167  20.725  29.017  1.00  0.00     0.278 HD
ATOM     20  H61 UNL     1      19.708  20.999  28.242  1.00  0.00     0.278 HD
ATOM     21  H4  UNL     1      22.654  23.616  27.706  1.00  0.00     0.165 HD
ENDBRANCH  10  11
TORSDOF 1
ENDMDL
MODEL 2
REMARK VINA RESULT: -5.548478157      1.174      2.879
REMARK  1 active torsions:
REMARK  status: ('A' for Active; 'I' for Inactive)
REMARK    1  A    between atoms: C5_10  and  N4_11 
REMARK       I    between atoms: N4_11  and  C6_13 
REMARK       I    between atoms: C6_13  and  N5_14 
REMARK       I    between atoms: C6_13  and  N6_18 
ROOT
HETATM    1  N1  UNL     1      23.850  23.131  32.020  1.00  0.00    -0.190 NA
HETATM    2  C1  UNL     1      23.920  22.735  30.935  1.00  0.00     0.121 C 
HETATM    3  C2  UNL     1      23.991  22.229  29.591  1.00  0.00     0.158 A 
HETATM    4  N2  UNL     1      25.034  21.430  29.227  1.00  0.00    -0.353 N 
ATOM      5  H2  UNL     1      25.767  21.185  29.893  1.00  0.00     0.166 HD
HETATM    6  C3  UNL     1      25.068  20.971  27.951  1.00  0.00     0.106 A 
HETATM    7  C4  UNL     1      24.084  21.294  27.037  1.00  0.00     0.106 A 
HETATM    8  N3  UNL     1      23.081  22.086  27.456  1.00  0.00    -0.349 N 
ATOM      9  H3  UNL     1      22.348  22.333  26.791  1.00  0.00     0.167 HD
HETATM   10  C5  UNL     1      22.997  22.567  28.703  1.00  0.00     0.142 A 
ENDROOT
BRANCH  10  11
HETATM   11  N4  UNL     1      22.055  23.309  29.091  1.00  0.00    -0.325 N 
HETATM   12  C6  UNL     1      20.663  23.061  29.112  1.00  0.00     0.481 C 
HETATM   13  N5  UNL     1      20.360  21.996  30.025  1.00  0.00    -0.033 N 
HETATM   14  N6  UNL     1      20.076  22.804  27.815  1.00  0.00    -0.033 N 
ATOM     15  H53 UNL     1      20.893  21.152  29.815  1.00  0.00     0.278 HD
ATOM     16  H52 UNL     1      20.728  22.180  30.959  1.00  0.00     0.278 HD
ATOM     17  H51 UNL     1      19.356  21.817  30.040  1.00  0.00     0.278 HD
ATOM     18  H63 UNL     1      20.291  23.567  27.173  1.00  0.00     0.278 HD
ATOM     19  H62 UNL     1      20.565  22.039  27.350  1.00  0.00     0.278 HD
ATOM     20  H61 UNL     1      19.072  22.626  27.830  1.00  0.00     0.278 HD
ATOM     21  H4  UNL     1      22.338  24.223  29.442  1.00  0.00     0.165 HD
ENDBRANCH  10  11
TORSDOF 1
ENDMDL
MODEL 3
REMARK VINA RESULT: -5.530982118      1.645      1.990
REMARK  1 active torsions:
REMARK  status: ('A' for Active; 'I' for Inactive)
REMARK    1  A    between atoms: C5_10  and  N4_11 
REMARK       I    between atoms: N4_11  and  C6_13 
REMARK       I    between atoms: C6_13  and  N5_14 
REMARK       I    between atoms: C6_13  and  N6_18 
ROOT
HETATM    1  N1  UNL     1      26.023  20.868  27.413  1.00  0.00    -0.190 NA
HETATM    2  C1  UNL     1      25.837  21.460  28.389  1.00  0.00     0.121 C 
HETATM    3  C2  UNL     1      25.600  22.215  29.590  1.00  0.00     0.158 A 
HETATM    4  N2  UNL     1      26.658  22.678  30.314  1.00  0.00    -0.353 N 
ATOM      5  H2  UNL     1      27.617  22.498  30.018  1.00  0.00     0.166 HD
HETATM    6  C3  UNL     1      26.395  23.386  31.441  1.00  0.00     0.106 A 
HETATM    7  C4  UNL     1      25.102  23.639  31.855  1.00  0.00     0.106 A 
HETATM    8  N3  UNL     1      24.101  23.155  31.099  1.00  0.00    -0.349 N 
ATOM      9  H3  UNL     1      23.141  23.334  31.393  1.00  0.00     0.167 HD
HETATM   10  C5  UNL     1      24.301  22.451  29.977  1.00  0.00     0.142 A 
ENDROOT
BRANCH  10  11
HETATM   11  N4  UNL     1      23.360  22.000  29.272  1.00  0.00    -0.325 N 
HETATM   12  C6  UNL     1      22.431  22.692  28.461  1.00  0.00     0.481 C 
HETATM   13  N5  UNL     1      23.104  23.332  27.367  1.00  0.00    -0.033 N 
HETATM   14  N6  UNL     1      21.596  23.636  29.170  1.00  0.00    -0.033 N 
ATOM     15  H53 UNL     1      23.856  23.942  27.687  1.00  0.00     0.278 HD
ATOM     16  H52 UNL     1      23.664  22.672  26.826  1.00  0.00     0.278 HD
ATOM     17  H51 UNL     1      22.433  23.832  26.782  1.00  0.00     0.278 HD
ATOM     18  H63 UNL     1      21.117  23.174  29.943  1.00  0.00     0.278 HD
ATOM     19  H62 UNL     1      22.173  24.298  29.691  1.00  0.00     0.278 HD
ATOM     20  H61 UNL     1      20.926  24.136  28.586  1.00  0.00     0.278 HD
ATOM     21  H4  UNL     1      23.252  20.986  29.288  1.00  0.00     0.165 HD
ENDBRANCH  10  11
TORSDOF 1
ENDMDL
MODEL 4
REMARK VINA RESULT: -5.312709170      1.603      3.116
REMARK  1 active torsions:
REMARK  status: ('A' for Active; 'I' for Inactive)
REMARK    1  A    between atoms: C5_10  and  N4_11 
REMARK       I    between atoms: N4_11  and  C6_13 
REMARK       I    between atoms: C6_13  and  N5_14 
REMARK       I    between atoms: C6_13  and  N6_18 
ROOT
HETATM    1  N1  UNL     1      23.438  23.019  31.638  1.00  0.00    -0.190 NA
HETATM    2  C1  UNL     1      23.335  22.315  30.725  1.00  0.00     0.121 C 
HETATM    3  C2  UNL     1      23.190  21.430  29.602  1.00  0.00     0.158 A 
HETATM    4  N2  UNL     1      24.147  20.489  29.359  1.00  0.00    -0.353 N 
ATOM      5  H2  UNL     1      24.966  20.403  29.962  1.00  0.00     0.166 HD
HETATM    6  C3  UNL     1      23.977  19.671  28.291  1.00  0.00     0.106 A 
HETATM    7  C4  UNL     1      22.875  19.774  27.466  1.00  0.00     0.106 A 
HETATM    8  N3  UNL     1      21.965  20.721  27.757  1.00  0.00    -0.349 N 
ATOM      9  H3  UNL     1      21.147  20.808  27.155  1.00  0.00     0.167 HD
HETATM   10  C5  UNL     1      22.081  21.555  28.798  1.00  0.00     0.142 A 
ENDROOT
BRANCH  10  11
HETATM   11  N4  UNL     1      21.227  22.441  29.067  1.00  0.00    -0.325 N 
HETATM   12  C6  UNL     1      19.840  22.311  29.309  1.00  0.00     0.481 C 
HETATM   13  N5  UNL     1      19.612  21.557  30.508  1.00  0.00    -0.033 N 
HETATM   14  N6  UNL     1      19.085  21.758  28.206  1.00  0.00    -0.033 N 
ATOM     15  H53 UNL     1      20.079  20.650  30.483  1.00  0.00     0.278 HD
ATOM     16  H52 UNL     1      20.102  21.958  31.308  1.00  0.00     0.278 HD
ATOM     17  H51 UNL     1      18.611  21.462  30.682  1.00  0.00     0.278 HD
ATOM     18  H63 UNL     1      19.247  22.302  27.358  1.00  0.00     0.278 HD
ATOM     19  H62 UNL     1      19.480  20.862  27.920  1.00  0.00     0.278 HD
ATOM     20  H61 UNL     1      18.084  21.664  28.380  1.00  0.00     0.278 HD
ATOM     21  H4  UNL     1      21.589  23.393  29.118  1.00  0.00     0.165 HD
ENDBRANCH  10  11
TORSDOF 1
ENDMDL
MODEL 5
REMARK VINA RESULT: -5.261889240      1.301      3.533
REMARK  1 active torsions:
REMARK  status: ('A' for Active; 'I' for Inactive)
REMARK    1  A    between atoms: C5_10  and  N4_11 
REMARK       I    between atoms: N4_11  and  C6_13 
REMARK       I    between atoms: C6_13  and  N5_14 
REMARK       I    between atoms: C6_13  and  N6_18 
ROOT
HETATM    1  N1  UNL     1      24.414  20.866  26.445  1.00  0.00    -0.190 NA
HETATM    2  C1  UNL     1      23.584  21.121  27.210  1.00  0.00     0.121 C 
HETATM    3  C2  UNL     1      22.564  21.425  28.176  1.00  0.00     0.158 A 
HETATM    4  N2  UNL     1      21.322  20.878  28.039  1.00  0.00    -0.353 N 
ATOM      5  H2  UNL     1      21.105  20.256  27.260  1.00  0.00     0.166 HD
HETATM    6  C3  UNL     1      20.385  21.187  28.969  1.00  0.00     0.106 A 
HETATM    7  C4  UNL     1      20.664  22.027  30.029  1.00  0.00     0.106 A 
HETATM    8  N3  UNL     1      21.906  22.535  30.111  1.00  0.00    -0.349 N 
ATOM      9  H3  UNL     1      22.126  23.158  30.889  1.00  0.00     0.167 HD
HETATM   10  C5  UNL     1      22.870  22.264  29.222  1.00  0.00     0.142 A 
ENDROOT
BRANCH  10  11
HETATM   11  N4  UNL     1      24.033  22.743  29.303  1.00  0.00    -0.325 N 
HETATM   12  C6  UNL     1      24.904  22.810  30.414  1.00  0.00     0.481 C 
HETATM   13  N5  UNL     1      25.290  21.490  30.826  1.00  0.00    -0.033 N 
HETATM   14  N6  UNL     1      24.395  23.566  31.536  1.00  0.00    -0.033 N 
ATOM     15  H53 UNL     1      24.480  20.898  31.013  1.00  0.00     0.278 HD
ATOM     16  H52 UNL     1      25.694  20.954  30.057  1.00  0.00     0.278 HD
ATOM     17  H51 UNL     1      25.918  21.538  31.628  1.00  0.00     0.278 HD
ATOM     18  H63 UNL     1      24.127  24.505  31.237  1.00  0.00     0.278 HD
ATOM     19  H62 UNL     1      23.483  23.206  31.821  1.00  0.00     0.278 HD
ATOM     20  H61 UNL     1      25.023  23.615  32.338  1.00  0.00     0.278 HD
ATOM     21  H4  UNL     1      24.401  23.140  28.438  1.00  0.00     0.165 HD
ENDBRANCH  10  11
TORSDOF 1
ENDMDL
