MODEL 1
REMARK VINA RESULT: -7.187685399      0.000      0.000
REMARK  13 active torsions:
REMARK  status: ('A' for Active; 'I' for Inactive)
REMARK    1  A    between atoms: N1_2  and  C2_3 
REMARK    2  A    between atoms: N1_2  and  C10_12 
REMARK    3  A    between atoms: C2_3  and  C3_4 
REMARK    4  A    between atoms: C3_4  and  C4_5 
REMARK    5  A    between atoms: C10_12  and  C11_18 
REMARK    6  A    between atoms: N3_13  and  N4_15 
REMARK    7  A    between atoms: N6_21  and  C12_22 
REMARK    8  A    between atoms: C12_22  and  C13_23 
REMARK    9  A    between atoms: C13_23  and  C14_24 
REMARK   10  A    between atoms: C14_24  and  C15_25 
REMARK   11  A    between atoms: C15_25  and  O1_27 
REMARK   12  A    between atoms: C15_25  and  C17_29 
REMARK   13  A    between atoms: C17_29  and  S1_30 
ROOT
HETATM    1  C11 UNL     1      -5.183  10.883  22.481  1.00  0.00     0.169 A 
HETATM    2  N5  UNL     1      -6.103  10.022  22.938  1.00  0.00    -0.278 N 
ATOM      3  H5  UNL     1      -5.998   9.478  23.794  1.00  0.00     0.189 HD
HETATM    4  N6  UNL     1      -7.154   9.960  22.155  1.00  0.00    -0.275 N 
HETATM    5  C20 UNL     1      -6.904  10.815  21.152  1.00  0.00     0.205 A 
HETATM    6  N7  UNL     1      -5.684  11.394  21.342  1.00  0.00    -0.328 N 
HETATM    7  C21 UNL     1      -5.134  12.370  20.421  1.00  0.00     0.159 C 
ENDROOT
BRANCH   1   8
HETATM    8  C10 UNL     1      -3.891  11.246  23.049  1.00  0.00     0.164 C 
HETATM    9  N3  UNL     1      -2.839  10.681  22.578  1.00  0.00    -0.289 N 
ATOM     10  H3  UNL     1      -1.953  10.970  22.992  1.00  0.00     0.188 HD
BRANCH   8  11
HETATM   11  N1  UNL     1      -3.696  12.192  24.076  1.00  0.00    -0.367 N 
HETATM   12  C1  UNL     1      -4.289  13.521  23.844  1.00  0.00     0.151 C 
BRANCH  11  13
HETATM   13  C2  UNL     1      -3.003  12.020  25.304  1.00  0.00     0.128 C 
BRANCH  13  14
HETATM   14  C3  UNL     1      -3.738  11.311  26.388  1.00  0.00     0.058 C 
BRANCH  14  15
HETATM   15  C4  UNL     1      -3.048  10.023  26.765  1.00  0.00    -0.054 A 
HETATM   16  C5  UNL     1      -2.117   9.427  25.945  1.00  0.00     0.024 A 
HETATM   17  C6  UNL     1      -1.507   8.237  26.339  1.00  0.00     0.090 A 
HETATM   18  N2  UNL     1      -1.802   7.644  27.505  1.00  0.00    -0.371 N 
HETATM   19  C7  UNL     1      -1.188   6.406  27.949  1.00  0.00     0.154 C 
HETATM   20  C8  UNL     1      -2.717   8.245  28.295  1.00  0.00     0.090 A 
HETATM   21  C9  UNL     1      -3.351   9.410  27.969  1.00  0.00     0.024 A 
ENDBRANCH  14  15
ENDBRANCH  13  14
ENDBRANCH  11  13
ENDBRANCH   8  11
BRANCH   9  22
HETATM   22  N4  UNL     1      -2.760   9.738  21.588  1.00  0.00    -0.344 N 
ATOM     23  H42 UNL     1      -1.947   9.824  20.978  1.00  0.00     0.176 HD
ATOM     24  H41 UNL     1      -3.410   8.975  21.395  1.00  0.00     0.176 HD
ENDBRANCH   9  22
ENDBRANCH   1   8
BRANCH   4  25
HETATM   25  C12 UNL     1      -8.345   9.151  22.313  1.00  0.00     0.243 C 
BRANCH  25  26
HETATM   26  C13 UNL     1      -8.416   8.087  21.311  1.00  0.00    -0.082 C 
BRANCH  26  27
HETATM   27  C14 UNL     1      -8.454   7.202  20.468  1.00  0.00    -0.066 C 
BRANCH  27  28
HETATM   28  C15 UNL     1      -8.484   6.173  19.445  1.00  0.00     0.125 C 
HETATM   29  C16 UNL     1      -9.755   5.352  19.534  1.00  0.00     0.061 C 
BRANCH  28  30
HETATM   30  O1  UNL     1      -7.438   5.243  19.665  1.00  0.00    -0.377 OA
ATOM     31  H1  UNL     1      -6.599   5.652  19.483  1.00  0.00     0.211 HD
ENDBRANCH  28  30
BRANCH  28  32
HETATM   32  C17 UNL     1      -8.261   6.733  18.088  1.00  0.00     0.114 C 
BRANCH  32  33
HETATM   33  S1  UNL     1      -8.994   8.260  17.722  1.00  0.00    -0.215 SA
HETATM   34  C18 UNL     1     -10.587   8.730  17.797  1.00  0.00     0.073 A 
HETATM   35  C19 UNL     1      -9.816   8.769  16.414  1.00  0.00     0.073 A 
ENDBRANCH  32  33
ENDBRANCH  28  32
ENDBRANCH  27  28
ENDBRANCH  26  27
ENDBRANCH  25  26
ENDBRANCH   4  25
TORSDOF 13
ENDMDL
MODEL 2
REMARK VINA RESULT: -7.091061533      1.056      1.625
REMARK  13 active torsions:
REMARK  status: ('A' for Active; 'I' for Inactive)
REMARK    1  A    between atoms: N1_2  and  C2_3 
REMARK    2  A    between atoms: N1_2  and  C10_12 
REMARK    3  A    between atoms: C2_3  and  C3_4 
REMARK    4  A    between atoms: C3_4  and  C4_5 
REMARK    5  A    between atoms: C10_12  and  C11_18 
REMARK    6  A    between atoms: N3_13  and  N4_15 
REMARK    7  A    between atoms: N6_21  and  C12_22 
REMARK    8  A    between atoms: C12_22  and  C13_23 
REMARK    9  A    between atoms: C13_23  and  C14_24 
REMARK   10  A    between atoms: C14_24  and  C15_25 
REMARK   11  A    between atoms: C15_25  and  O1_27 
REMARK   12  A    between atoms: C15_25  and  C17_29 
REMARK   13  A    between atoms: C17_29  and  S1_30 
ROOT
HETATM    1  C11 UNL     1      -6.514  10.918  22.383  1.00  0.00     0.169 A 
HETATM    2  N5  UNL     1      -7.076   9.701  22.409  1.00  0.00    -0.278 N 
ATOM      3  H5  UNL     1      -6.549   8.829  22.355  1.00  0.00     0.189 HD
HETATM    4  N6  UNL     1      -8.382   9.762  22.511  1.00  0.00    -0.275 N 
HETATM    5  C20 UNL     1      -8.678  11.070  22.553  1.00  0.00     0.205 A 
HETATM    6  N7  UNL     1      -7.527  11.798  22.474  1.00  0.00    -0.328 N 
HETATM    7  C21 UNL     1      -7.521  13.248  22.497  1.00  0.00     0.159 C 
ENDROOT
BRANCH   1   8
HETATM    8  C10 UNL     1      -5.108  11.287  22.286  1.00  0.00     0.164 C 
HETATM    9  N3  UNL     1      -4.588  11.402  21.118  1.00  0.00    -0.289 N 
ATOM     10  H3  UNL     1      -3.606  11.674  21.090  1.00  0.00     0.188 HD
BRANCH   8  11
HETATM   11  N1  UNL     1      -4.262  11.547  23.384  1.00  0.00    -0.367 N 
HETATM   12  C1  UNL     1      -2.948  12.127  23.055  1.00  0.00     0.151 C 
BRANCH  11  13
HETATM   13  C2  UNL     1      -4.521  11.320  24.762  1.00  0.00     0.128 C 
BRANCH  13  14
HETATM   14  C3  UNL     1      -3.397  11.590  25.702  1.00  0.00     0.058 C 
BRANCH  14  15
HETATM   15  C4  UNL     1      -2.892  10.315  26.331  1.00  0.00    -0.054 A 
HETATM   16  C5  UNL     1      -3.287   9.915  27.587  1.00  0.00     0.024 A 
HETATM   17  C6  UNL     1      -2.792   8.727  28.124  1.00  0.00     0.090 A 
HETATM   18  N2  UNL     1      -1.932   7.951  27.449  1.00  0.00    -0.371 N 
HETATM   19  C7  UNL     1      -1.395   6.710  27.974  1.00  0.00     0.154 C 
HETATM   20  C8  UNL     1      -1.557   8.362  26.219  1.00  0.00     0.090 A 
HETATM   21  C9  UNL     1      -2.003   9.513  25.634  1.00  0.00     0.024 A 
ENDBRANCH  14  15
ENDBRANCH  13  14
ENDBRANCH  11  13
ENDBRANCH   8  11
BRANCH   9  22
HETATM   22  N4  UNL     1      -5.192  11.205  19.904  1.00  0.00    -0.344 N 
ATOM     23  H42 UNL     1      -5.930  10.501  19.902  1.00  0.00     0.176 HD
ATOM     24  H41 UNL     1      -4.991  11.673  19.020  1.00  0.00     0.176 HD
ENDBRANCH   9  22
ENDBRANCH   1   8
BRANCH   4  25
HETATM   25  C12 UNL     1      -9.331   8.668  22.568  1.00  0.00     0.243 C 
BRANCH  25  26
HETATM   26  C13 UNL     1      -9.119   7.709  21.484  1.00  0.00    -0.082 C 
BRANCH  26  27
HETATM   27  C14 UNL     1      -8.935   6.923  20.565  1.00  0.00    -0.066 C 
BRANCH  27  28
HETATM   28  C15 UNL     1      -8.688   6.009  19.465  1.00  0.00     0.125 C 
HETATM   29  C16 UNL     1      -9.839   5.036  19.297  1.00  0.00     0.061 C 
BRANCH  28  30
HETATM   30  O1  UNL     1      -7.566   5.194  19.758  1.00  0.00    -0.377 OA
ATOM     31  H1  UNL     1      -7.856   4.355  20.097  1.00  0.00     0.211 HD
ENDBRANCH  28  30
BRANCH  28  32
HETATM   32  C17 UNL     1      -8.360   6.728  18.209  1.00  0.00     0.114 C 
BRANCH  32  33
HETATM   33  S1  UNL     1      -9.207   8.206  17.888  1.00  0.00    -0.215 SA
HETATM   34  C18 UNL     1     -10.830   8.483  17.656  1.00  0.00     0.073 A 
HETATM   35  C19 UNL     1      -9.798   8.824  16.505  1.00  0.00     0.073 A 
ENDBRANCH  32  33
ENDBRANCH  28  32
ENDBRANCH  27  28
ENDBRANCH  26  27
ENDBRANCH  25  26
ENDBRANCH   4  25
TORSDOF 13
ENDMDL
MODEL 3
REMARK VINA RESULT: -6.968013095      1.276      1.946
REMARK  13 active torsions:
REMARK  status: ('A' for Active; 'I' for Inactive)
REMARK    1  A    between atoms: N1_2  and  C2_3 
REMARK    2  A    between atoms: N1_2  and  C10_12 
REMARK    3  A    between atoms: C2_3  and  C3_4 
REMARK    4  A    between atoms: C3_4  and  C4_5 
REMARK    5  A    between atoms: C10_12  and  C11_18 
REMARK    6  A    between atoms: N3_13  and  N4_15 
REMARK    7  A    between atoms: N6_21  and  C12_22 
REMARK    8  A    between atoms: C12_22  and  C13_23 
REMARK    9  A    between atoms: C13_23  and  C14_24 
REMARK   10  A    between atoms: C14_24  and  C15_25 
REMARK   11  A    between atoms: C15_25  and  O1_27 
REMARK   12  A    between atoms: C15_25  and  C17_29 
REMARK   13  A    between atoms: C17_29  and  S1_30 
ROOT
HETATM    1  C11 UNL     1      -6.406  10.871  21.795  1.00  0.00     0.169 A 
HETATM    2  N5  UNL     1      -7.011   9.678  21.873  1.00  0.00    -0.278 N 
ATOM      3  H5  UNL     1      -6.565   8.795  21.622  1.00  0.00     0.189 HD
HETATM    4  N6  UNL     1      -8.245   9.776  22.307  1.00  0.00    -0.275 N 
HETATM    5  C20 UNL     1      -8.446  11.086  22.520  1.00  0.00     0.205 A 
HETATM    6  N7  UNL     1      -7.312  11.776  22.206  1.00  0.00    -0.328 N 
HETATM    7  C21 UNL     1      -7.219  13.218  22.334  1.00  0.00     0.159 C 
ENDROOT
BRANCH   1   8
HETATM    8  C10 UNL     1      -5.050  11.196  21.372  1.00  0.00     0.164 C 
HETATM    9  N3  UNL     1      -4.844  11.445  20.130  1.00  0.00    -0.289 N 
ATOM     10  H3  UNL     1      -3.885  11.681  19.874  1.00  0.00     0.188 HD
BRANCH   8  11
HETATM   11  N1  UNL     1      -3.933  11.277  22.228  1.00  0.00    -0.367 N 
HETATM   12  C1  UNL     1      -2.662  10.781  21.670  1.00  0.00     0.151 C 
BRANCH  11  13
HETATM   13  C2  UNL     1      -3.882  11.776  23.557  1.00  0.00     0.128 C 
BRANCH  13  14
HETATM   14  C3  UNL     1      -2.546  11.776  24.216  1.00  0.00     0.058 C 
BRANCH  14  15
HETATM   15  C4  UNL     1      -2.466  10.719  25.290  1.00  0.00    -0.054 A 
HETATM   16  C5  UNL     1      -1.729   9.568  25.128  1.00  0.00     0.024 A 
HETATM   17  C6  UNL     1      -1.687   8.622  26.152  1.00  0.00     0.090 A 
HETATM   18  N2  UNL     1      -2.348   8.799  27.305  1.00  0.00    -0.371 N 
HETATM   19  C7  UNL     1      -2.328   7.838  28.392  1.00  0.00     0.154 C 
HETATM   20  C8  UNL     1      -3.065   9.935  27.443  1.00  0.00     0.090 A 
HETATM   21  C9  UNL     1      -3.149  10.901  26.481  1.00  0.00     0.024 A 
ENDBRANCH  14  15
ENDBRANCH  13  14
ENDBRANCH  11  13
ENDBRANCH   8  11
BRANCH   9  22
HETATM   22  N4  UNL     1      -5.753  11.434  19.106  1.00  0.00    -0.344 N 
ATOM     23  H42 UNL     1      -6.709  11.209  19.384  1.00  0.00     0.176 HD
ATOM     24  H41 UNL     1      -5.587  11.621  18.116  1.00  0.00     0.176 HD
ENDBRANCH   9  22
ENDBRANCH   1   8
BRANCH   4  25
HETATM   25  C12 UNL     1      -9.210   8.716  22.522  1.00  0.00     0.243 C 
BRANCH  25  26
HETATM   26  C13 UNL     1      -9.129   7.690  21.482  1.00  0.00    -0.082 C 
BRANCH  26  27
HETATM   27  C14 UNL     1      -9.045   6.844  20.604  1.00  0.00    -0.066 C 
BRANCH  27  28
HETATM   28  C15 UNL     1      -8.928   5.861  19.541  1.00  0.00     0.125 C 
HETATM   29  C16 UNL     1     -10.293   5.384  19.087  1.00  0.00     0.061 C 
BRANCH  28  30
HETATM   30  O1  UNL     1      -8.283   4.698  20.030  1.00  0.00    -0.377 OA
ATOM     31  H1  UNL     1      -8.917   3.999  20.139  1.00  0.00     0.211 HD
ENDBRANCH  28  30
BRANCH  28  32
HETATM   32  C17 UNL     1      -8.093   6.356  18.418  1.00  0.00     0.114 C 
BRANCH  32  33
HETATM   33  S1  UNL     1      -8.587   7.823  17.639  1.00  0.00    -0.215 SA
HETATM   34  C18 UNL     1      -8.429   9.404  18.130  1.00  0.00     0.073 A 
HETATM   35  C19 UNL     1      -9.869   8.791  17.889  1.00  0.00     0.073 A 
ENDBRANCH  32  33
ENDBRANCH  28  32
ENDBRANCH  27  28
ENDBRANCH  26  27
ENDBRANCH  25  26
ENDBRANCH   4  25
TORSDOF 13
ENDMDL
MODEL 4
REMARK VINA RESULT: -6.878879780      1.814      2.946
REMARK  13 active torsions:
REMARK  status: ('A' for Active; 'I' for Inactive)
REMARK    1  A    between atoms: N1_2  and  C2_3 
REMARK    2  A    between atoms: N1_2  and  C10_12 
REMARK    3  A    between atoms: C2_3  and  C3_4 
REMARK    4  A    between atoms: C3_4  and  C4_5 
REMARK    5  A    between atoms: C10_12  and  C11_18 
REMARK    6  A    between atoms: N3_13  and  N4_15 
REMARK    7  A    between atoms: N6_21  and  C12_22 
REMARK    8  A    between atoms: C12_22  and  C13_23 
REMARK    9  A    between atoms: C13_23  and  C14_24 
REMARK   10  A    between atoms: C14_24  and  C15_25 
REMARK   11  A    between atoms: C15_25  and  O1_27 
REMARK   12  A    between atoms: C15_25  and  C17_29 
REMARK   13  A    between atoms: C17_29  and  S1_30 
ROOT
HETATM    1  C11 UNL     1      -5.240  11.629  20.823  1.00  0.00     0.169 A 
HETATM    2  N5  UNL     1      -5.706  10.672  20.008  1.00  0.00    -0.278 N 
ATOM      3  H5  UNL     1      -5.459   9.686  20.089  1.00  0.00     0.189 HD
HETATM    4  N6  UNL     1      -6.515  11.152  19.094  1.00  0.00    -0.275 N 
HETATM    5  C20 UNL     1      -6.576  12.471  19.327  1.00  0.00     0.205 A 
HETATM    6  N7  UNL     1      -5.789  12.781  20.397  1.00  0.00    -0.328 N 
HETATM    7  C21 UNL     1      -5.650  14.136  20.894  1.00  0.00     0.159 C 
ENDROOT
BRANCH   1   8
HETATM    8  C10 UNL     1      -4.333  11.519  21.958  1.00  0.00     0.164 C 
HETATM    9  N3  UNL     1      -4.839  11.379  23.130  1.00  0.00    -0.289 N 
ATOM     10  H3  UNL     1      -4.173  11.293  23.897  1.00  0.00     0.188 HD
BRANCH   8  11
HETATM   11  N1  UNL     1      -2.926  11.537  21.874  1.00  0.00    -0.367 N 
HETATM   12  C1  UNL     1      -2.359  12.384  20.808  1.00  0.00     0.151 C 
BRANCH  11  13
HETATM   13  C2  UNL     1      -1.991  10.843  22.687  1.00  0.00     0.128 C 
BRANCH  13  14
HETATM   14  C3  UNL     1      -1.632  11.486  23.982  1.00  0.00     0.058 C 
BRANCH  14  15
HETATM   15  C4  UNL     1      -1.963  10.589  25.149  1.00  0.00    -0.054 A 
HETATM   16  C5  UNL     1      -1.442   9.320  25.266  1.00  0.00     0.024 A 
HETATM   17  C6  UNL     1      -1.779   8.531  26.364  1.00  0.00     0.090 A 
HETATM   18  N2  UNL     1      -2.605   8.971  27.324  1.00  0.00    -0.371 N 
HETATM   19  C7  UNL     1      -2.979   8.179  28.481  1.00  0.00     0.154 C 
HETATM   20  C8  UNL     1      -3.106  10.218  27.190  1.00  0.00     0.090 A 
HETATM   21  C9  UNL     1      -2.817  11.042  26.140  1.00  0.00     0.024 A 
ENDBRANCH  14  15
ENDBRANCH  13  14
ENDBRANCH  11  13
ENDBRANCH   8  11
BRANCH   9  22
HETATM   22  N4  UNL     1      -6.163  11.332  23.476  1.00  0.00    -0.344 N 
ATOM     23  H42 UNL     1      -6.624  12.240  23.530  1.00  0.00     0.176 HD
ATOM     24  H41 UNL     1      -6.729  10.508  23.681  1.00  0.00     0.176 HD
ENDBRANCH   9  22
ENDBRANCH   1   8
BRANCH   4  25
HETATM   25  C12 UNL     1      -7.210  10.435  18.044  1.00  0.00     0.243 C 
BRANCH  25  26
HETATM   26  C13 UNL     1      -7.758   9.165  18.525  1.00  0.00    -0.082 C 
BRANCH  26  27
HETATM   27  C14 UNL     1      -8.227   8.116  18.941  1.00  0.00    -0.066 C 
BRANCH  27  28
HETATM   28  C15 UNL     1      -8.770   6.877  19.466  1.00  0.00     0.125 C 
HETATM   29  C16 UNL     1      -7.674   5.857  19.702  1.00  0.00     0.061 C 
BRANCH  28  30
HETATM   30  O1  UNL     1      -9.620   6.277  18.504  1.00  0.00    -0.377 OA
ATOM     31  H1  UNL     1     -10.232   5.691  18.934  1.00  0.00     0.211 HD
ENDBRANCH  28  30
BRANCH  28  32
HETATM   32  C17 UNL     1      -9.607   7.105  20.671  1.00  0.00     0.114 C 
BRANCH  32  33
HETATM   33  S1  UNL     1      -9.006   8.206  21.866  1.00  0.00    -0.215 SA
HETATM   34  C18 UNL     1      -9.766   8.880  23.182  1.00  0.00     0.073 A 
HETATM   35  C19 UNL     1      -9.195   9.812  22.037  1.00  0.00     0.073 A 
ENDBRANCH  32  33
ENDBRANCH  28  32
ENDBRANCH  27  28
ENDBRANCH  26  27
ENDBRANCH  25  26
ENDBRANCH   4  25
TORSDOF 13
ENDMDL
MODEL 5
REMARK VINA RESULT: -6.810239512      1.301      2.010
REMARK  13 active torsions:
REMARK  status: ('A' for Active; 'I' for Inactive)
REMARK    1  A    between atoms: N1_2  and  C2_3 
REMARK    2  A    between atoms: N1_2  and  C10_12 
REMARK    3  A    between atoms: C2_3  and  C3_4 
REMARK    4  A    between atoms: C3_4  and  C4_5 
REMARK    5  A    between atoms: C10_12  and  C11_18 
REMARK    6  A    between atoms: N3_13  and  N4_15 
REMARK    7  A    between atoms: N6_21  and  C12_22 
REMARK    8  A    between atoms: C12_22  and  C13_23 
REMARK    9  A    between atoms: C13_23  and  C14_24 
REMARK   10  A    between atoms: C14_24  and  C15_25 
REMARK   11  A    between atoms: C15_25  and  O1_27 
REMARK   12  A    between atoms: C15_25  and  C17_29 
REMARK   13  A    between atoms: C17_29  and  S1_30 
ROOT
HETATM    1  C11 UNL     1      -5.592  11.180  21.365  1.00  0.00     0.169 A 
HETATM    2  N5  UNL     1      -6.198   9.992  21.495  1.00  0.00    -0.278 N 
ATOM      3  H5  UNL     1      -5.822   9.117  21.128  1.00  0.00     0.189 HD
HETATM    4  N6  UNL     1      -7.332  10.084  22.148  1.00  0.00    -0.275 N 
HETATM    5  C20 UNL     1      -7.464  11.384  22.454  1.00  0.00     0.205 A 
HETATM    6  N7  UNL     1      -6.391  12.074  21.973  1.00  0.00    -0.328 N 
HETATM    7  C21 UNL     1      -6.246  13.507  22.148  1.00  0.00     0.159 C 
ENDROOT
BRANCH   1   8
HETATM    8  C10 UNL     1      -4.327  11.509  20.720  1.00  0.00     0.164 C 
HETATM    9  N3  UNL     1      -4.348  11.871  19.489  1.00  0.00    -0.289 N 
ATOM     10  H3  UNL     1      -3.446  12.105  19.076  1.00  0.00     0.188 HD
BRANCH   8  11
HETATM   11  N1  UNL     1      -3.066  11.477  21.350  1.00  0.00    -0.367 N 
HETATM   12  C1  UNL     1      -2.048  12.384  20.788  1.00  0.00     0.151 C 
BRANCH  11  13
HETATM   13  C2  UNL     1      -2.658  10.683  22.454  1.00  0.00     0.128 C 
BRANCH  13  14
HETATM   14  C3  UNL     1      -2.240  11.418  23.681  1.00  0.00     0.058 C 
BRANCH  14  15
HETATM   15  C4  UNL     1      -2.331  10.538  24.903  1.00  0.00    -0.054 A 
HETATM   16  C5  UNL     1      -1.579   9.392  25.035  1.00  0.00     0.024 A 
HETATM   17  C6  UNL     1      -1.699   8.613  26.185  1.00  0.00     0.090 A 
HETATM   18  N2  UNL     1      -2.534   8.946  27.180  1.00  0.00    -0.371 N 
HETATM   19  C7  UNL     1      -2.685   8.161  28.391  1.00  0.00     0.154 C 
HETATM   20  C8  UNL     1      -3.262  10.073  27.031  1.00  0.00     0.090 A 
HETATM   21  C9  UNL     1      -3.193  10.881  25.932  1.00  0.00     0.024 A 
ENDBRANCH  14  15
ENDBRANCH  13  14
ENDBRANCH  11  13
ENDBRANCH   8  11
BRANCH   9  22
HETATM   22  N4  UNL     1      -5.434  11.982  18.662  1.00  0.00    -0.344 N 
ATOM     23  H42 UNL     1      -6.337  11.877  19.124  1.00  0.00     0.176 HD
ATOM     24  H41 UNL     1      -5.442  12.154  17.656  1.00  0.00     0.176 HD
ENDBRANCH   9  22
ENDBRANCH   1   8
BRANCH   4  25
HETATM   25  C12 UNL     1      -8.264   9.026  22.484  1.00  0.00     0.243 C 
BRANCH  25  26
HETATM   26  C13 UNL     1      -8.365   8.032  21.415  1.00  0.00    -0.082 C 
BRANCH  26  27
HETATM   27  C14 UNL     1      -8.432   7.192  20.530  1.00  0.00    -0.066 C 
BRANCH  27  28
HETATM   28  C15 UNL     1      -8.477   6.196  19.475  1.00  0.00     0.125 C 
HETATM   29  C16 UNL     1      -9.762   5.394  19.536  1.00  0.00     0.061 C 
BRANCH  28  30
HETATM   30  O1  UNL     1      -7.447   5.241  19.670  1.00  0.00    -0.377 OA
ATOM     31  H1  UNL     1      -6.614   5.684  19.785  1.00  0.00     0.211 HD
ENDBRANCH  28  30
BRANCH  28  32
HETATM   32  C17 UNL     1      -8.240   6.793  18.137  1.00  0.00     0.114 C 
BRANCH  32  33
HETATM   33  S1  UNL     1      -9.007   8.308  17.789  1.00  0.00    -0.215 SA
HETATM   34  C18 UNL     1     -10.618   8.718  17.785  1.00  0.00     0.073 A 
HETATM   35  C19 UNL     1      -9.766   8.844  16.455  1.00  0.00     0.073 A 
ENDBRANCH  32  33
ENDBRANCH  28  32
ENDBRANCH  27  28
ENDBRANCH  26  27
ENDBRANCH  25  26
ENDBRANCH   4  25
TORSDOF 13
ENDMDL
