MODEL 1
REMARK VINA RESULT: -8.070547284      0.000      0.000
REMARK  8 active torsions:
REMARK  status: ('A' for Active; 'I' for Inactive)
REMARK    1  A    between atoms: N1_2  and  C2_3 
REMARK    2  A    between atoms: C2_3  and  C3_4 
REMARK    3  A    between atoms: C3_4  and  N2_5 
REMARK       I    between atoms: N2_5  and  C4_7 
REMARK       I    between atoms: C4_7  and  N3_9 
REMARK    4  A    between atoms: C7_12  and  C8_13 
REMARK    5  A    between atoms: C8_13  and  C9_14 
REMARK    6  A    between atoms: C9_14  and  N4_15 
REMARK    7  A    between atoms: N5_25  and  S1_26 
REMARK    8  A    between atoms: S1_26  and  N6_27 
ROOT
HETATM    1  N2  UNL     1      -6.485  11.204  23.241  1.00  0.00    -0.341 N 
ATOM      2  H2  UNL     1      -6.966  10.463  23.751  1.00  0.00     0.164 HD
HETATM    3  C4  UNL     1      -6.930  11.518  21.933  1.00  0.00     0.326 C 
HETATM    4  O1  UNL     1      -6.350  12.435  21.261  1.00  0.00    -0.246 OA
HETATM    5  N3  UNL     1      -8.021  10.855  21.296  1.00  0.00    -0.286 N 
HETATM    6  C5  UNL     1      -8.734   9.874  21.858  1.00  0.00     0.101 A 
HETATM    7  C6  UNL     1      -9.801   9.232  21.222  1.00  0.00     0.025 A 
HETATM    8  C7  UNL     1     -10.163   9.603  19.948  1.00  0.00    -0.054 A 
HETATM    9  C15 UNL     1      -9.424  10.615  19.375  1.00  0.00     0.025 A 
HETATM   10  C16 UNL     1      -8.378  11.222  20.038  1.00  0.00     0.101 A 
ENDROOT
BRANCH   1  11
HETATM   11  C3  UNL     1      -5.386  11.877  23.888  1.00  0.00     0.152 C 
BRANCH  11  12
HETATM   12  C2  UNL     1      -4.036  11.345  23.597  1.00  0.00     0.258 C 
BRANCH  12  13
HETATM   13  N1  UNL     1      -3.041  11.432  24.588  1.00  0.00    -0.056 N 
HETATM   14  C1  UNL     1      -1.916  12.193  24.074  1.00  0.00     0.274 C 
HETATM   15  C17 UNL     1      -3.409  11.977  25.848  1.00  0.00     0.254 C 
HETATM   16  C18 UNL     1      -3.396  10.870  26.865  1.00  0.00     0.139 C 
HETATM   17  N5  UNL     1      -2.977   9.711  26.161  1.00  0.00    -0.166 NA
HETATM   18  C19 UNL     1      -2.504  10.098  24.865  1.00  0.00     0.345 C 
BRANCH  17  19
HETATM   19  S1  UNL     1      -1.831   8.763  27.031  1.00  0.00     0.298 S 
HETATM   20  O2  UNL     1      -0.553   9.498  27.267  1.00  0.00    -0.189 OA
HETATM   21  O3  UNL     1      -1.539   7.475  26.350  1.00  0.00    -0.189 OA
BRANCH  19  22
HETATM   22  N6  UNL     1      -2.525   8.405  28.582  1.00  0.00    -0.316 N 
ATOM     23  H62 UNL     1      -3.519   8.278  28.771  1.00  0.00     0.170 HD
ATOM     24  H61 UNL     1      -1.759   8.350  29.252  1.00  0.00     0.170 HD
ENDBRANCH  19  22
ENDBRANCH  17  19
ENDBRANCH  12  13
ENDBRANCH  11  12
ENDBRANCH   1  11
BRANCH   8  25
HETATM   25  C8  UNL     1     -11.279   8.979  19.201  1.00  0.00     0.058 C 
BRANCH  25  26
HETATM   26  C9  UNL     1     -10.689   8.126  18.085  1.00  0.00     0.132 C 
BRANCH  26  27
HETATM   27  N4  UNL     1      -9.783   7.170  18.677  1.00  0.00    -0.366 N 
HETATM   28  C10 UNL     1     -10.263   6.169  19.419  1.00  0.00     0.090 A 
HETATM   29  C11 UNL     1      -9.426   5.228  20.007  1.00  0.00     0.017 A 
HETATM   30  C12 UNL     1      -8.087   5.360  19.800  1.00  0.00     0.003 A 
HETATM   31  C13 UNL     1      -7.615   6.397  19.033  1.00  0.00     0.017 A 
HETATM   32  C14 UNL     1      -8.466   7.321  18.458  1.00  0.00     0.090 A 
ENDBRANCH  26  27
ENDBRANCH  25  26
ENDBRANCH   8  25
TORSDOF 8
ENDMDL
MODEL 2
REMARK VINA RESULT: -8.042444812      1.492      1.929
REMARK  8 active torsions:
REMARK  status: ('A' for Active; 'I' for Inactive)
REMARK    1  A    between atoms: N1_2  and  C2_3 
REMARK    2  A    between atoms: C2_3  and  C3_4 
REMARK    3  A    between atoms: C3_4  and  N2_5 
REMARK       I    between atoms: N2_5  and  C4_7 
REMARK       I    between atoms: C4_7  and  N3_9 
REMARK    4  A    between atoms: C7_12  and  C8_13 
REMARK    5  A    between atoms: C8_13  and  C9_14 
REMARK    6  A    between atoms: C9_14  and  N4_15 
REMARK    7  A    between atoms: N5_25  and  S1_26 
REMARK    8  A    between atoms: S1_26  and  N6_27 
ROOT
HETATM    1  N2  UNL     1      -4.062  11.049  20.751  1.00  0.00    -0.341 N 
ATOM      2  H2  UNL     1      -3.988  10.343  20.019  1.00  0.00     0.164 HD
HETATM    3  C4  UNL     1      -5.340  11.587  21.041  1.00  0.00     0.326 C 
HETATM    4  O1  UNL     1      -5.472  12.477  21.947  1.00  0.00    -0.246 OA
HETATM    5  N3  UNL     1      -6.531  11.186  20.366  1.00  0.00    -0.286 N 
HETATM    6  C5  UNL     1      -6.569  10.268  19.394  1.00  0.00     0.101 A 
HETATM    7  C6  UNL     1      -7.744   9.884  18.740  1.00  0.00     0.025 A 
HETATM    8  C7  UNL     1      -8.942  10.461  19.088  1.00  0.00    -0.054 A 
HETATM    9  C15 UNL     1      -8.896  11.406  20.090  1.00  0.00     0.025 A 
HETATM   10  C16 UNL     1      -7.715  11.756  20.710  1.00  0.00     0.101 A 
ENDROOT
BRANCH   1  11
HETATM   11  C3  UNL     1      -2.859  11.451  21.438  1.00  0.00     0.152 C 
BRANCH  11  12
HETATM   12  C2  UNL     1      -2.391  10.547  22.512  1.00  0.00     0.258 C 
BRANCH  12  13
HETATM   13  N1  UNL     1      -2.224  11.062  23.811  1.00  0.00    -0.056 N 
HETATM   14  C1  UNL     1      -1.186  12.079  23.795  1.00  0.00     0.274 C 
HETATM   15  C17 UNL     1      -3.366  11.603  24.461  1.00  0.00     0.254 C 
HETATM   16  C18 UNL     1      -3.750  10.683  25.586  1.00  0.00     0.139 C 
HETATM   17  N5  UNL     1      -2.781   9.646  25.579  1.00  0.00    -0.166 NA
HETATM   18  C19 UNL     1      -1.714  10.012  24.695  1.00  0.00     0.345 C 
BRANCH  17  19
HETATM   19  S1  UNL     1      -2.225   9.222  27.153  1.00  0.00     0.298 S 
HETATM   20  O2  UNL     1      -0.806   9.631  27.379  1.00  0.00    -0.189 OA
HETATM   21  O3  UNL     1      -2.366   7.768  27.423  1.00  0.00    -0.189 OA
BRANCH  19  22
HETATM   22  N6  UNL     1      -3.208  10.080  28.298  1.00  0.00    -0.316 N 
ATOM     23  H62 UNL     1      -4.222  10.011  28.379  1.00  0.00     0.170 HD
ATOM     24  H61 UNL     1      -2.584  10.655  28.864  1.00  0.00     0.170 HD
ENDBRANCH  19  22
ENDBRANCH  17  19
ENDBRANCH  12  13
ENDBRANCH  11  12
ENDBRANCH   1  11
BRANCH   8  25
HETATM   25  C8  UNL     1     -10.232  10.114  18.449  1.00  0.00     0.058 C 
BRANCH  25  26
HETATM   26  C9  UNL     1     -11.095   9.389  19.473  1.00  0.00     0.132 C 
BRANCH  26  27
HETATM   27  N4  UNL     1     -10.481   8.114  19.760  1.00  0.00    -0.366 N 
HETATM   28  C10 UNL     1      -9.821   7.936  20.906  1.00  0.00     0.090 A 
HETATM   29  C11 UNL     1      -9.214   6.726  21.221  1.00  0.00     0.017 A 
HETATM   30  C12 UNL     1      -9.316   5.716  20.314  1.00  0.00     0.003 A 
HETATM   31  C13 UNL     1     -10.000   5.921  19.141  1.00  0.00     0.017 A 
HETATM   32  C14 UNL     1     -10.595   7.133  18.849  1.00  0.00     0.090 A 
ENDBRANCH  26  27
ENDBRANCH  25  26
ENDBRANCH   8  25
TORSDOF 8
ENDMDL
MODEL 3
REMARK VINA RESULT: -8.026795819      2.534      3.391
REMARK  8 active torsions:
REMARK  status: ('A' for Active; 'I' for Inactive)
REMARK    1  A    between atoms: N1_2  and  C2_3 
REMARK    2  A    between atoms: C2_3  and  C3_4 
REMARK    3  A    between atoms: C3_4  and  N2_5 
REMARK       I    between atoms: N2_5  and  C4_7 
REMARK       I    between atoms: C4_7  and  N3_9 
REMARK    4  A    between atoms: C7_12  and  C8_13 
REMARK    5  A    between atoms: C8_13  and  C9_14 
REMARK    6  A    between atoms: C9_14  and  N4_15 
REMARK    7  A    between atoms: N5_25  and  S1_26 
REMARK    8  A    between atoms: S1_26  and  N6_27 
ROOT
HETATM    1  N2  UNL     1      -5.916  11.473  23.766  1.00  0.00    -0.341 N 
ATOM      2  H2  UNL     1      -6.529  10.820  24.256  1.00  0.00     0.164 HD
HETATM    3  C4  UNL     1      -6.193  11.765  22.408  1.00  0.00     0.326 C 
HETATM    4  O1  UNL     1      -5.446  12.573  21.760  1.00  0.00    -0.246 OA
HETATM    5  N3  UNL     1      -7.287  11.196  21.691  1.00  0.00    -0.286 N 
HETATM    6  C5  UNL     1      -8.162  10.335  22.218  1.00  0.00     0.101 A 
HETATM    7  C6  UNL     1      -9.232   9.784  21.504  1.00  0.00     0.025 A 
HETATM    8  C7  UNL     1      -9.423  10.126  20.186  1.00  0.00    -0.054 A 
HETATM    9  C15 UNL     1      -8.517  11.015  19.648  1.00  0.00     0.025 A 
HETATM   10  C16 UNL     1      -7.476  11.534  20.389  1.00  0.00     0.101 A 
ENDROOT
BRANCH   1  11
HETATM   11  C3  UNL     1      -4.812  12.051  24.493  1.00  0.00     0.152 C 
BRANCH  11  12
HETATM   12  C2  UNL     1      -3.807  11.098  25.014  1.00  0.00     0.258 C 
BRANCH  12  13
HETATM   13  N1  UNL     1      -2.541  11.041  24.401  1.00  0.00    -0.056 N 
HETATM   14  C1  UNL     1      -1.561  10.575  25.367  1.00  0.00     0.274 C 
HETATM   15  C17 UNL     1      -2.411  10.258  23.222  1.00  0.00     0.254 C 
HETATM   16  C18 UNL     1      -2.203  11.186  22.058  1.00  0.00     0.139 C 
HETATM   17  N5  UNL     1      -2.177  12.493  22.613  1.00  0.00    -0.166 NA
HETATM   18  C19 UNL     1      -2.108  12.393  24.040  1.00  0.00     0.345 C 
BRANCH  17  19
HETATM   19  S1  UNL     1      -0.935  13.488  21.955  1.00  0.00     0.298 S 
HETATM   20  O2  UNL     1       0.297  13.485  22.799  1.00  0.00    -0.189 OA
HETATM   21  O3  UNL     1      -1.387  14.888  21.752  1.00  0.00    -0.189 OA
BRANCH  19  22
HETATM   22  N6  UNL     1      -0.510  12.830  20.405  1.00  0.00    -0.316 N 
ATOM     23  H62 UNL     1      -0.300  11.850  20.214  1.00  0.00     0.170 HD
ATOM     24  H61 UNL     1      -0.512  13.600  19.737  1.00  0.00     0.170 HD
ENDBRANCH  19  22
ENDBRANCH  17  19
ENDBRANCH  12  13
ENDBRANCH  11  12
ENDBRANCH   1  11
BRANCH   8  25
HETATM   25  C8  UNL     1     -10.527   9.593  19.356  1.00  0.00     0.058 C 
BRANCH  25  26
HETATM   26  C9  UNL     1      -9.924   8.745  18.243  1.00  0.00     0.132 C 
BRANCH  26  27
HETATM   27  N4  UNL     1      -9.364   7.553  18.835  1.00  0.00    -0.366 N 
HETATM   28  C10 UNL     1     -10.171   6.587  19.278  1.00  0.00     0.090 A 
HETATM   29  C11 UNL     1      -9.675   5.425  19.855  1.00  0.00     0.017 A 
HETATM   30  C12 UNL     1      -8.323   5.301  19.956  1.00  0.00     0.003 A 
HETATM   31  C13 UNL     1      -7.510   6.307  19.494  1.00  0.00     0.017 A 
HETATM   32  C14 UNL     1      -8.026   7.454  18.924  1.00  0.00     0.090 A 
ENDBRANCH  26  27
ENDBRANCH  25  26
ENDBRANCH   8  25
TORSDOF 8
ENDMDL
MODEL 4
REMARK VINA RESULT: -7.968057259      1.602      2.648
REMARK  8 active torsions:
REMARK  status: ('A' for Active; 'I' for Inactive)
REMARK    1  A    between atoms: N1_2  and  C2_3 
REMARK    2  A    between atoms: C2_3  and  C3_4 
REMARK    3  A    between atoms: C3_4  and  N2_5 
REMARK       I    between atoms: N2_5  and  C4_7 
REMARK       I    between atoms: C4_7  and  N3_9 
REMARK    4  A    between atoms: C7_12  and  C8_13 
REMARK    5  A    between atoms: C8_13  and  C9_14 
REMARK    6  A    between atoms: C9_14  and  N4_15 
REMARK    7  A    between atoms: N5_25  and  S1_26 
REMARK    8  A    between atoms: S1_26  and  N6_27 
ROOT
HETATM    1  N2  UNL     1      -4.430  10.325  21.308  1.00  0.00    -0.341 N 
ATOM      2  H2  UNL     1      -4.192   9.715  20.525  1.00  0.00     0.164 HD
HETATM    3  C4  UNL     1      -5.715  10.200  21.892  1.00  0.00     0.326 C 
HETATM    4  O1  UNL     1      -6.051  10.949  22.870  1.00  0.00    -0.246 OA
HETATM    5  N3  UNL     1      -6.691   9.261  21.444  1.00  0.00    -0.286 N 
HETATM    6  C5  UNL     1      -6.501   8.406  20.434  1.00  0.00     0.101 A 
HETATM    7  C6  UNL     1      -7.467   7.490  20.005  1.00  0.00     0.025 A 
HETATM    8  C7  UNL     1      -8.690   7.440  20.632  1.00  0.00    -0.054 A 
HETATM    9  C15 UNL     1      -8.879   8.324  21.672  1.00  0.00     0.025 A 
HETATM   10  C16 UNL     1      -7.899   9.212  22.064  1.00  0.00     0.101 A 
ENDROOT
BRANCH   1  11
HETATM   11  C3  UNL     1      -3.441  11.271  21.764  1.00  0.00     0.152 C 
BRANCH  11  12
HETATM   12  C2  UNL     1      -2.333  10.713  22.572  1.00  0.00     0.258 C 
BRANCH  12  13
HETATM   13  N1  UNL     1      -2.151  11.175  23.888  1.00  0.00    -0.056 N 
HETATM   14  C1  UNL     1      -1.079  12.156  23.910  1.00  0.00     0.274 C 
HETATM   15  C17 UNL     1      -3.275  11.731  24.556  1.00  0.00     0.254 C 
HETATM   16  C18 UNL     1      -3.693  10.784  25.648  1.00  0.00     0.139 C 
HETATM   17  N5  UNL     1      -2.759   9.716  25.603  1.00  0.00    -0.166 NA
HETATM   18  C19 UNL     1      -1.679  10.076  24.734  1.00  0.00     0.345 C 
BRANCH  17  19
HETATM   19  S1  UNL     1      -2.221   9.216  27.162  1.00  0.00     0.298 S 
HETATM   20  O2  UNL     1      -0.803   9.607  27.421  1.00  0.00    -0.189 OA
HETATM   21  O3  UNL     1      -2.371   7.752  27.362  1.00  0.00    -0.189 OA
BRANCH  19  22
HETATM   22  N6  UNL     1      -3.212  10.025  28.336  1.00  0.00    -0.316 N 
ATOM     23  H62 UNL     1      -4.213  10.197  28.249  1.00  0.00     0.170 HD
ATOM     24  H61 UNL     1      -2.607  10.288  29.114  1.00  0.00     0.170 HD
ENDBRANCH  19  22
ENDBRANCH  17  19
ENDBRANCH  12  13
ENDBRANCH  11  12
ENDBRANCH   1  11
BRANCH   8  25
HETATM   25  C8  UNL     1      -9.769   6.503  20.244  1.00  0.00     0.058 C 
BRANCH  25  26
HETATM   26  C9  UNL     1      -9.869   6.490  18.724  1.00  0.00     0.132 C 
BRANCH  26  27
HETATM   27  N4  UNL     1     -10.318   7.792  18.289  1.00  0.00    -0.366 N 
HETATM   28  C10 UNL     1     -11.377   8.359  18.869  1.00  0.00     0.090 A 
HETATM   29  C11 UNL     1     -11.843   9.609  18.481  1.00  0.00     0.017 A 
HETATM   30  C12 UNL     1     -11.176  10.244  17.478  1.00  0.00     0.003 A 
HETATM   31  C13 UNL     1     -10.089   9.643  16.894  1.00  0.00     0.017 A 
HETATM   32  C14 UNL     1      -9.644   8.399  17.297  1.00  0.00     0.090 A 
ENDBRANCH  26  27
ENDBRANCH  25  26
ENDBRANCH   8  25
TORSDOF 8
ENDMDL
MODEL 5
REMARK VINA RESULT: -7.822199739      2.034      2.737
REMARK  8 active torsions:
REMARK  status: ('A' for Active; 'I' for Inactive)
REMARK    1  A    between atoms: N1_2  and  C2_3 
REMARK    2  A    between atoms: C2_3  and  C3_4 
REMARK    3  A    between atoms: C3_4  and  N2_5 
REMARK       I    between atoms: N2_5  and  C4_7 
REMARK       I    between atoms: C4_7  and  N3_9 
REMARK    4  A    between atoms: C7_12  and  C8_13 
REMARK    5  A    between atoms: C8_13  and  C9_14 
REMARK    6  A    between atoms: C9_14  and  N4_15 
REMARK    7  A    between atoms: N5_25  and  S1_26 
REMARK    8  A    between atoms: S1_26  and  N6_27 
ROOT
HETATM    1  N2  UNL     1      -4.575  10.156  21.210  1.00  0.00    -0.341 N 
ATOM      2  H2  UNL     1      -4.364   9.549  20.418  1.00  0.00     0.164 HD
HETATM    3  C4  UNL     1      -5.847  10.040  21.825  1.00  0.00     0.326 C 
HETATM    4  O1  UNL     1      -6.150  10.785  22.817  1.00  0.00    -0.246 OA
HETATM    5  N3  UNL     1      -6.844   9.116  21.395  1.00  0.00    -0.286 N 
HETATM    6  C5  UNL     1      -6.690   8.266  20.375  1.00  0.00     0.101 A 
HETATM    7  C6  UNL     1      -7.676   7.364  19.963  1.00  0.00     0.025 A 
HETATM    8  C7  UNL     1      -8.883   7.323  20.620  1.00  0.00    -0.054 A 
HETATM    9  C15 UNL     1      -9.036   8.201  21.671  1.00  0.00     0.025 A 
HETATM   10  C16 UNL     1      -8.037   9.075  22.045  1.00  0.00     0.101 A 
ENDROOT
BRANCH   1  11
HETATM   11  C3  UNL     1      -3.565  11.087  21.648  1.00  0.00     0.152 C 
BRANCH  11  12
HETATM   12  C2  UNL     1      -2.480  10.524  22.483  1.00  0.00     0.258 C 
BRANCH  12  13
HETATM   13  N1  UNL     1      -2.270  11.050  23.771  1.00  0.00    -0.056 N 
HETATM   14  C1  UNL     1      -1.220  12.053  23.715  1.00  0.00     0.274 C 
HETATM   15  C17 UNL     1      -3.386  11.612  24.448  1.00  0.00     0.254 C 
HETATM   16  C18 UNL     1      -3.750  10.709  25.593  1.00  0.00     0.139 C 
HETATM   17  N5  UNL     1      -2.794   9.659  25.569  1.00  0.00    -0.166 NA
HETATM   18  C19 UNL     1      -1.748  10.002  24.651  1.00  0.00     0.345 C 
BRANCH  17  19
HETATM   19  S1  UNL     1      -2.199   9.243  27.131  1.00  0.00     0.298 S 
HETATM   20  O2  UNL     1      -0.786   9.685  27.332  1.00  0.00    -0.189 OA
HETATM   21  O3  UNL     1      -2.300   7.786  27.399  1.00  0.00    -0.189 OA
BRANCH  19  22
HETATM   22  N6  UNL     1      -3.180  10.074  28.298  1.00  0.00    -0.316 N 
ATOM     23  H62 UNL     1      -4.078   9.749  28.656  1.00  0.00     0.170 HD
ATOM     24  H61 UNL     1      -2.692  10.934  28.549  1.00  0.00     0.170 HD
ENDBRANCH  19  22
ENDBRANCH  17  19
ENDBRANCH  12  13
ENDBRANCH  11  12
ENDBRANCH   1  11
BRANCH   8  25
HETATM   25  C8  UNL     1      -9.982   6.401  20.253  1.00  0.00     0.058 C 
BRANCH  25  26
HETATM   26  C9  UNL     1      -9.454   5.415  19.218  1.00  0.00     0.132 C 
BRANCH  26  27
HETATM   27  N4  UNL     1     -10.568   4.639  18.724  1.00  0.00    -0.366 N 
HETATM   28  C10 UNL     1     -10.596   3.318  18.915  1.00  0.00     0.090 A 
HETATM   29  C11 UNL     1     -11.647   2.534  18.455  1.00  0.00     0.017 A 
HETATM   30  C12 UNL     1     -12.660   3.164  17.797  1.00  0.00     0.003 A 
HETATM   31  C13 UNL     1     -12.612   4.523  17.613  1.00  0.00     0.017 A 
HETATM   32  C14 UNL     1     -11.555   5.282  18.078  1.00  0.00     0.090 A 
ENDBRANCH  26  27
ENDBRANCH  25  26
ENDBRANCH   8  25
TORSDOF 8
ENDMDL
