MODEL 1
REMARK VINA RESULT: -8.847701800      0.000      0.000
REMARK  8 active torsions:
REMARK  status: ('A' for Active; 'I' for Inactive)
REMARK       I    between atoms: C2_2  and  N1_4 
REMARK    1  A    between atoms: N2_7  and  C5_8 
REMARK    2  A    between atoms: C5_8  and  O2_9 
REMARK    3  A    between atoms: C6_11  and  N3_12 
REMARK    4  A    between atoms: N3_12  and  N4_14 
REMARK    5  A    between atoms: N6_21  and  C9_22 
REMARK    6  A    between atoms: C9_22  and  C10_23 
REMARK    7  A    between atoms: C14_27  and  C15_28 
REMARK    8  A    between atoms: C15_28  and  N7_29 
ROOT
HETATM    1  C1  UNL     1      -0.943  13.289  20.274  1.00  0.00     0.117 C 
HETATM    2  C2  UNL     1      -1.237  13.321  21.727  1.00  0.00     0.220 C 
HETATM    3  O1  UNL     1      -0.416  13.901  22.506  1.00  0.00    -0.273 OA
HETATM    4  N1  UNL     1      -2.382  12.743  22.318  1.00  0.00    -0.317 N 
HETATM    5  C3  UNL     1      -2.414  12.921  23.736  1.00  0.00     0.152 C 
HETATM    6  C4  UNL     1      -1.698  11.886  24.560  1.00  0.00     0.145 C 
HETATM    7  N2  UNL     1      -2.041  10.527  24.271  1.00  0.00    -0.358 N 
HETATM    8  C7  UNL     1      -2.552  10.021  22.966  1.00  0.00     0.139 C 
HETATM    9  C8  UNL     1      -3.955  10.472  22.829  1.00  0.00     0.116 C 
HETATM   10  N6  UNL     1      -4.218  11.300  21.696  1.00  0.00    -0.273 NA
HETATM   11  C22 UNL     1      -3.176  12.146  21.265  1.00  0.00     0.157 C 
ENDROOT
BRANCH  10  12
HETATM   12  C9  UNL     1      -4.851  10.623  20.611  1.00  0.00     0.134 C 
BRANCH  12  13
HETATM   13  C10 UNL     1      -6.305  10.898  20.644  1.00  0.00    -0.044 A 
HETATM   14  C11 UNL     1      -6.887  11.865  21.436  1.00  0.00     0.008 A 
HETATM   15  C12 UNL     1      -8.249  12.071  21.422  1.00  0.00     0.001 A 
HETATM   16  C13 UNL     1      -9.071  11.315  20.613  1.00  0.00     0.009 A 
HETATM   17  C14 UNL     1      -8.481  10.341  19.815  1.00  0.00    -0.039 A 
HETATM   18  C21 UNL     1      -7.124  10.142  19.836  1.00  0.00     0.017 A 
BRANCH  17  19
HETATM   19  C15 UNL     1      -9.358   9.517  18.937  1.00  0.00     0.166 C 
BRANCH  19  20
HETATM   20  N7  UNL     1      -9.110   8.121  19.262  1.00  0.00    -0.362 N 
HETATM   21  C16 UNL     1      -9.653   7.618  20.388  1.00  0.00     0.090 A 
HETATM   22  C17 UNL     1      -9.438   6.294  20.727  1.00  0.00     0.017 A 
HETATM   23  C18 UNL     1      -8.670   5.483  19.917  1.00  0.00     0.003 A 
HETATM   24  C19 UNL     1      -8.132   6.032  18.774  1.00  0.00     0.017 A 
HETATM   25  C20 UNL     1      -8.355   7.364  18.445  1.00  0.00     0.090 A 
ENDBRANCH  19  20
ENDBRANCH  17  19
ENDBRANCH  12  13
ENDBRANCH  10  12
BRANCH   7  26
HETATM   26  C5  UNL     1      -1.880   9.525  25.215  1.00  0.00     0.155 C 
HETATM   27  C6  UNL     1      -2.334   9.352  26.572  1.00  0.00     0.164 C 
BRANCH  26  28
HETATM   28  O2  UNL     1      -1.151   8.463  24.829  1.00  0.00    -0.345 OA
ATOM     29  H2  UNL     1      -0.721   7.979  25.524  1.00  0.00     0.219 HD
ENDBRANCH  26  28
BRANCH  27  30
HETATM   30  N3  UNL     1      -3.043  10.323  27.296  1.00  0.00    -0.294 N 
ATOM     31  H3  UNL     1      -3.264  11.220  26.863  1.00  0.00     0.187 HD
BRANCH  30  32
HETATM   32  N4  UNL     1      -3.456  10.058  28.636  1.00  0.00    -0.250 N 
HETATM   33  N5  UNL     1      -3.911   8.940  28.968  1.00  0.00    -0.331 N 
ATOM     34  H52 UNL     1      -3.981   8.215  28.254  1.00  0.00     0.178 HD
ATOM     35  H51 UNL     1      -4.206   8.751  29.926  1.00  0.00     0.178 HD
ATOM     36  H4  UNL     1      -3.379  10.794  29.338  1.00  0.00     0.207 HD
ENDBRANCH  30  32
ENDBRANCH  27  30
ENDBRANCH   7  26
TORSDOF 8
ENDMDL
MODEL 2
REMARK VINA RESULT: -8.720433202      1.985      2.442
REMARK  8 active torsions:
REMARK  status: ('A' for Active; 'I' for Inactive)
REMARK       I    between atoms: C2_2  and  N1_4 
REMARK    1  A    between atoms: N2_7  and  C5_8 
REMARK    2  A    between atoms: C5_8  and  O2_9 
REMARK    3  A    between atoms: C6_11  and  N3_12 
REMARK    4  A    between atoms: N3_12  and  N4_14 
REMARK    5  A    between atoms: N6_21  and  C9_22 
REMARK    6  A    between atoms: C9_22  and  C10_23 
REMARK    7  A    between atoms: C14_27  and  C15_28 
REMARK    8  A    between atoms: C15_28  and  N7_29 
ROOT
HETATM    1  C1  UNL     1      -4.680  14.715  23.646  1.00  0.00     0.117 C 
HETATM    2  C2  UNL     1      -4.711  13.734  24.757  1.00  0.00     0.220 C 
HETATM    3  O1  UNL     1      -4.738  14.163  25.953  1.00  0.00    -0.273 OA
HETATM    4  N1  UNL     1      -4.712  12.332  24.578  1.00  0.00    -0.317 N 
HETATM    5  C3  UNL     1      -4.745  11.623  25.819  1.00  0.00     0.152 C 
HETATM    6  C4  UNL     1      -3.417  11.350  26.473  1.00  0.00     0.145 C 
HETATM    7  N2  UNL     1      -2.433  10.738  25.633  1.00  0.00    -0.358 N 
HETATM    8  C7  UNL     1      -2.371  10.852  24.148  1.00  0.00     0.139 C 
HETATM    9  C8  UNL     1      -3.460  10.020  23.589  1.00  0.00     0.116 C 
HETATM   10  N6  UNL     1      -4.416  10.726  22.797  1.00  0.00    -0.273 NA
HETATM   11  C22 UNL     1      -4.683  12.063  23.156  1.00  0.00     0.157 C 
ENDROOT
BRANCH  10  12
HETATM   12  C9  UNL     1      -4.243  10.567  21.390  1.00  0.00     0.134 C 
BRANCH  12  13
HETATM   13  C10 UNL     1      -5.568  10.571  20.730  1.00  0.00    -0.044 A 
HETATM   14  C11 UNL     1      -5.855  11.282  19.584  1.00  0.00     0.008 A 
HETATM   15  C12 UNL     1      -7.111  11.245  19.020  1.00  0.00     0.001 A 
HETATM   16  C13 UNL     1      -8.119  10.494  19.586  1.00  0.00     0.009 A 
HETATM   17  C14 UNL     1      -7.827   9.778  20.741  1.00  0.00    -0.039 A 
HETATM   18  C21 UNL     1      -6.574   9.821  21.297  1.00  0.00     0.017 A 
BRANCH  17  19
HETATM   19  C15 UNL     1      -8.908   8.963  21.363  1.00  0.00     0.166 C 
BRANCH  19  20
HETATM   20  N7  UNL     1      -9.031   7.739  20.586  1.00  0.00    -0.362 N 
HETATM   21  C16 UNL     1      -7.962   6.924  20.499  1.00  0.00     0.090 A 
HETATM   22  C17 UNL     1      -8.045   5.752  19.769  1.00  0.00     0.017 A 
HETATM   23  C18 UNL     1      -9.218   5.412  19.127  1.00  0.00     0.003 A 
HETATM   24  C19 UNL     1     -10.289   6.270  19.239  1.00  0.00     0.017 A 
HETATM   25  C20 UNL     1     -10.194   7.444  19.976  1.00  0.00     0.090 A 
ENDBRANCH  19  20
ENDBRANCH  17  19
ENDBRANCH  12  13
ENDBRANCH  10  12
BRANCH   7  26
HETATM   26  C5  UNL     1      -1.394   9.990  26.164  1.00  0.00     0.155 C 
HETATM   27  C6  UNL     1      -1.337   8.819  27.002  1.00  0.00     0.164 C 
BRANCH  26  28
HETATM   28  O2  UNL     1      -0.153  10.407  25.859  1.00  0.00    -0.345 OA
ATOM     29  H2  UNL     1       0.316  10.859  26.550  1.00  0.00     0.219 HD
ENDBRANCH  26  28
BRANCH  27  30
HETATM   30  N3  UNL     1      -2.461   8.195  27.563  1.00  0.00    -0.294 N 
ATOM     31  H3  UNL     1      -2.967   7.486  27.033  1.00  0.00     0.187 HD
BRANCH  30  32
HETATM   32  N4  UNL     1      -2.899   8.551  28.875  1.00  0.00    -0.250 N 
HETATM   33  N5  UNL     1      -3.874   9.316  29.050  1.00  0.00    -0.331 N 
ATOM     34  H52 UNL     1      -4.355   9.684  28.228  1.00  0.00     0.178 HD
ATOM     35  H51 UNL     1      -4.187   9.571  29.986  1.00  0.00     0.178 HD
ATOM     36  H4  UNL     1      -2.408   8.175  29.685  1.00  0.00     0.207 HD
ENDBRANCH  30  32
ENDBRANCH  27  30
ENDBRANCH   7  26
TORSDOF 8
ENDMDL
MODEL 3
REMARK VINA RESULT: -8.681818821      2.477      3.782
REMARK  8 active torsions:
REMARK  status: ('A' for Active; 'I' for Inactive)
REMARK       I    between atoms: C2_2  and  N1_4 
REMARK    1  A    between atoms: N2_7  and  C5_8 
REMARK    2  A    between atoms: C5_8  and  O2_9 
REMARK    3  A    between atoms: C6_11  and  N3_12 
REMARK    4  A    between atoms: N3_12  and  N4_14 
REMARK    5  A    between atoms: N6_21  and  C9_22 
REMARK    6  A    between atoms: C9_22  and  C10_23 
REMARK    7  A    between atoms: C14_27  and  C15_28 
REMARK    8  A    between atoms: C15_28  and  N7_29 
ROOT
HETATM    1  C1  UNL     1      -5.286  14.726  21.247  1.00  0.00     0.117 C 
HETATM    2  C2  UNL     1      -5.356  14.343  22.677  1.00  0.00     0.220 C 
HETATM    3  O1  UNL     1      -5.250  15.251  23.561  1.00  0.00    -0.273 OA
HETATM    4  N1  UNL     1      -5.536  13.019  23.137  1.00  0.00    -0.317 N 
HETATM    5  C3  UNL     1      -5.568  12.935  24.564  1.00  0.00     0.152 C 
HETATM    6  C4  UNL     1      -4.240  12.797  25.259  1.00  0.00     0.145 C 
HETATM    7  N2  UNL     1      -3.396  11.751  24.767  1.00  0.00    -0.358 N 
HETATM    8  C7  UNL     1      -3.423  11.194  23.384  1.00  0.00     0.139 C 
HETATM    9  C8  UNL     1      -4.638  10.360  23.261  1.00  0.00     0.116 C 
HETATM   10  N6  UNL     1      -5.556  10.773  22.247  1.00  0.00    -0.273 NA
HETATM   11  C22 UNL     1      -5.637  12.154  21.980  1.00  0.00     0.157 C 
ENDROOT
BRANCH  10  12
HETATM   12  C9  UNL     1      -5.500   9.992  21.053  1.00  0.00     0.134 C 
BRANCH  12  13
HETATM   13  C10 UNL     1      -6.661   9.074  21.014  1.00  0.00    -0.044 A 
HETATM   14  C11 UNL     1      -6.832   8.091  20.064  1.00  0.00     0.008 A 
HETATM   15  C12 UNL     1      -7.937   7.268  20.083  1.00  0.00     0.001 A 
HETATM   16  C13 UNL     1      -8.905   7.405  21.055  1.00  0.00     0.009 A 
HETATM   17  C14 UNL     1      -8.729   8.398  22.012  1.00  0.00    -0.039 A 
HETATM   18  C21 UNL     1      -7.626   9.212  21.987  1.00  0.00     0.017 A 
BRANCH  17  19
HETATM   19  C15 UNL     1      -9.768   8.556  23.068  1.00  0.00     0.166 C 
BRANCH  19  20
HETATM   20  N7  UNL     1     -10.350   9.880  22.911  1.00  0.00    -0.362 N 
HETATM   21  C16 UNL     1     -10.275  10.741  23.946  1.00  0.00     0.090 A 
HETATM   22  C17 UNL     1     -10.817  12.008  23.830  1.00  0.00     0.017 A 
HETATM   23  C18 UNL     1     -11.435  12.398  22.660  1.00  0.00     0.003 A 
HETATM   24  C19 UNL     1     -11.492  11.491  21.625  1.00  0.00     0.017 A 
HETATM   25  C20 UNL     1     -10.943  10.221  21.753  1.00  0.00     0.090 A 
ENDBRANCH  19  20
ENDBRANCH  17  19
ENDBRANCH  12  13
ENDBRANCH  10  12
BRANCH   7  26
HETATM   26  C5  UNL     1      -2.420  11.176  25.564  1.00  0.00     0.155 C 
HETATM   27  C6  UNL     1      -2.455  10.382  26.767  1.00  0.00     0.164 C 
BRANCH  26  28
HETATM   28  O2  UNL     1      -1.149  11.371  25.173  1.00  0.00    -0.345 OA
ATOM     29  H2  UNL     1      -0.480  10.969  25.714  1.00  0.00     0.219 HD
ENDBRANCH  26  28
BRANCH  27  30
HETATM   30  N3  UNL     1      -3.627  10.078  27.476  1.00  0.00    -0.294 N 
ATOM     31  H3  UNL     1      -4.537  10.312  27.080  1.00  0.00     0.187 HD
BRANCH  30  32
HETATM   32  N4  UNL     1      -3.548   9.441  28.752  1.00  0.00    -0.250 N 
HETATM   33  N5  UNL     1      -2.868   8.404  28.920  1.00  0.00    -0.331 N 
ATOM     34  H52 UNL     1      -2.366   8.019  28.119  1.00  0.00     0.178 HD
ATOM     35  H51 UNL     1      -2.811   7.949  29.831  1.00  0.00     0.178 HD
ATOM     36  H4  UNL     1      -4.056   9.839  29.542  1.00  0.00     0.207 HD
ENDBRANCH  30  32
ENDBRANCH  27  30
ENDBRANCH   7  26
TORSDOF 8
ENDMDL
MODEL 4
REMARK VINA RESULT: -8.629810584      2.204      3.015
REMARK  8 active torsions:
REMARK  status: ('A' for Active; 'I' for Inactive)
REMARK       I    between atoms: C2_2  and  N1_4 
REMARK    1  A    between atoms: N2_7  and  C5_8 
REMARK    2  A    between atoms: C5_8  and  O2_9 
REMARK    3  A    between atoms: C6_11  and  N3_12 
REMARK    4  A    between atoms: N3_12  and  N4_14 
REMARK    5  A    between atoms: N6_21  and  C9_22 
REMARK    6  A    between atoms: C9_22  and  C10_23 
REMARK    7  A    between atoms: C14_27  and  C15_28 
REMARK    8  A    between atoms: C15_28  and  N7_29 
ROOT
HETATM    1  C1  UNL     1      -5.523  14.709  21.791  1.00  0.00     0.117 C 
HETATM    2  C2  UNL     1      -5.339  14.220  23.178  1.00  0.00     0.220 C 
HETATM    3  O1  UNL     1      -5.142  15.067  24.105  1.00  0.00    -0.273 OA
HETATM    4  N1  UNL     1      -5.368  12.857  23.549  1.00  0.00    -0.317 N 
HETATM    5  C3  UNL     1      -5.163  12.669  24.952  1.00  0.00     0.152 C 
HETATM    6  C4  UNL     1      -3.734  12.572  25.415  1.00  0.00     0.145 C 
HETATM    7  N2  UNL     1      -2.924  11.624  24.713  1.00  0.00    -0.358 N 
HETATM    8  C7  UNL     1      -3.143  11.168  23.310  1.00  0.00     0.139 C 
HETATM    9  C8  UNL     1      -4.314  10.264  23.311  1.00  0.00     0.116 C 
HETATM   10  N6  UNL     1      -5.406  10.685  22.492  1.00  0.00    -0.273 NA
HETATM   11  C22 UNL     1      -5.606  12.073  22.356  1.00  0.00     0.157 C 
ENDROOT
BRANCH  10  12
HETATM   12  C9  UNL     1      -5.500   9.998  21.245  1.00  0.00     0.134 C 
BRANCH  12  13
HETATM   13  C10 UNL     1      -6.719   9.157  21.241  1.00  0.00    -0.044 A 
HETATM   14  C11 UNL     1      -7.562   9.019  22.322  1.00  0.00     0.008 A 
HETATM   15  C12 UNL     1      -8.681   8.219  22.254  1.00  0.00     0.001 A 
HETATM   16  C13 UNL     1      -8.990   7.531  21.100  1.00  0.00     0.009 A 
HETATM   17  C14 UNL     1      -8.138   7.672  20.011  1.00  0.00    -0.039 A 
HETATM   18  C21 UNL     1      -7.026   8.471  20.087  1.00  0.00     0.017 A 
BRANCH  17  19
HETATM   19  C15 UNL     1      -8.460   6.934  18.757  1.00  0.00     0.166 C 
BRANCH  19  20
HETATM   20  N7  UNL     1      -9.563   7.630  18.114  1.00  0.00    -0.362 N 
HETATM   21  C16 UNL     1      -9.277   8.567  17.188  1.00  0.00     0.090 A 
HETATM   22  C17 UNL     1     -10.303   9.248  16.556  1.00  0.00     0.017 A 
HETATM   23  C18 UNL     1     -11.618   8.975  16.868  1.00  0.00     0.003 A 
HETATM   24  C19 UNL     1     -11.870   8.011  17.819  1.00  0.00     0.017 A 
HETATM   25  C20 UNL     1     -10.832   7.333  18.447  1.00  0.00     0.090 A 
ENDBRANCH  19  20
ENDBRANCH  17  19
ENDBRANCH  12  13
ENDBRANCH  10  12
BRANCH   7  26
HETATM   26  C5  UNL     1      -1.801  11.061  25.297  1.00  0.00     0.155 C 
HETATM   27  C6  UNL     1      -1.602  10.049  26.303  1.00  0.00     0.164 C 
BRANCH  26  28
HETATM   28  O2  UNL     1      -0.616  11.526  24.864  1.00  0.00    -0.345 OA
ATOM     29  H2  UNL     1       0.076  11.572  25.513  1.00  0.00     0.219 HD
ENDBRANCH  26  28
BRANCH  27  30
HETATM   30  N3  UNL     1      -2.641   9.430  27.015  1.00  0.00    -0.294 N 
ATOM     31  H3  UNL     1      -3.017   8.538  26.694  1.00  0.00     0.187 HD
BRANCH  30  32
HETATM   32  N4  UNL     1      -3.173  10.047  28.187  1.00  0.00    -0.250 N 
HETATM   33  N5  UNL     1      -3.892   9.408  28.989  1.00  0.00    -0.331 N 
ATOM     34  H52 UNL     1      -4.092   8.429  28.785  1.00  0.00     0.178 HD
ATOM     35  H51 UNL     1      -4.272   9.849  29.826  1.00  0.00     0.178 HD
ATOM     36  H4  UNL     1      -2.964  11.027  28.376  1.00  0.00     0.207 HD
ENDBRANCH  30  32
ENDBRANCH  27  30
ENDBRANCH   7  26
TORSDOF 8
ENDMDL
MODEL 5
REMARK VINA RESULT: -8.499617686      1.994      2.408
REMARK  8 active torsions:
REMARK  status: ('A' for Active; 'I' for Inactive)
REMARK       I    between atoms: C2_2  and  N1_4 
REMARK    1  A    between atoms: N2_7  and  C5_8 
REMARK    2  A    between atoms: C5_8  and  O2_9 
REMARK    3  A    between atoms: C6_11  and  N3_12 
REMARK    4  A    between atoms: N3_12  and  N4_14 
REMARK    5  A    between atoms: N6_21  and  C9_22 
REMARK    6  A    between atoms: C9_22  and  C10_23 
REMARK    7  A    between atoms: C14_27  and  C15_28 
REMARK    8  A    between atoms: C15_28  and  N7_29 
ROOT
HETATM    1  C1  UNL     1      -5.172  14.902  21.796  1.00  0.00     0.117 C 
HETATM    2  C2  UNL     1      -5.302  14.347  23.164  1.00  0.00     0.220 C 
HETATM    3  O1  UNL     1      -5.299  15.147  24.153  1.00  0.00    -0.273 OA
HETATM    4  N1  UNL     1      -5.433  12.971  23.453  1.00  0.00    -0.317 N 
HETATM    5  C3  UNL     1      -5.541  12.715  24.856  1.00  0.00     0.152 C 
HETATM    6  C4  UNL     1      -4.250  12.559  25.612  1.00  0.00     0.145 C 
HETATM    7  N2  UNL     1      -3.321  11.623  25.056  1.00  0.00    -0.358 N 
HETATM    8  C7  UNL     1      -3.238  11.236  23.619  1.00  0.00     0.139 C 
HETATM    9  C8  UNL     1      -4.395  10.363  23.322  1.00  0.00     0.116 C 
HETATM   10  N6  UNL     1      -5.276  10.849  22.308  1.00  0.00    -0.273 NA
HETATM   11  C22 UNL     1      -5.419  12.247  22.200  1.00  0.00     0.157 C 
ENDROOT
BRANCH  10  12
HETATM   12  C9  UNL     1      -5.107  10.221  21.037  1.00  0.00     0.134 C 
BRANCH  12  13
HETATM   13  C10 UNL     1      -6.386  10.272  20.293  1.00  0.00    -0.044 A 
HETATM   14  C11 UNL     1      -6.554  10.936  19.097  1.00  0.00     0.008 A 
HETATM   15  C12 UNL     1      -7.772  10.946  18.454  1.00  0.00     0.001 A 
HETATM   16  C13 UNL     1      -8.861  10.291  18.991  1.00  0.00     0.009 A 
HETATM   17  C14 UNL     1      -8.688   9.623  20.197  1.00  0.00    -0.039 A 
HETATM   18  C21 UNL     1      -7.472   9.617  20.830  1.00  0.00     0.017 A 
BRANCH  17  19
HETATM   19  C15 UNL     1      -9.856   8.911  20.787  1.00  0.00     0.166 C 
BRANCH  19  20
HETATM   20  N7  UNL     1      -9.850   7.554  20.262  1.00  0.00    -0.362 N 
HETATM   21  C16 UNL     1     -10.626   7.275  19.197  1.00  0.00     0.090 A 
HETATM   22  C17 UNL     1     -10.643   5.995  18.672  1.00  0.00     0.017 A 
HETATM   23  C18 UNL     1      -9.870   5.001  19.233  1.00  0.00     0.003 A 
HETATM   24  C19 UNL     1      -9.089   5.324  20.321  1.00  0.00     0.017 A 
HETATM   25  C20 UNL     1      -9.080   6.614  20.840  1.00  0.00     0.090 A 
ENDBRANCH  19  20
ENDBRANCH  17  19
ENDBRANCH  12  13
ENDBRANCH  10  12
BRANCH   7  26
HETATM   26  C5  UNL     1      -2.361  11.005  25.842  1.00  0.00     0.155 C 
HETATM   27  C6  UNL     1      -2.416  10.217  27.047  1.00  0.00     0.164 C 
BRANCH  26  28
HETATM   28  O2  UNL     1      -1.088  11.141  25.431  1.00  0.00    -0.345 OA
ATOM     29  H2  UNL     1      -0.431  11.173  26.117  1.00  0.00     0.219 HD
ENDBRANCH  26  28
BRANCH  27  30
HETATM   30  N3  UNL     1      -3.590   9.968  27.773  1.00  0.00    -0.294 N 
ATOM     31  H3  UNL     1      -4.460  10.430  27.509  1.00  0.00     0.187 HD
BRANCH  30  32
HETATM   32  N4  UNL     1      -3.571   9.069  28.883  1.00  0.00    -0.250 N 
HETATM   33  N5  UNL     1      -2.749   8.127  28.942  1.00  0.00    -0.331 N 
ATOM     34  H52 UNL     1      -2.087   8.013  28.174  1.00  0.00     0.178 HD
ATOM     35  H51 UNL     1      -2.734   7.485  29.734  1.00  0.00     0.178 HD
ATOM     36  H4  UNL     1      -4.239   9.198  29.642  1.00  0.00     0.207 HD
ENDBRANCH  30  32
ENDBRANCH  27  30
ENDBRANCH   7  26
TORSDOF 8
ENDMDL
