MODEL 1
REMARK VINA RESULT: -8.396878542      0.000      0.000
REMARK  4 active torsions:
REMARK  status: ('A' for Active; 'I' for Inactive)
REMARK    1  A    between atoms: C5_6  and  C6_7 
REMARK       I    between atoms: C6_7  and  N2_9 
REMARK    2  A    between atoms: N2_9  and  C7_11 
REMARK    3  A    between atoms: C7_11  and  C8_12 
REMARK    4  A    between atoms: C8_12  and  N3_13 
ROOT
HETATM    1  C7  UNL     1     -12.458 202.451 114.283  1.00  0.00     0.154 C 
ENDROOT
BRANCH   1   2
HETATM    2  N2  UNL     1     -11.205 203.087 114.138  1.00  0.00    -0.358 N 
HETATM    3  C6  UNL     1     -10.559 204.035 114.942  1.00  0.00     0.221 C 
HETATM    4  O1  UNL     1     -10.933 204.570 115.991  1.00  0.00    -0.273 OA
ATOM      5  H2  UNL     1     -10.683 202.810 113.307  1.00  0.00     0.162 HD
BRANCH   3   6
HETATM    6  C5  UNL     1      -9.169 204.518 114.502  1.00  0.00     0.079 C 
HETATM    7  C4  UNL     1      -9.209 205.020 113.103  1.00  0.00     0.016 C 
HETATM    8  C3  UNL     1      -7.929 204.770 112.337  1.00  0.00     0.031 C 
HETATM    9  C2  UNL     1      -6.910 205.807 112.780  1.00  0.00     0.272 C 
HETATM   10  N1  UNL     1      -6.614 205.701 114.189  1.00  0.00     0.084 N 
HETATM   11  C1  UNL     1      -5.307 206.269 114.407  1.00  0.00     0.309 C 
HETATM   12  C20 UNL     1      -7.635 206.452 114.910  1.00  0.00     0.272 C 
HETATM   13  C19 UNL     1      -8.643 205.516 115.492  1.00  0.00     0.044 C 
ENDBRANCH   3   6
ENDBRANCH   1   2
BRANCH   1  14
HETATM   14  C8  UNL     1     -13.629 202.871 113.456  1.00  0.00     0.051 C 
HETATM   15  C14 UNL     1     -14.551 201.656 113.359  1.00  0.00     0.033 C 
HETATM   16  C15 UNL     1     -14.495 200.870 112.115  1.00  0.00     0.002 C 
HETATM   17  C16 UNL     1     -14.094 201.545 110.859  1.00  0.00     0.000 C 
HETATM   18  C17 UNL     1     -14.319 203.043 111.064  1.00  0.00     0.002 C 
HETATM   19  C18 UNL     1     -13.234 203.383 112.141  1.00  0.00     0.033 C 
BRANCH  14  20
HETATM   20  N3  UNL     1     -14.343 203.802 114.294  1.00  0.00    -0.362 N 
HETATM   21  C9  UNL     1     -14.245 205.157 114.008  1.00  0.00     0.064 C 
HETATM   22  C10 UNL     1     -13.854 206.077 115.140  1.00  0.00     0.045 C 
HETATM   23  C11 UNL     1     -14.859 205.801 116.259  1.00  0.00     0.010 C 
HETATM   24  C12 UNL     1     -14.632 204.385 116.684  1.00  0.00     0.045 C 
HETATM   25  C13 UNL     1     -14.821 203.383 115.534  1.00  0.00     0.064 C 
ENDBRANCH  14  20
ENDBRANCH   1  14
TORSDOF 4
ENDMDL
MODEL 2
REMARK VINA RESULT: -8.271160453      1.947      3.474
REMARK  4 active torsions:
REMARK  status: ('A' for Active; 'I' for Inactive)
REMARK    1  A    between atoms: C5_6  and  C6_7 
REMARK       I    between atoms: C6_7  and  N2_9 
REMARK    2  A    between atoms: N2_9  and  C7_11 
REMARK    3  A    between atoms: C7_11  and  C8_12 
REMARK    4  A    between atoms: C8_12  and  N3_13 
ROOT
HETATM    1  C7  UNL     1     -11.291 204.383 112.502  1.00  0.00     0.154 C 
ENDROOT
BRANCH   1   2
HETATM    2  N2  UNL     1      -9.902 204.191 112.676  1.00  0.00    -0.358 N 
HETATM    3  C6  UNL     1      -8.952 204.950 113.371  1.00  0.00     0.221 C 
HETATM    4  O1  UNL     1      -9.089 206.001 114.006  1.00  0.00    -0.273 OA
ATOM      5  H2  UNL     1      -9.529 203.360 112.219  1.00  0.00     0.162 HD
BRANCH   3   6
HETATM    6  C5  UNL     1      -7.501 204.446 113.380  1.00  0.00     0.079 C 
HETATM    7  C4  UNL     1      -6.717 205.094 112.295  1.00  0.00     0.016 C 
HETATM    8  C3  UNL     1      -5.649 204.198 111.707  1.00  0.00     0.031 C 
HETATM    9  C2  UNL     1      -4.476 204.176 112.673  1.00  0.00     0.272 C 
HETATM   10  N1  UNL     1      -4.849 203.639 113.960  1.00  0.00     0.084 N 
HETATM   11  C1  UNL     1      -3.655 203.129 114.586  1.00  0.00     0.309 C 
HETATM   12  C20 UNL     1      -5.422 204.729 114.741  1.00  0.00     0.272 C 
HETATM   13  C19 UNL     1      -6.911 204.625 114.748  1.00  0.00     0.044 C 
ENDBRANCH   3   6
ENDBRANCH   1   2
BRANCH   1  14
HETATM   14  C8  UNL     1     -12.273 203.744 113.430  1.00  0.00     0.051 C 
HETATM   15  C14 UNL     1     -12.421 204.689 114.622  1.00  0.00     0.033 C 
HETATM   16  C15 UNL     1     -11.683 204.341 115.848  1.00  0.00     0.002 C 
HETATM   17  C16 UNL     1     -11.371 202.917 116.117  1.00  0.00     0.000 C 
HETATM   18  C17 UNL     1     -12.347 202.081 115.289  1.00  0.00     0.002 C 
HETATM   19  C18 UNL     1     -11.872 202.393 113.830  1.00  0.00     0.033 C 
BRANCH  14  20
HETATM   20  N3  UNL     1     -13.533 203.837 112.735  1.00  0.00    -0.362 N 
HETATM   21  C9  UNL     1     -14.555 204.573 113.319  1.00  0.00     0.064 C 
HETATM   22  C10 UNL     1     -15.898 203.897 113.467  1.00  0.00     0.045 C 
HETATM   23  C11 UNL     1     -16.270 203.414 112.064  1.00  0.00     0.010 C 
HETATM   24  C12 UNL     1     -15.249 202.388 111.691  1.00  0.00     0.045 C 
HETATM   25  C13 UNL     1     -13.817 202.945 111.703  1.00  0.00     0.064 C 
ENDBRANCH  14  20
ENDBRANCH   1  14
TORSDOF 4
ENDMDL
MODEL 3
REMARK VINA RESULT: -8.181011695      2.162      4.015
REMARK  4 active torsions:
REMARK  status: ('A' for Active; 'I' for Inactive)
REMARK    1  A    between atoms: C5_6  and  C6_7 
REMARK       I    between atoms: C6_7  and  N2_9 
REMARK    2  A    between atoms: N2_9  and  C7_11 
REMARK    3  A    between atoms: C7_11  and  C8_12 
REMARK    4  A    between atoms: C8_12  and  N3_13 
ROOT
HETATM    1  C7  UNL     1     -10.687 204.718 112.189  1.00  0.00     0.154 C 
ENDROOT
BRANCH   1   2
HETATM    2  N2  UNL     1      -9.288 204.716 112.394  1.00  0.00    -0.358 N 
HETATM    3  C6  UNL     1      -8.460 205.622 113.068  1.00  0.00     0.221 C 
HETATM    4  O1  UNL     1      -8.746 206.673 113.652  1.00  0.00    -0.273 OA
ATOM      5  H2  UNL     1      -8.801 203.922 111.981  1.00  0.00     0.162 HD
BRANCH   3   6
HETATM    6  C5  UNL     1      -6.957 205.313 113.124  1.00  0.00     0.079 C 
HETATM    7  C4  UNL     1      -6.681 204.238 114.114  1.00  0.00     0.016 C 
HETATM    8  C3  UNL     1      -5.348 204.391 114.813  1.00  0.00     0.031 C 
HETATM    9  C2  UNL     1      -4.264 203.920 113.857  1.00  0.00     0.272 C 
HETATM   10  N1  UNL     1      -4.229 204.714 112.652  1.00  0.00     0.084 N 
HETATM   11  C1  UNL     1      -2.902 204.611 112.097  1.00  0.00     0.309 C 
HETATM   12  C20 UNL     1      -5.221 204.165 111.735  1.00  0.00     0.272 C 
HETATM   13  C19 UNL     1      -6.450 205.014 111.744  1.00  0.00     0.044 C 
ENDBRANCH   3   6
ENDBRANCH   1   2
BRANCH   1  14
HETATM   14  C8  UNL     1     -11.586 203.894 113.052  1.00  0.00     0.051 C 
HETATM   15  C14 UNL     1     -11.791 204.686 114.344  1.00  0.00     0.033 C 
HETATM   16  C15 UNL     1     -10.997 204.275 115.514  1.00  0.00     0.002 C 
HETATM   17  C16 UNL     1     -10.554 202.865 115.620  1.00  0.00     0.000 C 
HETATM   18  C17 UNL     1     -11.470 202.039 114.717  1.00  0.00     0.002 C 
HETATM   19  C18 UNL     1     -11.058 202.550 113.295  1.00  0.00     0.033 C 
BRANCH  14  20
HETATM   20  N3  UNL     1     -12.865 203.948 112.388  1.00  0.00    -0.362 N 
HETATM   21  C9  UNL     1     -13.996 204.198 113.153  1.00  0.00     0.064 C 
HETATM   22  C10 UNL     1     -15.155 203.241 113.010  1.00  0.00     0.045 C 
HETATM   23  C11 UNL     1     -15.474 203.203 111.515  1.00  0.00     0.010 C 
HETATM   24  C12 UNL     1     -14.273 202.615 110.847  1.00  0.00     0.045 C 
HETATM   25  C13 UNL     1     -12.994 203.428 111.102  1.00  0.00     0.064 C 
ENDBRANCH  14  20
ENDBRANCH   1  14
TORSDOF 4
ENDMDL
MODEL 4
REMARK VINA RESULT: -8.106965517      1.799      3.645
REMARK  4 active torsions:
REMARK  status: ('A' for Active; 'I' for Inactive)
REMARK    1  A    between atoms: C5_6  and  C6_7 
REMARK       I    between atoms: C6_7  and  N2_9 
REMARK    2  A    between atoms: N2_9  and  C7_11 
REMARK    3  A    between atoms: C7_11  and  C8_12 
REMARK    4  A    between atoms: C8_12  and  N3_13 
ROOT
HETATM    1  C7  UNL     1     -11.649 204.020 113.163  1.00  0.00     0.154 C 
ENDROOT
BRANCH   1   2
HETATM    2  N2  UNL     1     -10.239 203.938 113.178  1.00  0.00    -0.358 N 
HETATM    3  C6  UNL     1      -9.275 204.813 113.697  1.00  0.00     0.221 C 
HETATM    4  O1  UNL     1      -9.418 205.899 114.269  1.00  0.00    -0.273 OA
ATOM      5  H2  UNL     1      -9.858 203.102 112.738  1.00  0.00     0.162 HD
BRANCH   3   6
HETATM    6  C5  UNL     1      -7.799 204.413 113.563  1.00  0.00     0.079 C 
HETATM    7  C4  UNL     1      -7.169 205.116 112.414  1.00  0.00     0.016 C 
HETATM    8  C3  UNL     1      -6.103 204.299 111.719  1.00  0.00     0.031 C 
HETATM    9  C2  UNL     1      -4.843 204.357 112.568  1.00  0.00     0.272 C 
HETATM   10  N1  UNL     1      -5.053 203.792 113.879  1.00  0.00     0.084 N 
HETATM   11  C1  UNL     1      -3.772 203.365 114.384  1.00  0.00     0.309 C 
HETATM   12  C20 UNL     1      -5.623 204.837 114.722  1.00  0.00     0.272 C 
HETATM   13  C19 UNL     1      -7.094 204.629 114.869  1.00  0.00     0.044 C 
ENDBRANCH   3   6
ENDBRANCH   1   2
BRANCH   1  14
HETATM   14  C8  UNL     1     -12.458 203.468 114.292  1.00  0.00     0.051 C 
HETATM   15  C14 UNL     1     -12.682 204.620 115.271  1.00  0.00     0.033 C 
HETATM   16  C15 UNL     1     -11.824 204.658 116.467  1.00  0.00     0.002 C 
HETATM   17  C16 UNL     1     -11.275 203.387 116.995  1.00  0.00     0.000 C 
HETATM   18  C17 UNL     1     -12.154 202.260 116.454  1.00  0.00     0.002 C 
HETATM   19  C18 UNL     1     -11.825 202.308 114.924  1.00  0.00     0.033 C 
BRANCH  14  20
HETATM   20  N3  UNL     1     -13.758 203.227 113.714  1.00  0.00    -0.362 N 
HETATM   21  C9  UNL     1     -14.108 201.921 113.399  1.00  0.00     0.064 C 
HETATM   22  C10 UNL     1     -14.612 201.657 112.001  1.00  0.00     0.045 C 
HETATM   23  C11 UNL     1     -15.777 202.626 111.795  1.00  0.00     0.010 C 
HETATM   24  C12 UNL     1     -15.191 204.000 111.848  1.00  0.00     0.045 C 
HETATM   25  C13 UNL     1     -14.481 204.291 113.180  1.00  0.00     0.064 C 
ENDBRANCH  14  20
ENDBRANCH   1  14
TORSDOF 4
ENDMDL
MODEL 5
REMARK VINA RESULT: -8.072059181      2.854      5.741
REMARK  4 active torsions:
REMARK  status: ('A' for Active; 'I' for Inactive)
REMARK    1  A    between atoms: C5_6  and  C6_7 
REMARK       I    between atoms: C6_7  and  N2_9 
REMARK    2  A    between atoms: N2_9  and  C7_11 
REMARK    3  A    between atoms: C7_11  and  C8_12 
REMARK    4  A    between atoms: C8_12  and  N3_13 
ROOT
HETATM    1  C7  UNL     1     -13.280 204.610 113.543  1.00  0.00     0.154 C 
ENDROOT
BRANCH   1   2
HETATM    2  N2  UNL     1     -13.158 204.159 114.876  1.00  0.00    -0.358 N 
HETATM    3  C6  UNL     1     -12.402 204.657 115.946  1.00  0.00     0.221 C 
HETATM    4  O1  UNL     1     -11.631 205.621 115.990  1.00  0.00    -0.273 OA
ATOM      5  H2  UNL     1     -13.713 203.333 115.097  1.00  0.00     0.162 HD
BRANCH   3   6
HETATM    6  C5  UNL     1     -12.510 203.932 117.296  1.00  0.00     0.079 C 
HETATM    7  C4  UNL     1     -11.715 204.640 118.334  1.00  0.00     0.016 C 
HETATM    8  C3  UNL     1     -11.106 203.714 119.363  1.00  0.00     0.031 C 
HETATM    9  C2  UNL     1     -12.202 203.315 120.338  1.00  0.00     0.272 C 
HETATM   10  N1  UNL     1     -13.274 202.608 119.680  1.00  0.00     0.084 N 
HETATM   11  C1  UNL     1     -13.940 201.799 120.671  1.00  0.00     0.309 C 
HETATM   12  C20 UNL     1     -14.183 203.604 119.126  1.00  0.00     0.272 C 
HETATM   13  C19 UNL     1     -13.953 203.745 117.657  1.00  0.00     0.044 C 
ENDBRANCH   3   6
ENDBRANCH   1   2
BRANCH   1  14
HETATM   14  C8  UNL     1     -13.684 203.670 112.453  1.00  0.00     0.051 C 
HETATM   15  C14 UNL     1     -14.740 204.398 111.622  1.00  0.00     0.033 C 
HETATM   16  C15 UNL     1     -16.147 204.043 111.867  1.00  0.00     0.002 C 
HETATM   17  C16 UNL     1     -16.467 202.687 112.372  1.00  0.00     0.000 C 
HETATM   18  C17 UNL     1     -15.273 201.792 112.037  1.00  0.00     0.002 C 
HETATM   19  C18 UNL     1     -14.162 202.384 112.967  1.00  0.00     0.033 C 
BRANCH  14  20
HETATM   20  N3  UNL     1     -12.528 203.603 111.593  1.00  0.00    -0.362 N 
HETATM   21  C9  UNL     1     -11.271 203.558 112.180  1.00  0.00     0.064 C 
HETATM   22  C10 UNL     1     -10.248 204.560 111.702  1.00  0.00     0.045 C 
HETATM   23  C11 UNL     1     -10.176 204.384 110.185  1.00  0.00     0.010 C 
HETATM   24  C12 UNL     1     -11.520 204.772 109.656  1.00  0.00     0.045 C 
HETATM   25  C13 UNL     1     -12.657 203.921 110.243  1.00  0.00     0.064 C 
ENDBRANCH  14  20
ENDBRANCH   1  14
TORSDOF 4
ENDMDL
