MODEL 1
REMARK VINA RESULT: -8.663162868      0.000      0.000
REMARK  5 active torsions:
REMARK  status: ('A' for Active; 'I' for Inactive)
REMARK       I    between atoms: C1_2  and  N1_3 
REMARK    1  A    between atoms: C1_2  and  O2_9 
REMARK    2  A    between atoms: N1_3  and  C2_5 
REMARK    3  A    between atoms: C2_5  and  C3_6 
REMARK    4  A    between atoms: O2_9  and  C6_10 
REMARK    5  A    between atoms: C15_19  and  C16_20 
REMARK       I    between atoms: C16_20  and  N2_22 
ROOT
HETATM    1  C6  UNL     1     -12.152 202.959 115.369  1.00  0.00     0.142 C 
HETATM    2  C7  UNL     1     -10.687 202.803 115.728  1.00  0.00     0.016 C 
HETATM    3  C8  UNL     1      -9.829 202.737 114.487  1.00  0.00     0.012 C 
HETATM    4  C9  UNL     1      -9.955 204.005 113.721  1.00  0.00    -0.000 C 
HETATM    5  C10 UNL     1     -11.409 204.105 113.258  1.00  0.00     0.012 C 
HETATM    6  C11 UNL     1     -12.309 204.158 114.456  1.00  0.00     0.016 C 
HETATM    7  C12 UNL     1     -11.982 205.383 115.284  1.00  0.00     0.012 C 
HETATM    8  C13 UNL     1     -10.546 205.274 115.760  1.00  0.00    -0.000 C 
HETATM    9  C14 UNL     1     -10.303 204.009 116.556  1.00  0.00     0.012 C 
HETATM   10  C15 UNL     1      -9.672 205.260 114.510  1.00  0.00     0.086 C 
ENDROOT
BRANCH   1  11
HETATM   11  O2  UNL     1     -12.713 201.799 114.841  1.00  0.00    -0.298 OA
BRANCH  11  12
HETATM   12  C1  UNL     1     -13.920 201.824 114.154  1.00  0.00     0.360 C 
HETATM   13  O1  UNL     1     -14.952 201.953 114.869  1.00  0.00    -0.239 OA
HETATM   14  N1  UNL     1     -14.013 201.712 112.746  1.00  0.00    -0.337 N 
ATOM     15  H1  UNL     1     -13.175 201.607 112.174  1.00  0.00     0.164 HD
BRANCH  14  16
HETATM   16  C2  UNL     1     -15.318 201.751 112.137  1.00  0.00     0.129 C 
BRANCH  16  17
HETATM   17  C3  UNL     1     -15.595 203.042 111.427  1.00  0.00     0.003 A 
HETATM   18  C4  UNL     1     -15.308 204.347 112.077  1.00  0.00     0.007 A 
HETATM   19  C5  UNL     1     -16.721 203.939 111.922  1.00  0.00     0.007 A 
ENDBRANCH  16  17
ENDBRANCH  14  16
ENDBRANCH  11  12
ENDBRANCH   1  11
BRANCH  10  20
HETATM   20  C16 UNL     1      -8.237 205.414 114.820  1.00  0.00     0.224 C 
HETATM   21  O3  UNL     1      -7.883 205.487 116.047  1.00  0.00    -0.273 OA
HETATM   22  N2  UNL     1      -7.212 205.489 113.856  1.00  0.00    -0.352 N 
HETATM   23  C17 UNL     1      -5.796 205.670 114.097  1.00  0.00     0.126 C 
HETATM   24  C20 UNL     1      -7.359 205.391 112.422  1.00  0.00     0.126 C 
HETATM   25  C18 UNL     1      -5.087 205.027 112.921  1.00  0.00     0.021 C 
HETATM   26  C19 UNL     1      -6.194 204.455 112.061  1.00  0.00     0.021 C 
ENDBRANCH  10  20
TORSDOF 5
ENDMDL
MODEL 2
REMARK VINA RESULT: -8.184717685      1.021      7.013
REMARK  5 active torsions:
REMARK  status: ('A' for Active; 'I' for Inactive)
REMARK       I    between atoms: C1_2  and  N1_3 
REMARK    1  A    between atoms: C1_2  and  O2_9 
REMARK    2  A    between atoms: N1_3  and  C2_5 
REMARK    3  A    between atoms: C2_5  and  C3_6 
REMARK    4  A    between atoms: O2_9  and  C6_10 
REMARK    5  A    between atoms: C15_19  and  C16_20 
REMARK       I    between atoms: C16_20  and  N2_22 
ROOT
HETATM    1  C6  UNL     1     -10.381 204.080 115.860  1.00  0.00     0.142 C 
HETATM    2  C7  UNL     1     -11.894 204.185 115.881  1.00  0.00     0.016 C 
HETATM    3  C8  UNL     1     -12.420 204.684 114.557  1.00  0.00     0.012 C 
HETATM    4  C9  UNL     1     -12.067 203.721 113.480  1.00  0.00    -0.000 C 
HETATM    5  C10 UNL     1     -10.541 203.704 113.379  1.00  0.00     0.012 C 
HETATM    6  C11 UNL     1      -9.963 203.228 114.678  1.00  0.00     0.016 C 
HETATM    7  C12 UNL     1     -10.444 201.821 114.963  1.00  0.00     0.012 C 
HETATM    8  C13 UNL     1     -11.955 201.842 115.084  1.00  0.00    -0.000 C 
HETATM    9  C14 UNL     1     -12.429 202.798 116.158  1.00  0.00     0.012 C 
HETATM   10  C15 UNL     1     -12.494 202.296 113.731  1.00  0.00     0.086 C 
ENDROOT
BRANCH   1  11
HETATM   11  O2  UNL     1      -9.746 205.320 115.885  1.00  0.00    -0.298 OA
BRANCH  11  12
HETATM   12  C1  UNL     1      -8.436 205.473 115.448  1.00  0.00     0.360 C 
HETATM   13  O1  UNL     1      -7.562 204.850 116.112  1.00  0.00    -0.239 OA
HETATM   14  N1  UNL     1      -8.079 206.271 114.334  1.00  0.00    -0.337 N 
ATOM     15  H1  UNL     1      -8.791 206.772 113.803  1.00  0.00     0.164 HD
BRANCH  14  16
HETATM   16  C2  UNL     1      -6.689 206.359 113.968  1.00  0.00     0.129 C 
BRANCH  16  17
HETATM   17  C3  UNL     1      -6.392 205.726 112.642  1.00  0.00     0.003 A 
HETATM   18  C4  UNL     1      -7.020 204.436 112.254  1.00  0.00     0.007 A 
HETATM   19  C5  UNL     1      -5.580 204.439 112.595  1.00  0.00     0.007 A 
ENDBRANCH  16  17
ENDBRANCH  14  16
ENDBRANCH  11  12
ENDBRANCH   1  11
BRANCH  10  20
HETATM   20  C16 UNL     1     -13.955 202.122 113.614  1.00  0.00     0.224 C 
HETATM   21  O3  UNL     1     -14.559 201.435 114.509  1.00  0.00    -0.273 OA
HETATM   22  N2  UNL     1     -14.747 202.658 112.581  1.00  0.00    -0.352 N 
HETATM   23  C17 UNL     1     -16.174 202.496 112.397  1.00  0.00     0.126 C 
HETATM   24  C20 UNL     1     -14.301 203.493 111.489  1.00  0.00     0.126 C 
HETATM   25  C18 UNL     1     -16.640 203.724 111.639  1.00  0.00     0.021 C 
HETATM   26  C19 UNL     1     -15.397 204.571 111.464  1.00  0.00     0.021 C 
ENDBRANCH  10  20
TORSDOF 5
ENDMDL
MODEL 3
REMARK VINA RESULT: -8.110907919      1.406      1.987
REMARK  5 active torsions:
REMARK  status: ('A' for Active; 'I' for Inactive)
REMARK       I    between atoms: C1_2  and  N1_3 
REMARK    1  A    between atoms: C1_2  and  O2_9 
REMARK    2  A    between atoms: N1_3  and  C2_5 
REMARK    3  A    between atoms: C2_5  and  C3_6 
REMARK    4  A    between atoms: O2_9  and  C6_10 
REMARK    5  A    between atoms: C15_19  and  C16_20 
REMARK       I    between atoms: C16_20  and  N2_22 
ROOT
HETATM    1  C6  UNL     1     -11.685 204.602 114.947  1.00  0.00     0.142 C 
HETATM    2  C7  UNL     1     -10.453 205.179 115.617  1.00  0.00     0.016 C 
HETATM    3  C8  UNL     1      -9.556 204.082 116.136  1.00  0.00     0.012 C 
HETATM    4  C9  UNL     1      -9.080 203.243 115.004  1.00  0.00    -0.000 C 
HETATM    5  C10 UNL     1     -10.312 202.567 114.400  1.00  0.00     0.012 C 
HETATM    6  C11 UNL     1     -11.249 203.616 113.881  1.00  0.00     0.016 C 
HETATM    7  C12 UNL     1     -10.561 204.421 112.798  1.00  0.00     0.012 C 
HETATM    8  C13 UNL     1      -9.350 205.107 113.401  1.00  0.00    -0.000 C 
HETATM    9  C14 UNL     1      -9.721 205.992 114.573  1.00  0.00     0.012 C 
HETATM   10  C15 UNL     1      -8.416 204.000 113.881  1.00  0.00     0.086 C 
ENDROOT
BRANCH   1  11
HETATM   11  O2  UNL     1     -12.594 204.056 115.849  1.00  0.00    -0.298 OA
BRANCH  11  12
HETATM   12  C1  UNL     1     -13.828 203.573 115.433  1.00  0.00     0.360 C 
HETATM   13  O1  UNL     1     -14.151 202.439 115.885  1.00  0.00    -0.239 OA
HETATM   14  N1  UNL     1     -14.686 204.284 114.560  1.00  0.00    -0.337 N 
ATOM     15  H1  UNL     1     -14.418 205.200 114.198  1.00  0.00     0.164 HD
BRANCH  14  16
HETATM   16  C2  UNL     1     -15.945 203.688 114.193  1.00  0.00     0.129 C 
BRANCH  16  17
HETATM   17  C3  UNL     1     -15.985 203.238 112.764  1.00  0.00     0.003 A 
HETATM   18  C4  UNL     1     -15.296 204.013 111.700  1.00  0.00     0.007 A 
HETATM   19  C5  UNL     1     -16.774 204.050 111.748  1.00  0.00     0.007 A 
ENDBRANCH  16  17
ENDBRANCH  14  16
ENDBRANCH  11  12
ENDBRANCH   1  11
BRANCH  10  20
HETATM   20  C16 UNL     1      -7.083 204.509 114.261  1.00  0.00     0.224 C 
HETATM   21  O3  UNL     1      -6.807 204.623 115.505  1.00  0.00    -0.273 OA
HETATM   22  N2  UNL     1      -6.079 204.885 113.348  1.00  0.00    -0.352 N 
HETATM   23  C17 UNL     1      -4.768 205.416 113.658  1.00  0.00     0.126 C 
HETATM   24  C20 UNL     1      -6.142 204.808 111.907  1.00  0.00     0.126 C 
HETATM   25  C18 UNL     1      -3.874 205.025 112.499  1.00  0.00     0.021 C 
HETATM   26  C19 UNL     1      -4.761 204.220 111.573  1.00  0.00     0.021 C 
ENDBRANCH  10  20
TORSDOF 5
ENDMDL
MODEL 4
REMARK VINA RESULT: -8.045006588      1.206      7.380
REMARK  5 active torsions:
REMARK  status: ('A' for Active; 'I' for Inactive)
REMARK       I    between atoms: C1_2  and  N1_3 
REMARK    1  A    between atoms: C1_2  and  O2_9 
REMARK    2  A    between atoms: N1_3  and  C2_5 
REMARK    3  A    between atoms: C2_5  and  C3_6 
REMARK    4  A    between atoms: O2_9  and  C6_10 
REMARK    5  A    between atoms: C15_19  and  C16_20 
REMARK       I    between atoms: C16_20  and  N2_22 
ROOT
HETATM    1  C6  UNL     1     -10.291 204.033 115.240  1.00  0.00     0.142 C 
HETATM    2  C7  UNL     1     -11.738 204.480 115.313  1.00  0.00     0.016 C 
HETATM    3  C8  UNL     1     -12.341 204.589 113.934  1.00  0.00     0.012 C 
HETATM    4  C9  UNL     1     -12.333 203.255 113.275  1.00  0.00    -0.000 C 
HETATM    5  C10 UNL     1     -10.868 202.855 113.094  1.00  0.00     0.012 C 
HETATM    6  C11 UNL     1     -10.213 202.748 114.438  1.00  0.00     0.016 C 
HETATM    7  C12 UNL     1     -10.907 201.680 115.258  1.00  0.00     0.012 C 
HETATM    8  C13 UNL     1     -12.355 202.087 115.455  1.00  0.00    -0.000 C 
HETATM    9  C14 UNL     1     -12.482 203.441 116.121  1.00  0.00     0.012 C 
HETATM   10  C15 UNL     1     -12.983 202.147 114.066  1.00  0.00     0.086 C 
ENDROOT
BRANCH   1  11
HETATM   11  O2  UNL     1      -9.435 205.022 114.760  1.00  0.00    -0.298 OA
BRANCH  11  12
HETATM   12  C1  UNL     1      -8.058 204.925 114.911  1.00  0.00     0.360 C 
HETATM   13  O1  UNL     1      -7.560 205.615 115.843  1.00  0.00    -0.239 OA
HETATM   14  N1  UNL     1      -7.242 204.114 114.085  1.00  0.00    -0.337 N 
ATOM     15  H1  UNL     1      -7.651 203.560 113.333  1.00  0.00     0.164 HD
BRANCH  14  16
HETATM   16  C2  UNL     1      -5.823 204.089 114.330  1.00  0.00     0.129 C 
BRANCH  16  17
HETATM   17  C3  UNL     1      -5.031 204.765 113.251  1.00  0.00     0.003 A 
HETATM   18  C4  UNL     1      -5.378 204.578 111.819  1.00  0.00     0.007 A 
HETATM   19  C5  UNL     1      -4.155 203.925 112.332  1.00  0.00     0.007 A 
ENDBRANCH  16  17
ENDBRANCH  14  16
ENDBRANCH  11  12
ENDBRANCH   1  11
BRANCH  10  20
HETATM   20  C16 UNL     1     -14.452 202.281 114.114  1.00  0.00     0.224 C 
HETATM   21  O3  UNL     1     -15.053 202.008 115.210  1.00  0.00    -0.273 OA
HETATM   22  N2  UNL     1     -15.256 202.691 113.032  1.00  0.00    -0.352 N 
HETATM   23  C17 UNL     1     -16.698 202.812 113.009  1.00  0.00     0.126 C 
HETATM   24  C20 UNL     1     -14.806 203.088 111.718  1.00  0.00     0.126 C 
HETATM   25  C18 UNL     1     -17.012 203.869 111.970  1.00  0.00     0.021 C 
HETATM   26  C19 UNL     1     -15.663 204.340 111.468  1.00  0.00     0.021 C 
ENDBRANCH  10  20
TORSDOF 5
ENDMDL
MODEL 5
REMARK VINA RESULT: -8.026611606      1.483      2.221
REMARK  5 active torsions:
REMARK  status: ('A' for Active; 'I' for Inactive)
REMARK       I    between atoms: C1_2  and  N1_3 
REMARK    1  A    between atoms: C1_2  and  O2_9 
REMARK    2  A    between atoms: N1_3  and  C2_5 
REMARK    3  A    between atoms: C2_5  and  C3_6 
REMARK    4  A    between atoms: O2_9  and  C6_10 
REMARK    5  A    between atoms: C15_19  and  C16_20 
REMARK       I    between atoms: C16_20  and  N2_22 
ROOT
HETATM    1  C6  UNL     1     -12.458 202.963 115.811  1.00  0.00     0.142 C 
HETATM    2  C7  UNL     1     -12.050 203.056 114.353  1.00  0.00     0.016 C 
HETATM    3  C8  UNL     1     -11.874 204.494 113.931  1.00  0.00     0.012 C 
HETATM    4  C9  UNL     1     -10.785 205.122 114.727  1.00  0.00    -0.000 C 
HETATM    5  C10 UNL     1     -11.248 205.135 116.184  1.00  0.00     0.012 C 
HETATM    6  C11 UNL     1     -11.454 203.726 116.652  1.00  0.00     0.016 C 
HETATM    7  C12 UNL     1     -10.147 202.965 116.568  1.00  0.00     0.012 C 
HETATM    8  C13 UNL     1      -9.699 202.935 115.119  1.00  0.00    -0.000 C 
HETATM    9  C14 UNL     1     -10.740 202.313 114.212  1.00  0.00     0.012 C 
HETATM   10  C15 UNL     1      -9.470 204.385 114.704  1.00  0.00     0.086 C 
ENDROOT
BRANCH   1  11
HETATM   11  O2  UNL     1     -13.772 203.366 116.038  1.00  0.00    -0.298 OA
BRANCH  11  12
HETATM   12  C1  UNL     1     -14.804 202.986 115.190  1.00  0.00     0.360 C 
HETATM   13  O1  UNL     1     -15.231 201.808 115.342  1.00  0.00    -0.239 OA
HETATM   14  N1  UNL     1     -15.359 203.845 114.211  1.00  0.00    -0.337 N 
ATOM     15  H1  UNL     1     -15.009 204.795 114.093  1.00  0.00     0.164 HD
BRANCH  14  16
HETATM   16  C2  UNL     1     -16.429 203.347 113.384  1.00  0.00     0.129 C 
BRANCH  16  17
HETATM   17  C3  UNL     1     -15.962 202.894 112.033  1.00  0.00     0.003 A 
HETATM   18  C4  UNL     1     -14.553 203.096 111.605  1.00  0.00     0.007 A 
HETATM   19  C5  UNL     1     -15.600 203.934 110.982  1.00  0.00     0.007 A 
ENDBRANCH  16  17
ENDBRANCH  14  16
ENDBRANCH  11  12
ENDBRANCH   1  11
BRANCH  10  20
HETATM   20  C16 UNL     1      -8.787 204.499 113.400  1.00  0.00     0.224 C 
HETATM   21  O3  UNL     1      -9.494 204.743 112.361  1.00  0.00    -0.273 OA
HETATM   22  N2  UNL     1      -7.399 204.358 113.206  1.00  0.00    -0.352 N 
HETATM   23  C17 UNL     1      -6.678 204.430 111.952  1.00  0.00     0.126 C 
HETATM   24  C20 UNL     1      -6.400 204.123 114.222  1.00  0.00     0.126 C 
HETATM   25  C18 UNL     1      -5.278 204.894 112.301  1.00  0.00     0.021 C 
HETATM   26  C19 UNL     1      -5.298 205.109 113.800  1.00  0.00     0.021 C 
ENDBRANCH  10  20
TORSDOF 5
ENDMDL
