MODEL 1
REMARK VINA RESULT: -8.072632887      0.000      0.000
REMARK  14 active torsions:
REMARK  status: ('A' for Active; 'I' for Inactive)
REMARK    1  A    between atoms: C2_2  and  C4_4 
REMARK    2  A    between atoms: C4_4  and  C5_5 
REMARK    3  A    between atoms: C6_8  and  O1_9 
REMARK    4  A    between atoms: C8_13  and  C9_14 
REMARK    5  A    between atoms: C9_14  and  C10_15 
REMARK    6  A    between atoms: C10_15  and  C11_16 
REMARK    7  A    between atoms: N2_17  and  N3_19 
REMARK    8  A    between atoms: C13_26  and  C14_27 
REMARK    9  A    between atoms: C14_27  and  C15_28 
REMARK   10  A    between atoms: C19_33  and  O4_34 
REMARK   11  A    between atoms: C20_36  and  C21_37 
REMARK   12  A    between atoms: C21_37  and  C22_38 
REMARK   13  A    between atoms: C26_45  and  C27_46 
REMARK   14  A    between atoms: C27_46  and  C28_47 
ROOT
HETATM    1  C5  UNL     1       8.302  26.778   6.931  1.00  0.00     0.176 C 
HETATM    2  N1  UNL     1       9.143  27.208   5.806  1.00  0.00    -0.355 N 
ATOM      3  H1  UNL     1      10.124  27.400   6.010  1.00  0.00     0.162 HD
HETATM    4  C6  UNL     1       8.726  27.381   4.478  1.00  0.00     0.185 C 
HETATM    5  C7  UNL     1       8.033  26.489   3.615  1.00  0.00     0.222 C 
HETATM    6  O2  UNL     1       7.450  26.991   2.582  1.00  0.00    -0.286 OA
HETATM    7  C8  UNL     1       7.871  25.024   3.716  1.00  0.00     0.163 C 
HETATM    8  N4  UNL     1       7.365  24.397   2.512  1.00  0.00    -0.344 N 
ATOM      9  H4  UNL     1       7.949  23.648   2.138  1.00  0.00     0.163 HD
HETATM   10  C12 UNL     1       6.215  24.654   1.788  1.00  0.00     0.264 C 
HETATM   11  O3  UNL     1       6.380  25.000   0.551  1.00  0.00    -0.266 OA
HETATM   12  C13 UNL     1       4.779  24.590   2.224  1.00  0.00     0.081 C 
HETATM   13  N5  UNL     1       4.126  25.855   2.231  1.00  0.00    -0.329 N 
HETATM   14  C18 UNL     1       3.602  26.258   0.872  1.00  0.00     0.158 C 
HETATM   15  C19 UNL     1       3.884  26.830   3.203  1.00  0.00     0.165 C 
HETATM   16  C20 UNL     1       3.557  26.826   4.626  1.00  0.00     0.063 C 
HETATM   17  N6  UNL     1       4.641  26.527   5.543  1.00  0.00    -0.325 N 
ATOM     18  H6  UNL     1       5.163  25.669   5.363  1.00  0.00     0.169 HD
HETATM   19  C25 UNL     1       5.055  27.293   6.659  1.00  0.00     0.244 C 
HETATM   20  O5  UNL     1       5.048  26.773   7.846  1.00  0.00    -0.271 OA
HETATM   21  C26 UNL     1       5.511  28.677   6.604  1.00  0.00     0.177 C 
HETATM   22  N7  UNL     1       6.845  28.915   7.094  1.00  0.00    -0.346 N 
ATOM     23  H7  UNL     1       7.151  29.887   7.063  1.00  0.00     0.163 HD
HETATM   24  C31 UNL     1       7.783  28.009   7.607  1.00  0.00     0.241 C 
HETATM   25  O6  UNL     1       8.246  28.246   8.748  1.00  0.00    -0.271 OA
ENDROOT
BRANCH   7  26
HETATM   26  C9  UNL     1       9.282  24.480   3.989  1.00  0.00     0.038 C 
BRANCH  26  27
HETATM   27  C10 UNL     1      10.119  24.694   2.720  1.00  0.00     0.048 C 
BRANCH  27  28
HETATM   28  C11 UNL     1      11.562  24.704   3.038  1.00  0.00     0.079 C 
HETATM   29  N2  UNL     1      12.061  25.514   3.893  1.00  0.00    -0.322 N 
ATOM     30  H2  UNL     1      11.445  26.173   4.369  1.00  0.00     0.185 HD
BRANCH  29  31
HETATM   31  N3  UNL     1      13.409  25.522   4.190  1.00  0.00    -0.346 N 
ATOM     32  H32 UNL     1      14.006  24.841   3.723  1.00  0.00     0.176 HD
ATOM     33  H31 UNL     1      13.811  26.182   4.855  1.00  0.00     0.176 HD
ENDBRANCH  29  31
ENDBRANCH  27  28
ENDBRANCH  26  27
ENDBRANCH   7  26
BRANCH   4  34
HETATM   34  O1  UNL     1       9.012  28.531   3.943  1.00  0.00    -0.344 OA
ATOM     35  H1  UNL     1       9.220  28.514   3.016  1.00  0.00     0.219 HD
ENDBRANCH   4  34
BRANCH  12  36
HETATM   36  C14 UNL     1       4.504  23.574   3.257  1.00  0.00     0.067 C 
BRANCH  36  37
HETATM   37  C15 UNL     1       3.339  22.640   2.846  1.00  0.00    -0.017 C 
HETATM   38  C16 UNL     1       3.386  21.368   3.637  1.00  0.00     0.010 C 
HETATM   39  C17 UNL     1       2.011  23.351   3.007  1.00  0.00     0.010 C 
ENDBRANCH  36  37
ENDBRANCH  12  36
BRANCH   1  40
HETATM   40  C4  UNL     1       9.204  26.028   7.846  1.00  0.00     0.038 C 
BRANCH  40  41
HETATM   41  C2  UNL     1      10.637  25.918   7.498  1.00  0.00    -0.020 C 
HETATM   42  C1  UNL     1      11.511  26.404   8.659  1.00  0.00     0.009 C 
HETATM   43  C3  UNL     1      11.012  24.443   7.309  1.00  0.00     0.009 C 
ENDBRANCH  40  41
ENDBRANCH   1  40
BRANCH  15  44
HETATM   44  O4  UNL     1       3.969  28.071   2.739  1.00  0.00    -0.344 OA
ATOM     45  H4  UNL     1       4.862  28.382   2.650  1.00  0.00     0.219 HD
ENDBRANCH  15  44
BRANCH  16  46
HETATM   46  C21 UNL     1       2.289  26.228   5.103  1.00  0.00     0.065 C 
BRANCH  46  47
HETATM   47  C22 UNL     1       1.359  26.987   5.936  1.00  0.00    -0.017 C 
HETATM   48  C23 UNL     1       1.494  26.819   7.408  1.00  0.00     0.010 C 
HETATM   49  C24 UNL     1      -0.104  26.825   5.586  1.00  0.00     0.010 C 
ENDBRANCH  46  47
ENDBRANCH  16  46
BRANCH  21  50
HETATM   50  C27 UNL     1       4.483  29.482   7.400  1.00  0.00     0.038 C 
BRANCH  50  51
HETATM   51  C28 UNL     1       3.438  30.105   6.543  1.00  0.00    -0.020 C 
HETATM   52  C29 UNL     1       4.068  31.367   5.939  1.00  0.00     0.009 C 
HETATM   53  C30 UNL     1       2.251  30.476   7.377  1.00  0.00     0.009 C 
ENDBRANCH  50  51
ENDBRANCH  21  50
TORSDOF 14
ENDMDL
MODEL 2
REMARK VINA RESULT: -7.683205785      0.935      1.243
REMARK  14 active torsions:
REMARK  status: ('A' for Active; 'I' for Inactive)
REMARK    1  A    between atoms: C2_2  and  C4_4 
REMARK    2  A    between atoms: C4_4  and  C5_5 
REMARK    3  A    between atoms: C6_8  and  O1_9 
REMARK    4  A    between atoms: C8_13  and  C9_14 
REMARK    5  A    between atoms: C9_14  and  C10_15 
REMARK    6  A    between atoms: C10_15  and  C11_16 
REMARK    7  A    between atoms: N2_17  and  N3_19 
REMARK    8  A    between atoms: C13_26  and  C14_27 
REMARK    9  A    between atoms: C14_27  and  C15_28 
REMARK   10  A    between atoms: C19_33  and  O4_34 
REMARK   11  A    between atoms: C20_36  and  C21_37 
REMARK   12  A    between atoms: C21_37  and  C22_38 
REMARK   13  A    between atoms: C26_45  and  C27_46 
REMARK   14  A    between atoms: C27_46  and  C28_47 
ROOT
HETATM    1  C5  UNL     1       8.626  27.079   6.362  1.00  0.00     0.176 C 
HETATM    2  N1  UNL     1       9.235  27.552   5.111  1.00  0.00    -0.355 N 
ATOM      3  H1  UNL     1      10.213  27.840   5.153  1.00  0.00     0.162 HD
HETATM    4  C6  UNL     1       8.599  27.646   3.864  1.00  0.00     0.185 C 
HETATM    5  C7  UNL     1       7.869  26.668   3.135  1.00  0.00     0.222 C 
HETATM    6  O2  UNL     1       7.084  27.084   2.202  1.00  0.00    -0.286 OA
HETATM    7  C8  UNL     1       7.867  25.198   3.281  1.00  0.00     0.163 C 
HETATM    8  N4  UNL     1       7.241  24.491   2.182  1.00  0.00    -0.344 N 
ATOM      9  H4  UNL     1       7.828  23.790   1.732  1.00  0.00     0.163 HD
HETATM   10  C12 UNL     1       5.972  24.619   1.648  1.00  0.00     0.264 C 
HETATM   11  O3  UNL     1       5.906  24.942   0.396  1.00  0.00    -0.266 OA
HETATM   12  C13 UNL     1       4.636  24.434   2.308  1.00  0.00     0.081 C 
HETATM   13  N5  UNL     1       3.872  25.632   2.401  1.00  0.00    -0.329 N 
HETATM   14  C18 UNL     1       3.105  25.945   1.137  1.00  0.00     0.158 C 
HETATM   15  C19 UNL     1       3.693  26.609   3.385  1.00  0.00     0.165 C 
HETATM   16  C20 UNL     1       3.596  26.616   4.842  1.00  0.00     0.063 C 
HETATM   17  N6  UNL     1       4.835  26.446   5.578  1.00  0.00    -0.325 N 
ATOM     18  H6  UNL     1       5.402  25.636   5.330  1.00  0.00     0.169 HD
HETATM   19  C25 UNL     1       5.343  27.280   6.604  1.00  0.00     0.244 C 
HETATM   20  O5  UNL     1       5.573  26.797   7.784  1.00  0.00    -0.271 OA
HETATM   21  C26 UNL     1       5.649  28.698   6.457  1.00  0.00     0.177 C 
HETATM   22  N7  UNL     1       7.014  29.075   6.724  1.00  0.00    -0.346 N 
ATOM     23  H7  UNL     1       7.216  30.070   6.631  1.00  0.00     0.163 HD
HETATM   24  C31 UNL     1       8.104  28.276   7.094  1.00  0.00     0.241 C 
HETATM   25  O6  UNL     1       8.715  28.588   8.143  1.00  0.00    -0.271 OA
ENDROOT
BRANCH   7  26
HETATM   26  C9  UNL     1       9.350  24.796   3.334  1.00  0.00     0.038 C 
BRANCH  26  27
HETATM   27  C10 UNL     1       9.436  23.290   3.050  1.00  0.00     0.048 C 
BRANCH  27  28
HETATM   28  C11 UNL     1      10.818  22.801   3.226  1.00  0.00     0.079 C 
HETATM   29  N2  UNL     1      11.834  23.515   2.918  1.00  0.00    -0.322 N 
ATOM     30  H2  UNL     1      11.685  24.450   2.538  1.00  0.00     0.185 HD
BRANCH  29  31
HETATM   31  N3  UNL     1      13.125  23.058   3.083  1.00  0.00    -0.346 N 
ATOM     32  H32 UNL     1      13.337  22.514   3.919  1.00  0.00     0.176 HD
ATOM     33  H31 UNL     1      13.857  23.249   2.399  1.00  0.00     0.176 HD
ENDBRANCH  29  31
ENDBRANCH  27  28
ENDBRANCH  26  27
ENDBRANCH   7  26
BRANCH   4  34
HETATM   34  O1  UNL     1       8.684  28.802   3.273  1.00  0.00    -0.344 OA
ATOM     35  H1  UNL     1       9.146  28.807   2.443  1.00  0.00     0.219 HD
ENDBRANCH   4  34
BRANCH  12  36
HETATM   36  C14 UNL     1       4.626  23.428   3.386  1.00  0.00     0.067 C 
BRANCH  36  37
HETATM   37  C15 UNL     1       3.325  22.587   3.374  1.00  0.00    -0.017 C 
HETATM   38  C16 UNL     1       2.834  22.404   1.971  1.00  0.00     0.010 C 
HETATM   39  C17 UNL     1       3.549  21.259   4.069  1.00  0.00     0.010 C 
ENDBRANCH  36  37
ENDBRANCH  12  36
BRANCH   1  40
HETATM   40  C4  UNL     1       9.730  26.443   7.132  1.00  0.00     0.038 C 
BRANCH  40  41
HETATM   41  C2  UNL     1       9.535  25.072   7.651  1.00  0.00    -0.020 C 
HETATM   42  C1  UNL     1      10.886  24.373   7.841  1.00  0.00     0.009 C 
HETATM   43  C3  UNL     1       8.919  25.132   9.054  1.00  0.00     0.009 C 
ENDBRANCH  40  41
ENDBRANCH   1  40
BRANCH  15  44
HETATM   44  O4  UNL     1       3.584  27.838   2.896  1.00  0.00    -0.344 OA
ATOM     45  H4  UNL     1       4.378  28.352   2.982  1.00  0.00     0.219 HD
ENDBRANCH  15  44
BRANCH  16  46
HETATM   46  C21 UNL     1       2.483  25.917   5.523  1.00  0.00     0.065 C 
BRANCH  46  47
HETATM   47  C22 UNL     1       1.457  26.657   6.255  1.00  0.00    -0.017 C 
HETATM   48  C23 UNL     1       0.944  27.897   5.611  1.00  0.00     0.010 C 
HETATM   49  C24 UNL     1       1.798  26.991   7.690  1.00  0.00     0.010 C 
ENDBRANCH  46  47
ENDBRANCH  16  46
BRANCH  21  50
HETATM   50  C27 UNL     1       4.685  29.427   7.395  1.00  0.00     0.038 C 
BRANCH  50  51
HETATM   51  C28 UNL     1       3.624  30.181   6.673  1.00  0.00    -0.020 C 
HETATM   52  C29 UNL     1       4.300  31.427   6.086  1.00  0.00     0.009 C 
HETATM   53  C30 UNL     1       2.548  30.587   7.631  1.00  0.00     0.009 C 
ENDBRANCH  50  51
ENDBRANCH  21  50
TORSDOF 14
ENDMDL
MODEL 3
REMARK VINA RESULT: -7.495754633     11.096     16.709
REMARK  14 active torsions:
REMARK  status: ('A' for Active; 'I' for Inactive)
REMARK    1  A    between atoms: C2_2  and  C4_4 
REMARK    2  A    between atoms: C4_4  and  C5_5 
REMARK    3  A    between atoms: C6_8  and  O1_9 
REMARK    4  A    between atoms: C8_13  and  C9_14 
REMARK    5  A    between atoms: C9_14  and  C10_15 
REMARK    6  A    between atoms: C10_15  and  C11_16 
REMARK    7  A    between atoms: N2_17  and  N3_19 
REMARK    8  A    between atoms: C13_26  and  C14_27 
REMARK    9  A    between atoms: C14_27  and  C15_28 
REMARK   10  A    between atoms: C19_33  and  O4_34 
REMARK   11  A    between atoms: C20_36  and  C21_37 
REMARK   12  A    between atoms: C21_37  and  C22_38 
REMARK   13  A    between atoms: C26_45  and  C27_46 
REMARK   14  A    between atoms: C27_46  and  C28_47 
ROOT
HETATM    1  C5  UNL     1      16.878  18.787   5.179  1.00  0.00     0.176 C 
HETATM    2  N1  UNL     1      17.399  20.069   5.673  1.00  0.00    -0.355 N 
ATOM      3  H1  UNL     1      17.163  20.902   5.134  1.00  0.00     0.162 HD
HETATM    4  C6  UNL     1      18.192  20.256   6.815  1.00  0.00     0.185 C 
HETATM    5  C7  UNL     1      17.979  19.830   8.155  1.00  0.00     0.222 C 
HETATM    6  O2  UNL     1      18.999  19.804   8.940  1.00  0.00    -0.286 OA
HETATM    7  C8  UNL     1      16.729  19.398   8.813  1.00  0.00     0.163 C 
HETATM    8  N4  UNL     1      16.813  19.322  10.258  1.00  0.00    -0.344 N 
ATOM      9  H4  UNL     1      16.116  19.872  10.759  1.00  0.00     0.163 HD
HETATM   10  C12 UNL     1      17.691  18.620  11.064  1.00  0.00     0.264 C 
HETATM   11  O3  UNL     1      18.406  19.324  11.883  1.00  0.00    -0.266 OA
HETATM   12  C13 UNL     1      17.944  17.142  11.138  1.00  0.00     0.081 C 
HETATM   13  N5  UNL     1      19.250  16.763  10.716  1.00  0.00    -0.329 N 
HETATM   14  C18 UNL     1      20.289  16.905  11.804  1.00  0.00     0.158 C 
HETATM   15  C19 UNL     1      19.803  16.318   9.511  1.00  0.00     0.165 C 
HETATM   16  C20 UNL     1      19.365  15.450   8.421  1.00  0.00     0.063 C 
HETATM   17  N6  UNL     1      18.400  16.008   7.493  1.00  0.00    -0.325 N 
ATOM     18  H6  UNL     1      17.555  16.406   7.902  1.00  0.00     0.169 HD
HETATM   19  C25 UNL     1      18.499  16.059   6.081  1.00  0.00     0.244 C 
HETATM   20  O5  UNL     1      17.601  15.489   5.342  1.00  0.00    -0.271 OA
HETATM   21  C26 UNL     1      19.565  16.724   5.340  1.00  0.00     0.177 C 
HETATM   22  N7  UNL     1      19.143  17.768   4.440  1.00  0.00    -0.346 N 
ATOM     23  H7  UNL     1      19.893  18.219   3.916  1.00  0.00     0.163 HD
HETATM   24  C31 UNL     1      17.856  18.254   4.178  1.00  0.00     0.241 C 
HETATM   25  O6  UNL     1      17.472  18.252   2.983  1.00  0.00    -0.271 OA
ENDROOT
BRANCH   7  26
HETATM   26  C9  UNL     1      15.689  20.467   8.444  1.00  0.00     0.038 C 
BRANCH  26  27
HETATM   27  C10 UNL     1      16.030  21.742   9.229  1.00  0.00     0.048 C 
BRANCH  27  28
HETATM   28  C11 UNL     1      15.764  22.946   8.417  1.00  0.00     0.079 C 
HETATM   29  N2  UNL     1      15.955  22.966   7.152  1.00  0.00    -0.322 N 
ATOM     30  H2  UNL     1      16.303  22.125   6.691  1.00  0.00     0.185 HD
BRANCH  29  31
HETATM   31  N3  UNL     1      15.705  24.091   6.393  1.00  0.00    -0.346 N 
ATOM     32  H32 UNL     1      16.347  24.879   6.479  1.00  0.00     0.176 HD
ATOM     33  H31 UNL     1      14.907  24.149   5.761  1.00  0.00     0.176 HD
ENDBRANCH  29  31
ENDBRANCH  27  28
ENDBRANCH  26  27
ENDBRANCH   7  26
BRANCH   4  34
HETATM   34  O1  UNL     1      19.295  20.921   6.633  1.00  0.00    -0.344 OA
ATOM     35  H1  UNL     1      20.077  20.396   6.511  1.00  0.00     0.219 HD
ENDBRANCH   4  34
BRANCH  12  36
HETATM   36  C14 UNL     1      16.765  16.309  10.839  1.00  0.00     0.067 C 
BRANCH  36  37
HETATM   37  C15 UNL     1      15.766  16.285  12.022  1.00  0.00    -0.017 C 
HETATM   38  C16 UNL     1      14.423  15.806  11.562  1.00  0.00     0.010 C 
HETATM   39  C17 UNL     1      16.307  15.434  13.153  1.00  0.00     0.010 C 
ENDBRANCH  36  37
ENDBRANCH  12  36
BRANCH   1  40
HETATM   40  C4  UNL     1      15.584  19.105   4.518  1.00  0.00     0.038 C 
BRANCH  40  41
HETATM   41  C2  UNL     1      15.200  20.525   4.355  1.00  0.00    -0.020 C 
HETATM   42  C1  UNL     1      14.770  20.802   2.910  1.00  0.00     0.009 C 
HETATM   43  C3  UNL     1      13.959  20.826   5.203  1.00  0.00     0.009 C 
ENDBRANCH  40  41
ENDBRANCH   1  40
BRANCH  15  44
HETATM   44  O4  UNL     1      21.023  16.789   9.284  1.00  0.00    -0.344 OA
ATOM     45  H4  UNL     1      21.231  17.563   9.793  1.00  0.00     0.219 HD
ENDBRANCH  15  44
BRANCH  16  46
HETATM   46  C21 UNL     1      19.087  14.017   8.667  1.00  0.00     0.065 C 
BRANCH  46  47
HETATM   47  C22 UNL     1      20.003  12.976   8.206  1.00  0.00    -0.017 C 
HETATM   48  C23 UNL     1      19.887  12.572   6.778  1.00  0.00     0.010 C 
HETATM   49  C24 UNL     1      20.024  11.716   9.041  1.00  0.00     0.010 C 
ENDBRANCH  46  47
ENDBRANCH  16  46
BRANCH  21  50
HETATM   50  C27 UNL     1      20.297  15.613   4.585  1.00  0.00     0.038 C 
BRANCH  50  51
HETATM   51  C28 UNL     1      21.778  15.711   4.694  1.00  0.00    -0.020 C 
HETATM   52  C29 UNL     1      22.345  14.433   4.062  1.00  0.00     0.009 C 
HETATM   53  C30 UNL     1      22.177  15.787   6.135  1.00  0.00     0.009 C 
ENDBRANCH  50  51
ENDBRANCH  21  50
TORSDOF 14
ENDMDL
MODEL 4
REMARK VINA RESULT: -6.660978463      2.843      4.787
REMARK  14 active torsions:
REMARK  status: ('A' for Active; 'I' for Inactive)
REMARK    1  A    between atoms: C2_2  and  C4_4 
REMARK    2  A    between atoms: C4_4  and  C5_5 
REMARK    3  A    between atoms: C6_8  and  O1_9 
REMARK    4  A    between atoms: C8_13  and  C9_14 
REMARK    5  A    between atoms: C9_14  and  C10_15 
REMARK    6  A    between atoms: C10_15  and  C11_16 
REMARK    7  A    between atoms: N2_17  and  N3_19 
REMARK    8  A    between atoms: C13_26  and  C14_27 
REMARK    9  A    between atoms: C14_27  and  C15_28 
REMARK   10  A    between atoms: C19_33  and  O4_34 
REMARK   11  A    between atoms: C20_36  and  C21_37 
REMARK   12  A    between atoms: C21_37  and  C22_38 
REMARK   13  A    between atoms: C26_45  and  C27_46 
REMARK   14  A    between atoms: C27_46  and  C28_47 
ROOT
HETATM    1  C5  UNL     1      12.263  23.696   6.919  1.00  0.00     0.176 C 
HETATM    2  N1  UNL     1      13.189  24.009   5.821  1.00  0.00    -0.355 N 
ATOM      3  H1  UNL     1      14.141  23.654   5.905  1.00  0.00     0.162 HD
HETATM    4  C6  UNL     1      12.886  24.751   4.670  1.00  0.00     0.185 C 
HETATM    5  C7  UNL     1      11.831  24.591   3.730  1.00  0.00     0.222 C 
HETATM    6  O2  UNL     1      11.551  25.594   2.972  1.00  0.00    -0.286 OA
HETATM    7  C8  UNL     1      10.976  23.414   3.475  1.00  0.00     0.163 C 
HETATM    8  N4  UNL     1      10.207  23.492   2.248  1.00  0.00    -0.344 N 
ATOM      9  H4  UNL     1      10.344  22.714   1.605  1.00  0.00     0.163 HD
HETATM   10  C12 UNL     1       9.317  24.458   1.814  1.00  0.00     0.264 C 
HETATM   11  O3  UNL     1       9.609  25.048   0.699  1.00  0.00    -0.266 OA
HETATM   12  C13 UNL     1       8.041  24.933   2.447  1.00  0.00     0.081 C 
HETATM   13  N5  UNL     1       8.090  26.286   2.887  1.00  0.00    -0.329 N 
HETATM   14  C18 UNL     1       7.808  27.279   1.783  1.00  0.00     0.158 C 
HETATM   15  C19 UNL     1       8.373  26.914   4.104  1.00  0.00     0.165 C 
HETATM   16  C20 UNL     1       8.109  26.627   5.512  1.00  0.00     0.063 C 
HETATM   17  N6  UNL     1       8.924  25.598   6.130  1.00  0.00    -0.325 N 
ATOM     18  H6  UNL     1       8.957  24.698   5.652  1.00  0.00     0.169 HD
HETATM   19  C25 UNL     1       9.678  25.705   7.323  1.00  0.00     0.244 C 
HETATM   20  O5  UNL     1       9.438  24.913   8.320  1.00  0.00    -0.271 OA
HETATM   21  C26 UNL     1      10.752  26.664   7.554  1.00  0.00     0.177 C 
HETATM   22  N7  UNL     1      12.040  26.099   7.864  1.00  0.00    -0.346 N 
ATOM     23  H7  UNL     1      12.783  26.777   8.036  1.00  0.00     0.163 HD
HETATM   24  C31 UNL     1      12.424  24.755   7.965  1.00  0.00     0.241 C 
HETATM   25  O6  UNL     1      12.963  24.390   9.037  1.00  0.00    -0.271 OA
ENDROOT
BRANCH   7  26
HETATM   26  C9  UNL     1      11.945  22.227   3.364  1.00  0.00     0.038 C 
BRANCH  26  27
HETATM   27  C10 UNL     1      13.151  22.684   2.531  1.00  0.00     0.048 C 
BRANCH  27  28
HETATM   28  C11 UNL     1      14.345  21.874   2.846  1.00  0.00     0.079 C 
HETATM   29  N2  UNL     1      14.376  20.610   2.649  1.00  0.00    -0.322 N 
ATOM     30  H2  UNL     1      13.552  20.148   2.263  1.00  0.00     0.185 HD
BRANCH  29  31
HETATM   31  N3  UNL     1      15.492  19.853   2.942  1.00  0.00    -0.346 N 
ATOM     32  H32 UNL     1      16.338  20.016   2.398  1.00  0.00     0.176 HD
ATOM     33  H31 UNL     1      15.486  19.147   3.678  1.00  0.00     0.176 HD
ENDBRANCH  29  31
ENDBRANCH  27  28
ENDBRANCH  26  27
ENDBRANCH   7  26
BRANCH   4  34
HETATM   34  O1  UNL     1      13.689  25.741   4.410  1.00  0.00    -0.344 OA
ATOM     35  H1  UNL     1      14.609  25.517   4.339  1.00  0.00     0.219 HD
ENDBRANCH   4  34
BRANCH  12  36
HETATM   36  C14 UNL     1       7.323  23.899   3.213  1.00  0.00     0.067 C 
BRANCH  36  37
HETATM   37  C15 UNL     1       5.813  24.224   3.340  1.00  0.00    -0.017 C 
HETATM   38  C16 UNL     1       5.284  24.764   2.046  1.00  0.00     0.010 C 
HETATM   39  C17 UNL     1       5.046  22.998   3.792  1.00  0.00     0.010 C 
ENDBRANCH  36  37
ENDBRANCH  12  36
BRANCH   1  40
HETATM   40  C4  UNL     1      12.699  22.376   7.449  1.00  0.00     0.038 C 
BRANCH  40  41
HETATM   41  C2  UNL     1      14.087  21.932   7.196  1.00  0.00    -0.020 C 
HETATM   42  C1  UNL     1      14.743  21.452   8.495  1.00  0.00     0.009 C 
HETATM   43  C3  UNL     1      14.077  20.702   6.279  1.00  0.00     0.009 C 
ENDBRANCH  40  41
ENDBRANCH   1  40
BRANCH  15  44
HETATM   44  O4  UNL     1       9.046  28.050   3.969  1.00  0.00    -0.344 OA
ATOM     45  H4  UNL     1       8.652  28.781   4.432  1.00  0.00     0.219 HD
ENDBRANCH  15  44
BRANCH  16  46
HETATM   46  C21 UNL     1       6.719  26.568   6.018  1.00  0.00     0.065 C 
BRANCH  46  47
HETATM   47  C22 UNL     1       5.804  27.695   5.853  1.00  0.00    -0.017 C 
HETATM   48  C23 UNL     1       5.066  28.137   7.068  1.00  0.00     0.010 C 
HETATM   49  C24 UNL     1       4.800  27.554   4.730  1.00  0.00     0.010 C 
ENDBRANCH  46  47
ENDBRANCH  16  46
BRANCH  21  50
HETATM   50  C27 UNL     1      10.262  27.567   8.688  1.00  0.00     0.038 C 
BRANCH  50  51
HETATM   51  C28 UNL     1       8.810  27.881   8.598  1.00  0.00    -0.020 C 
HETATM   52  C29 UNL     1       8.678  29.043   7.605  1.00  0.00     0.009 C 
HETATM   53  C30 UNL     1       8.297  28.297   9.942  1.00  0.00     0.009 C 
ENDBRANCH  50  51
ENDBRANCH  21  50
TORSDOF 14
ENDMDL
MODEL 5
REMARK VINA RESULT: -5.691005617      2.144      8.172
REMARK  14 active torsions:
REMARK  status: ('A' for Active; 'I' for Inactive)
REMARK    1  A    between atoms: C2_2  and  C4_4 
REMARK    2  A    between atoms: C4_4  and  C5_5 
REMARK    3  A    between atoms: C6_8  and  O1_9 
REMARK    4  A    between atoms: C8_13  and  C9_14 
REMARK    5  A    between atoms: C9_14  and  C10_15 
REMARK    6  A    between atoms: C10_15  and  C11_16 
REMARK    7  A    between atoms: N2_17  and  N3_19 
REMARK    8  A    between atoms: C13_26  and  C14_27 
REMARK    9  A    between atoms: C14_27  and  C15_28 
REMARK   10  A    between atoms: C19_33  and  O4_34 
REMARK   11  A    between atoms: C20_36  and  C21_37 
REMARK   12  A    between atoms: C21_37  and  C22_38 
REMARK   13  A    between atoms: C26_45  and  C27_46 
REMARK   14  A    between atoms: C27_46  and  C28_47 
ROOT
HETATM    1  C5  UNL     1       3.436  25.889   3.645  1.00  0.00     0.176 C 
HETATM    2  N1  UNL     1       3.099  27.260   4.050  1.00  0.00    -0.355 N 
ATOM      3  H1  UNL     1       2.144  27.573   3.872  1.00  0.00     0.162 HD
HETATM    4  C6  UNL     1       3.965  28.180   4.658  1.00  0.00     0.185 C 
HETATM    5  C7  UNL     1       4.780  28.042   5.816  1.00  0.00     0.222 C 
HETATM    6  O2  UNL     1       5.745  28.880   5.968  1.00  0.00    -0.286 OA
HETATM    7  C8  UNL     1       4.691  27.054   6.911  1.00  0.00     0.163 C 
HETATM    8  N4  UNL     1       5.485  27.386   8.077  1.00  0.00    -0.344 N 
ATOM      9  H4  UNL     1       4.966  27.429   8.953  1.00  0.00     0.163 HD
HETATM   10  C12 UNL     1       6.837  27.653   8.187  1.00  0.00     0.264 C 
HETATM   11  O3  UNL     1       7.156  28.816   8.660  1.00  0.00    -0.266 OA
HETATM   12  C13 UNL     1       8.013  26.786   7.839  1.00  0.00     0.081 C 
HETATM   13  N5  UNL     1       8.795  27.287   6.760  1.00  0.00    -0.329 N 
HETATM   14  C18 UNL     1       9.803  28.327   7.191  1.00  0.00     0.158 C 
HETATM   15  C19 UNL     1       8.823  27.062   5.380  1.00  0.00     0.165 C 
HETATM   16  C20 UNL     1       8.640  25.906   4.508  1.00  0.00     0.063 C 
HETATM   17  N6  UNL     1       7.277  25.449   4.310  1.00  0.00    -0.325 N 
ATOM     18  H6  UNL     1       6.733  25.265   5.153  1.00  0.00     0.169 HD
HETATM   19  C25 UNL     1       6.618  25.230   3.076  1.00  0.00     0.244 C 
HETATM   20  O5  UNL     1       6.145  24.058   2.788  1.00  0.00    -0.271 OA
HETATM   21  C26 UNL     1       6.406  26.242   2.048  1.00  0.00     0.177 C 
HETATM   22  N7  UNL     1       5.032  26.499   1.697  1.00  0.00    -0.346 N 
ATOM     23  H7  UNL     1       4.894  27.199   0.968  1.00  0.00     0.163 HD
HETATM   24  C31 UNL     1       3.859  25.930   2.209  1.00  0.00     0.241 C 
HETATM   25  O6  UNL     1       3.071  25.401   1.389  1.00  0.00    -0.271 OA
ENDROOT
BRANCH   7  26
HETATM   26  C9  UNL     1       3.210  27.040   7.322  1.00  0.00     0.038 C 
BRANCH  26  27
HETATM   27  C10 UNL     1       2.945  28.302   8.157  1.00  0.00     0.048 C 
BRANCH  27  28
HETATM   28  C11 UNL     1       1.583  28.818   7.909  1.00  0.00     0.079 C 
HETATM   29  N2  UNL     1       1.132  29.000   6.726  1.00  0.00    -0.322 N 
ATOM     30  H2  UNL     1       1.731  28.783   5.929  1.00  0.00     0.185 HD
BRANCH  29  31
HETATM   31  N3  UNL     1      -0.140  29.482   6.496  1.00  0.00    -0.346 N 
ATOM     32  H32 UNL     1      -0.850  29.319   7.209  1.00  0.00     0.176 HD
ATOM     33  H31 UNL     1      -0.380  29.987   5.643  1.00  0.00     0.176 HD
ENDBRANCH  29  31
ENDBRANCH  27  28
ENDBRANCH  26  27
ENDBRANCH   7  26
BRANCH   4  34
HETATM   34  O1  UNL     1       4.044  29.345   4.084  1.00  0.00    -0.344 OA
ATOM     35  H1  UNL     1       4.893  29.769   4.127  1.00  0.00     0.219 HD
ENDBRANCH   4  34
BRANCH  12  36
HETATM   36  C14 UNL     1       7.773  25.342   8.012  1.00  0.00     0.067 C 
BRANCH  36  37
HETATM   37  C15 UNL     1       8.977  24.637   8.686  1.00  0.00    -0.017 C 
HETATM   38  C16 UNL     1      10.015  24.285   7.665  1.00  0.00     0.010 C 
HETATM   39  C17 UNL     1       9.547  25.507   9.789  1.00  0.00     0.010 C 
ENDBRANCH  36  37
ENDBRANCH  12  36
BRANCH   1  40
HETATM   40  C4  UNL     1       2.179  25.105   3.791  1.00  0.00     0.038 C 
BRANCH  40  41
HETATM   41  C2  UNL     1       0.894  25.832   3.876  1.00  0.00    -0.020 C 
HETATM   42  C1  UNL     1      -0.150  25.188   2.958  1.00  0.00     0.009 C 
HETATM   43  C3  UNL     1       0.316  25.697   5.290  1.00  0.00     0.009 C 
ENDBRANCH  40  41
ENDBRANCH   1  40
BRANCH  15  44
HETATM   44  O4  UNL     1       9.077  28.156   4.672  1.00  0.00    -0.344 OA
ATOM     45  H4  UNL     1       8.614  28.925   4.984  1.00  0.00     0.219 HD
ENDBRANCH  15  44
BRANCH  16  46
HETATM   46  C21 UNL     1       9.571  24.757   4.579  1.00  0.00     0.065 C 
BRANCH  46  47
HETATM   47  C22 UNL     1      10.246  24.253   3.385  1.00  0.00    -0.017 C 
HETATM   48  C23 UNL     1      10.656  25.266   2.374  1.00  0.00     0.010 C 
HETATM   49  C24 UNL     1       9.529  23.139   2.657  1.00  0.00     0.010 C 
ENDBRANCH  46  47
ENDBRANCH  16  46
BRANCH  21  50
HETATM   50  C27 UNL     1       7.202  25.765   0.831  1.00  0.00     0.038 C 
BRANCH  50  51
HETATM   51  C28 UNL     1       8.236  26.741   0.391  1.00  0.00    -0.020 C 
HETATM   52  C29 UNL     1       8.201  27.895   1.401  1.00  0.00     0.009 C 
HETATM   53  C30 UNL     1       7.903  27.250  -0.977  1.00  0.00     0.009 C 
ENDBRANCH  50  51
ENDBRANCH  21  50
TORSDOF 14
ENDMDL
