MODEL 1
REMARK VINA RESULT: -6.377122394      0.000      0.000
REMARK  11 active torsions:
REMARK  status: ('A' for Active; 'I' for Inactive)
REMARK    1  A    between atoms: C2_2  and  C3_3 
REMARK    2  A    between atoms: C3_3  and  C4_4 
REMARK    3  A    between atoms: C5_5  and  N1_6 
REMARK    4  A    between atoms: N1_6  and  C6_8 
REMARK    5  A    between atoms: C11_13  and  O1_14 
REMARK    6  A    between atoms: C12_18  and  C13_19 
REMARK    7  A    between atoms: C13_19  and  C14_20 
REMARK    8  A    between atoms: C22_35  and  C23_36 
REMARK    9  A    between atoms: C23_36  and  C24_37 
REMARK   10  A    between atoms: C28_44  and  C29_45 
REMARK   11  A    between atoms: C29_45  and  C30_46 
ROOT
HETATM    1  C4  UNL     1       9.067  25.807   5.367  1.00  0.00     0.114 C 
HETATM    2  C5  UNL     1       9.098  25.284   3.960  1.00  0.00     0.102 C 
HETATM    3  C9  UNL     1       8.821  26.668   3.278  1.00  0.00     0.060 C 
HETATM    4  C10 UNL     1       7.575  27.075   4.120  1.00  0.00     0.164 C 
HETATM    5  C11 UNL     1       6.431  26.737   3.302  1.00  0.00     0.135 C 
HETATM    6  N2  UNL     1       5.359  25.880   3.352  1.00  0.00    -0.359 N 
ATOM      7  H2  UNL     1       5.430  25.122   2.673  1.00  0.00     0.162 HD
HETATM    8  C12 UNL     1       4.158  25.807   4.143  1.00  0.00     0.177 C 
HETATM    9  C17 UNL     1       3.038  26.626   3.621  1.00  0.00     0.260 C 
HETATM   10  O2  UNL     1       3.058  26.979   2.423  1.00  0.00    -0.269 OA
HETATM   11  N3  UNL     1       1.937  27.035   4.418  1.00  0.00    -0.268 N 
HETATM   12  C18 UNL     1       0.779  27.520   3.705  1.00  0.00     0.180 C 
HETATM   13  N4  UNL     1       1.973  26.961   5.759  1.00  0.00    -0.319 N 
ATOM     14  H4  UNL     1       2.668  26.350   6.186  1.00  0.00     0.181 HD
HETATM   15  C19 UNL     1       1.124  27.666   6.598  1.00  0.00     0.187 C 
HETATM   16  C20 UNL     1      -0.359  27.337   6.474  1.00  0.00     0.044 C 
HETATM   17  C21 UNL     1       1.319  29.151   6.679  1.00  0.00     0.242 C 
HETATM   18  O3  UNL     1       0.357  29.722   7.310  1.00  0.00    -0.271 OA
HETATM   19  N5  UNL     1       2.345  29.918   6.184  1.00  0.00    -0.346 N 
ATOM     20  H5  UNL     1       2.050  30.728   5.640  1.00  0.00     0.163 HD
HETATM   21  C22 UNL     1       3.786  29.759   6.310  1.00  0.00     0.177 C 
HETATM   22  C27 UNL     1       4.143  28.971   7.517  1.00  0.00     0.241 C 
HETATM   23  O4  UNL     1       3.434  29.142   8.571  1.00  0.00    -0.271 OA
HETATM   24  N6  UNL     1       5.197  28.040   7.624  1.00  0.00    -0.346 N 
ATOM     25  H6  UNL     1       5.101  27.275   8.293  1.00  0.00     0.163 HD
HETATM   26  C28 UNL     1       6.381  28.111   6.850  1.00  0.00     0.177 C 
HETATM   27  C33 UNL     1       6.967  26.759   6.502  1.00  0.00     0.243 C 
HETATM   28  O5  UNL     1       6.664  25.822   7.264  1.00  0.00    -0.271 OA
HETATM   29  N7  UNL     1       7.802  26.557   5.399  1.00  0.00    -0.331 N 
ENDROOT
BRANCH   2  30
HETATM   30  N1  UNL     1      10.370  24.797   3.506  1.00  0.00    -0.412 N 
ATOM     31  H1  UNL     1      11.208  25.379   3.522  1.00  0.00     0.154 HD
BRANCH  30  32
HETATM   32  C6  UNL     1      10.395  23.450   3.030  1.00  0.00     0.068 C 
HETATM   33  C7  UNL     1      11.051  22.580   4.105  1.00  0.00     0.031 C 
HETATM   34  C8  UNL     1       8.942  22.939   2.882  1.00  0.00     0.031 C 
ENDBRANCH  30  32
ENDBRANCH   2  30
BRANCH   1  35
HETATM   35  C3  UNL     1       9.214  24.802   6.417  1.00  0.00     0.053 C 
BRANCH  35  36
HETATM   36  C2  UNL     1      10.522  24.955   7.115  1.00  0.00    -0.035 C 
HETATM   37  C1  UNL     1      10.440  25.098   8.472  1.00  0.00     0.007 C 
ENDBRANCH  35  36
ENDBRANCH   1  35
BRANCH   5  38
HETATM   38  O1  UNL     1       6.457  27.480   2.206  1.00  0.00    -0.348 OA
ATOM     39  H1  UNL     1       5.630  27.942   2.129  1.00  0.00     0.219 HD
ENDBRANCH   5  38
BRANCH  26  40
HETATM   40  C29 UNL     1       7.483  28.882   7.469  1.00  0.00     0.038 C 
BRANCH  40  41
HETATM   41  C30 UNL     1       8.386  28.151   8.416  1.00  0.00    -0.020 C 
HETATM   42  C31 UNL     1       8.126  28.412   9.852  1.00  0.00     0.009 C 
HETATM   43  C32 UNL     1       9.799  28.669   8.103  1.00  0.00     0.009 C 
ENDBRANCH  40  41
ENDBRANCH  26  40
BRANCH   8  44
HETATM   44  C13 UNL     1       3.759  24.399   4.413  1.00  0.00     0.038 C 
BRANCH  44  45
HETATM   45  C14 UNL     1       4.041  23.377   3.383  1.00  0.00    -0.020 C 
HETATM   46  C15 UNL     1       3.036  23.233   2.281  1.00  0.00     0.009 C 
HETATM   47  C16 UNL     1       4.055  22.029   4.133  1.00  0.00     0.009 C 
ENDBRANCH  44  45
ENDBRANCH   8  44
BRANCH  21  48
HETATM   48  C23 UNL     1       4.482  31.092   6.298  1.00  0.00     0.038 C 
BRANCH  48  49
HETATM   49  C24 UNL     1       3.686  32.277   5.930  1.00  0.00    -0.020 C 
HETATM   50  C25 UNL     1       3.709  33.207   7.168  1.00  0.00     0.009 C 
HETATM   51  C26 UNL     1       4.185  33.128   4.802  1.00  0.00     0.009 C 
ENDBRANCH  48  49
ENDBRANCH  21  48
TORSDOF 11
ENDMDL
MODEL 2
REMARK VINA RESULT: -6.204484422      1.981      3.305
REMARK  11 active torsions:
REMARK  status: ('A' for Active; 'I' for Inactive)
REMARK    1  A    between atoms: C2_2  and  C3_3 
REMARK    2  A    between atoms: C3_3  and  C4_4 
REMARK    3  A    between atoms: C5_5  and  N1_6 
REMARK    4  A    between atoms: N1_6  and  C6_8 
REMARK    5  A    between atoms: C11_13  and  O1_14 
REMARK    6  A    between atoms: C12_18  and  C13_19 
REMARK    7  A    between atoms: C13_19  and  C14_20 
REMARK    8  A    between atoms: C22_35  and  C23_36 
REMARK    9  A    between atoms: C23_36  and  C24_37 
REMARK   10  A    between atoms: C28_44  and  C29_45 
REMARK   11  A    between atoms: C29_45  and  C30_46 
ROOT
HETATM    1  C4  UNL     1       7.398  27.273   6.348  1.00  0.00     0.114 C 
HETATM    2  C5  UNL     1       8.143  26.464   5.327  1.00  0.00     0.102 C 
HETATM    3  C9  UNL     1       7.843  27.424   4.125  1.00  0.00     0.060 C 
HETATM    4  C10 UNL     1       6.302  27.532   4.318  1.00  0.00     0.164 C 
HETATM    5  C11 UNL     1       5.729  26.597   3.376  1.00  0.00     0.135 C 
HETATM    6  N2  UNL     1       4.985  25.443   3.408  1.00  0.00    -0.359 N 
ATOM      7  H2  UNL     1       5.519  24.623   3.124  1.00  0.00     0.162 HD
HETATM    8  C12 UNL     1       3.622  25.127   3.752  1.00  0.00     0.177 C 
HETATM    9  C17 UNL     1       2.659  25.307   2.640  1.00  0.00     0.260 C 
HETATM   10  O2  UNL     1       3.091  25.328   1.468  1.00  0.00    -0.269 OA
HETATM   11  N3  UNL     1       1.262  25.461   2.838  1.00  0.00    -0.268 N 
HETATM   12  C18 UNL     1       0.429  25.280   1.672  1.00  0.00     0.180 C 
HETATM   13  N4  UNL     1       0.750  25.746   4.047  1.00  0.00    -0.319 N 
ATOM     14  H4  UNL     1       1.330  25.568   4.866  1.00  0.00     0.181 HD
HETATM   15  C19 UNL     1      -0.518  26.269   4.249  1.00  0.00     0.187 C 
HETATM   16  C20 UNL     1      -1.679  25.388   3.803  1.00  0.00     0.044 C 
HETATM   17  C21 UNL     1      -0.750  27.687   3.820  1.00  0.00     0.242 C 
HETATM   18  O3  UNL     1      -1.996  27.995   3.856  1.00  0.00    -0.271 OA
HETATM   19  N5  UNL     1       0.163  28.631   3.420  1.00  0.00    -0.346 N 
ATOM     20  H5  UNL     1      -0.068  29.106   2.548  1.00  0.00     0.163 HD
HETATM   21  C22 UNL     1       1.408  29.061   4.038  1.00  0.00     0.177 C 
HETATM   22  C27 UNL     1       1.410  28.795   5.499  1.00  0.00     0.241 C 
HETATM   23  O4  UNL     1       0.307  28.947   6.133  1.00  0.00    -0.271 OA
HETATM   24  N6  UNL     1       2.517  28.385   6.271  1.00  0.00    -0.346 N 
ATOM     25  H6  UNL     1       2.342  27.836   7.113  1.00  0.00     0.163 HD
HETATM   26  C28 UNL     1       3.857  28.698   5.938  1.00  0.00     0.177 C 
HETATM   27  C33 UNL     1       4.851  27.623   6.326  1.00  0.00     0.243 C 
HETATM   28  O5  UNL     1       4.500  26.864   7.250  1.00  0.00    -0.271 OA
HETATM   29  N7  UNL     1       6.093  27.477   5.700  1.00  0.00    -0.331 N 
ENDROOT
BRANCH   2  30
HETATM   30  N1  UNL     1       9.566  26.392   5.511  1.00  0.00    -0.412 N 
ATOM     31  H1  UNL     1      10.134  27.226   5.659  1.00  0.00     0.154 HD
BRANCH  30  32
HETATM   32  C6  UNL     1      10.139  25.084   5.474  1.00  0.00     0.068 C 
HETATM   33  C7  UNL     1      11.564  25.207   4.928  1.00  0.00     0.031 C 
HETATM   34  C8  UNL     1      10.270  24.549   6.921  1.00  0.00     0.031 C 
ENDBRANCH  30  32
ENDBRANCH   2  30
BRANCH   1  35
HETATM   35  C3  UNL     1       7.335  26.696   7.689  1.00  0.00     0.053 C 
BRANCH  35  36
HETATM   36  C2  UNL     1       7.788  27.683   8.710  1.00  0.00    -0.035 C 
HETATM   37  C1  UNL     1       8.998  28.265   8.455  1.00  0.00     0.007 C 
ENDBRANCH  35  36
ENDBRANCH   1  35
BRANCH   5  38
HETATM   38  O1  UNL     1       6.027  26.993   2.147  1.00  0.00    -0.348 OA
ATOM     39  H1  UNL     1       6.664  26.394   1.778  1.00  0.00     0.219 HD
ENDBRANCH   5  38
BRANCH  26  40
HETATM   40  C29 UNL     1       4.370  29.954   6.531  1.00  0.00     0.038 C 
BRANCH  40  41
HETATM   41  C30 UNL     1       3.555  31.195   6.322  1.00  0.00    -0.020 C 
HETATM   42  C31 UNL     1       4.307  32.352   5.781  1.00  0.00     0.009 C 
HETATM   43  C32 UNL     1       3.053  31.585   7.721  1.00  0.00     0.009 C 
ENDBRANCH  40  41
ENDBRANCH  26  40
BRANCH   8  44
HETATM   44  C13 UNL     1       3.510  23.790   4.394  1.00  0.00     0.038 C 
BRANCH  44  45
HETATM   45  C14 UNL     1       3.460  22.594   3.526  1.00  0.00    -0.020 C 
HETATM   46  C15 UNL     1       2.103  22.043   3.213  1.00  0.00     0.009 C 
HETATM   47  C16 UNL     1       4.206  21.489   4.303  1.00  0.00     0.009 C 
ENDBRANCH  44  45
ENDBRANCH   8  44
BRANCH  21  48
HETATM   48  C23 UNL     1       1.690  30.508   3.742  1.00  0.00     0.038 C 
BRANCH  48  49
HETATM   49  C24 UNL     1       0.540  31.388   3.469  1.00  0.00    -0.020 C 
HETATM   50  C25 UNL     1       0.421  32.326   4.695  1.00  0.00     0.009 C 
HETATM   51  C26 UNL     1       0.632  32.309   2.290  1.00  0.00     0.009 C 
ENDBRANCH  48  49
ENDBRANCH  21  48
TORSDOF 11
ENDMDL
MODEL 3
REMARK VINA RESULT: -6.096636020      1.958      3.237
REMARK  11 active torsions:
REMARK  status: ('A' for Active; 'I' for Inactive)
REMARK    1  A    between atoms: C2_2  and  C3_3 
REMARK    2  A    between atoms: C3_3  and  C4_4 
REMARK    3  A    between atoms: C5_5  and  N1_6 
REMARK    4  A    between atoms: N1_6  and  C6_8 
REMARK    5  A    between atoms: C11_13  and  O1_14 
REMARK    6  A    between atoms: C12_18  and  C13_19 
REMARK    7  A    between atoms: C13_19  and  C14_20 
REMARK    8  A    between atoms: C22_35  and  C23_36 
REMARK    9  A    between atoms: C23_36  and  C24_37 
REMARK   10  A    between atoms: C28_44  and  C29_45 
REMARK   11  A    between atoms: C29_45  and  C30_46 
ROOT
HETATM    1  C4  UNL     1       7.481  27.341   5.363  1.00  0.00     0.114 C 
HETATM    2  C5  UNL     1       7.994  26.572   4.181  1.00  0.00     0.102 C 
HETATM    3  C9  UNL     1       7.331  27.494   3.100  1.00  0.00     0.060 C 
HETATM    4  C10 UNL     1       5.887  27.499   3.683  1.00  0.00     0.164 C 
HETATM    5  C11 UNL     1       5.158  26.515   2.914  1.00  0.00     0.135 C 
HETATM    6  N2  UNL     1       4.529  25.314   3.130  1.00  0.00    -0.359 N 
ATOM      7  H2  UNL     1       5.028  24.528   2.714  1.00  0.00     0.162 HD
HETATM    8  C12 UNL     1       3.325  24.909   3.810  1.00  0.00     0.177 C 
HETATM    9  C17 UNL     1       2.099  25.010   2.982  1.00  0.00     0.260 C 
HETATM   10  O2  UNL     1       2.213  25.046   1.739  1.00  0.00    -0.269 OA
HETATM   11  N3  UNL     1       0.792  25.070   3.533  1.00  0.00    -0.268 N 
HETATM   12  C18 UNL     1      -0.297  24.819   2.618  1.00  0.00     0.180 C 
HETATM   13  N4  UNL     1       0.588  25.335   4.834  1.00  0.00    -0.319 N 
ATOM     14  H4  UNL     1       1.369  25.207   5.476  1.00  0.00     0.181 HD
HETATM   15  C19 UNL     1      -0.619  25.772   5.357  1.00  0.00     0.187 C 
HETATM   16  C20 UNL     1      -1.792  24.809   5.219  1.00  0.00     0.044 C 
HETATM   17  C21 UNL     1      -1.050  27.166   5.010  1.00  0.00     0.242 C 
HETATM   18  O3  UNL     1      -2.265  27.389   5.366  1.00  0.00    -0.271 OA
HETATM   19  N5  UNL     1      -0.338  28.165   4.394  1.00  0.00    -0.346 N 
ATOM     20  H5  UNL     1      -0.817  28.613   3.613  1.00  0.00     0.163 HD
HETATM   21  C22 UNL     1       0.991  28.686   4.675  1.00  0.00     0.177 C 
HETATM   22  C27 UNL     1       1.386  28.439   6.085  1.00  0.00     0.241 C 
HETATM   23  O4  UNL     1       0.474  28.524   6.982  1.00  0.00    -0.271 OA
HETATM   24  N6  UNL     1       2.679  28.116   6.546  1.00  0.00    -0.346 N 
ATOM     25  H6  UNL     1       2.764  27.566   7.401  1.00  0.00     0.163 HD
HETATM   26  C28 UNL     1       3.864  28.515   5.882  1.00  0.00     0.177 C 
HETATM   27  C33 UNL     1       4.996  27.516   5.996  1.00  0.00     0.243 C 
HETATM   28  O5  UNL     1       4.946  26.746   6.975  1.00  0.00    -0.271 OA
HETATM   29  N7  UNL     1       6.043  27.447   5.072  1.00  0.00    -0.331 N 
ENDROOT
BRANCH   2  30
HETATM   30  N1  UNL     1       9.418  26.599   3.993  1.00  0.00    -0.412 N 
ATOM     31  H1  UNL     1       9.910  27.448   3.715  1.00  0.00     0.154 HD
BRANCH  30  32
HETATM   32  C6  UNL     1      10.106  25.367   4.220  1.00  0.00     0.068 C 
HETATM   33  C7  UNL     1      10.761  24.942   2.903  1.00  0.00     0.031 C 
HETATM   34  C8  UNL     1      11.259  25.609   5.223  1.00  0.00     0.031 C 
ENDBRANCH  30  32
ENDBRANCH   2  30
BRANCH   1  35
HETATM   35  C3  UNL     1       7.804  26.777   6.672  1.00  0.00     0.053 C 
BRANCH  35  36
HETATM   36  C2  UNL     1       8.426  27.808   7.551  1.00  0.00    -0.035 C 
HETATM   37  C1  UNL     1       7.924  27.862   8.822  1.00  0.00     0.007 C 
ENDBRANCH  35  36
ENDBRANCH   1  35
BRANCH   5  38
HETATM   38  O1  UNL     1       5.103  26.915   1.652  1.00  0.00    -0.348 OA
ATOM     39  H1  UNL     1       4.477  27.627   1.584  1.00  0.00     0.219 HD
ENDBRANCH   5  38
BRANCH  26  40
HETATM   40  C29 UNL     1       4.423  29.811   6.330  1.00  0.00     0.038 C 
BRANCH  40  41
HETATM   41  C30 UNL     1       3.535  31.014   6.229  1.00  0.00    -0.020 C 
HETATM   42  C31 UNL     1       4.151  32.191   5.571  1.00  0.00     0.009 C 
HETATM   43  C32 UNL     1       3.226  31.408   7.682  1.00  0.00     0.009 C 
ENDBRANCH  40  41
ENDBRANCH  26  40
BRANCH   8  44
HETATM   44  C13 UNL     1       3.473  23.576   4.451  1.00  0.00     0.038 C 
BRANCH  44  45
HETATM   45  C14 UNL     1       3.498  22.377   3.586  1.00  0.00    -0.020 C 
HETATM   46  C15 UNL     1       2.173  21.790   3.208  1.00  0.00     0.009 C 
HETATM   47  C16 UNL     1       4.232  21.294   4.404  1.00  0.00     0.009 C 
ENDBRANCH  44  45
ENDBRANCH   8  44
BRANCH  21  48
HETATM   48  C23 UNL     1       1.087  30.145   4.324  1.00  0.00     0.038 C 
BRANCH  48  49
HETATM   49  C24 UNL     1      -0.152  30.943   4.363  1.00  0.00    -0.020 C 
HETATM   50  C25 UNL     1      -0.020  31.876   5.590  1.00  0.00     0.009 C 
HETATM   51  C26 UNL     1      -0.426  31.861   3.210  1.00  0.00     0.009 C 
ENDBRANCH  48  49
ENDBRANCH  21  48
TORSDOF 11
ENDMDL
MODEL 4
REMARK VINA RESULT: -6.088857505      2.263      8.509
REMARK  11 active torsions:
REMARK  status: ('A' for Active; 'I' for Inactive)
REMARK    1  A    between atoms: C2_2  and  C3_3 
REMARK    2  A    between atoms: C3_3  and  C4_4 
REMARK    3  A    between atoms: C5_5  and  N1_6 
REMARK    4  A    between atoms: N1_6  and  C6_8 
REMARK    5  A    between atoms: C11_13  and  O1_14 
REMARK    6  A    between atoms: C12_18  and  C13_19 
REMARK    7  A    between atoms: C13_19  and  C14_20 
REMARK    8  A    between atoms: C22_35  and  C23_36 
REMARK    9  A    between atoms: C23_36  and  C24_37 
REMARK   10  A    between atoms: C28_44  and  C29_45 
REMARK   11  A    between atoms: C29_45  and  C30_46 
ROOT
HETATM    1  C4  UNL     1       1.428  27.914   7.149  1.00  0.00     0.114 C 
HETATM    2  C5  UNL     1       1.919  29.148   7.846  1.00  0.00     0.102 C 
HETATM    3  C9  UNL     1       2.326  29.910   6.538  1.00  0.00     0.060 C 
HETATM    4  C10 UNL     1       3.175  28.777   5.889  1.00  0.00     0.164 C 
HETATM    5  C11 UNL     1       4.550  29.103   6.196  1.00  0.00     0.135 C 
HETATM    6  N2  UNL     1       5.591  28.564   6.912  1.00  0.00    -0.359 N 
ATOM      7  H2  UNL     1       5.807  29.099   7.754  1.00  0.00     0.162 HD
HETATM    8  C12 UNL     1       6.447  27.417   6.748  1.00  0.00     0.177 C 
HETATM    9  C17 UNL     1       7.624  27.659   5.880  1.00  0.00     0.260 C 
HETATM   10  O2  UNL     1       7.997  28.836   5.686  1.00  0.00    -0.269 OA
HETATM   11  N3  UNL     1       8.353  26.617   5.250  1.00  0.00    -0.268 N 
HETATM   12  C18 UNL     1       9.653  26.972   4.732  1.00  0.00     0.180 C 
HETATM   13  N4  UNL     1       7.860  25.371   5.156  1.00  0.00    -0.319 N 
ATOM     14  H4  UNL     1       7.101  25.108   5.783  1.00  0.00     0.181 HD
HETATM   15  C19 UNL     1       8.320  24.420   4.258  1.00  0.00     0.187 C 
HETATM   16  C20 UNL     1       9.772  23.990   4.430  1.00  0.00     0.044 C 
HETATM   17  C21 UNL     1       8.016  24.645   2.807  1.00  0.00     0.242 C 
HETATM   18  O3  UNL     1       8.662  23.829   2.055  1.00  0.00    -0.271 OA
HETATM   19  N5  UNL     1       7.178  25.568   2.231  1.00  0.00    -0.346 N 
ATOM     20  H5  UNL     1       7.591  26.104   1.469  1.00  0.00     0.163 HD
HETATM   21  C22 UNL     1       5.796  25.905   2.535  1.00  0.00     0.177 C 
HETATM   22  C27 UNL     1       5.093  24.777   3.199  1.00  0.00     0.241 C 
HETATM   23  O4  UNL     1       5.382  23.589   2.816  1.00  0.00    -0.271 OA
HETATM   24  N6  UNL     1       4.129  24.881   4.222  1.00  0.00    -0.346 N 
ATOM     25  H6  UNL     1       4.036  24.105   4.879  1.00  0.00     0.163 HD
HETATM   26  C28 UNL     1       3.284  26.005   4.385  1.00  0.00     0.177 C 
HETATM   27  C33 UNL     1       2.941  26.310   5.828  1.00  0.00     0.243 C 
HETATM   28  O5  UNL     1       3.020  25.352   6.620  1.00  0.00    -0.271 OA
HETATM   29  N7  UNL     1       2.553  27.581   6.262  1.00  0.00    -0.331 N 
ENDROOT
BRANCH   2  30
HETATM   30  N1  UNL     1       0.915  29.917   8.529  1.00  0.00    -0.412 N 
ATOM     31  H1  UNL     1       0.973  30.114   9.527  1.00  0.00     0.154 HD
BRANCH  30  32
HETATM   32  C6  UNL     1      -0.169  30.389   7.726  1.00  0.00     0.068 C 
HETATM   33  C7  UNL     1      -1.470  29.842   8.320  1.00  0.00     0.031 C 
HETATM   34  C8  UNL     1      -0.250  31.930   7.842  1.00  0.00     0.031 C 
ENDBRANCH  30  32
ENDBRANCH   2  30
BRANCH   1  35
HETATM   35  C3  UNL     1       0.990  26.827   8.023  1.00  0.00     0.053 C 
BRANCH  35  36
HETATM   36  C2  UNL     1      -0.380  26.372   7.653  1.00  0.00    -0.035 C 
HETATM   37  C1  UNL     1      -1.173  26.010   8.706  1.00  0.00     0.007 C 
ENDBRANCH  35  36
ENDBRANCH   1  35
BRANCH   5  38
HETATM   38  O1  UNL     1       4.859  30.249   5.606  1.00  0.00    -0.348 OA
ATOM     39  H1  UNL     1       5.777  30.231   5.366  1.00  0.00     0.219 HD
ENDBRANCH   5  38
BRANCH  26  40
HETATM   40  C29 UNL     1       1.989  25.919   3.671  1.00  0.00     0.038 C 
BRANCH  40  41
HETATM   41  C30 UNL     1       1.256  24.613   3.733  1.00  0.00    -0.020 C 
HETATM   42  C31 UNL     1       1.088  23.929   2.429  1.00  0.00     0.009 C 
HETATM   43  C32 UNL     1      -0.148  24.966   4.252  1.00  0.00     0.009 C 
ENDBRANCH  40  41
ENDBRANCH  26  40
BRANCH   8  44
HETATM   44  C13 UNL     1       6.816  26.811   8.055  1.00  0.00     0.038 C 
BRANCH  44  45
HETATM   45  C14 UNL     1       8.235  26.836   8.467  1.00  0.00    -0.020 C 
HETATM   46  C15 UNL     1       8.757  25.619   9.166  1.00  0.00     0.009 C 
HETATM   47  C16 UNL     1       8.349  27.996   9.479  1.00  0.00     0.009 C 
ENDBRANCH  44  45
ENDBRANCH   8  44
BRANCH  21  48
HETATM   48  C23 UNL     1       5.064  26.359   1.302  1.00  0.00     0.038 C 
BRANCH  48  49
HETATM   49  C24 UNL     1       3.965  25.512   0.806  1.00  0.00    -0.020 C 
HETATM   50  C25 UNL     1       2.876  26.484   0.290  1.00  0.00     0.009 C 
HETATM   51  C26 UNL     1       4.252  24.607  -0.354  1.00  0.00     0.009 C 
ENDBRANCH  48  49
ENDBRANCH  21  48
TORSDOF 11
ENDMDL
MODEL 5
REMARK VINA RESULT: -6.076456691      2.275      7.438
REMARK  11 active torsions:
REMARK  status: ('A' for Active; 'I' for Inactive)
REMARK    1  A    between atoms: C2_2  and  C3_3 
REMARK    2  A    between atoms: C3_3  and  C4_4 
REMARK    3  A    between atoms: C5_5  and  N1_6 
REMARK    4  A    between atoms: N1_6  and  C6_8 
REMARK    5  A    between atoms: C11_13  and  O1_14 
REMARK    6  A    between atoms: C12_18  and  C13_19 
REMARK    7  A    between atoms: C13_19  and  C14_20 
REMARK    8  A    between atoms: C22_35  and  C23_36 
REMARK    9  A    between atoms: C23_36  and  C24_37 
REMARK   10  A    between atoms: C28_44  and  C29_45 
REMARK   11  A    between atoms: C29_45  and  C30_46 
ROOT
HETATM    1  C4  UNL     1       3.051  28.624   8.095  1.00  0.00     0.114 C 
HETATM    2  C5  UNL     1       1.766  27.914   7.781  1.00  0.00     0.102 C 
HETATM    3  C9  UNL     1       2.352  26.468   7.926  1.00  0.00     0.060 C 
HETATM    4  C10 UNL     1       3.595  26.648   7.004  1.00  0.00     0.164 C 
HETATM    5  C11 UNL     1       3.213  26.084   5.729  1.00  0.00     0.135 C 
HETATM    6  N2  UNL     1       3.022  26.515   4.439  1.00  0.00    -0.359 N 
ATOM      7  H2  UNL     1       2.040  26.509   4.164  1.00  0.00     0.162 HD
HETATM    8  C12 UNL     1       3.891  26.975   3.386  1.00  0.00     0.177 C 
HETATM    9  C17 UNL     1       4.480  25.888   2.569  1.00  0.00     0.260 C 
HETATM   10  O2  UNL     1       3.930  24.766   2.573  1.00  0.00    -0.269 OA
HETATM   11  N3  UNL     1       5.647  26.055   1.778  1.00  0.00    -0.268 N 
HETATM   12  C18 UNL     1       5.896  25.034   0.787  1.00  0.00     0.180 C 
HETATM   13  N4  UNL     1       6.462  27.110   1.940  1.00  0.00    -0.319 N 
ATOM     14  H4  UNL     1       6.094  27.929   2.423  1.00  0.00     0.181 HD
HETATM   15  C19 UNL     1       7.773  27.155   1.491  1.00  0.00     0.187 C 
HETATM   16  C20 UNL     1       7.963  27.053  -0.018  1.00  0.00     0.044 C 
HETATM   17  C21 UNL     1       8.768  26.284   2.198  1.00  0.00     0.242 C 
HETATM   18  O3  UNL     1       9.890  26.242   1.573  1.00  0.00    -0.271 OA
HETATM   19  N5  UNL     1       8.622  25.571   3.362  1.00  0.00    -0.346 N 
ATOM     20  H5  UNL     1       8.915  24.596   3.307  1.00  0.00     0.163 HD
HETATM   21  C22 UNL     1       8.116  25.984   4.662  1.00  0.00     0.177 C 
HETATM   22  C27 UNL     1       8.250  27.450   4.859  1.00  0.00     0.241 C 
HETATM   23  O4  UNL     1       9.292  28.021   4.380  1.00  0.00    -0.271 OA
HETATM   24  N6  UNL     1       7.336  28.289   5.528  1.00  0.00    -0.346 N 
ATOM     25  H6  UNL     1       7.287  29.270   5.250  1.00  0.00     0.163 HD
HETATM   26  C28 UNL     1       6.483  27.841   6.566  1.00  0.00     0.177 C 
HETATM   27  C33 UNL     1       5.142  28.543   6.602  1.00  0.00     0.243 C 
HETATM   28  O5  UNL     1       5.105  29.674   6.081  1.00  0.00    -0.271 OA
HETATM   29  N7  UNL     1       4.004  27.974   7.183  1.00  0.00    -0.331 N 
ENDROOT
BRANCH   2  30
HETATM   30  N1  UNL     1       0.714  28.080   8.744  1.00  0.00    -0.412 N 
ATOM     31  H1  UNL     1       0.906  28.206   9.737  1.00  0.00     0.154 HD
BRANCH  30  32
HETATM   32  C6  UNL     1      -0.619  28.057   8.229  1.00  0.00     0.068 C 
HETATM   33  C7  UNL     1      -0.536  28.036   6.701  1.00  0.00     0.031 C 
HETATM   34  C8  UNL     1      -1.300  26.733   8.648  1.00  0.00     0.031 C 
ENDBRANCH  30  32
ENDBRANCH   2  30
BRANCH   1  35
HETATM   35  C3  UNL     1       3.007  30.082   8.003  1.00  0.00     0.053 C 
BRANCH  35  36
HETATM   36  C2  UNL     1       2.050  30.514   6.945  1.00  0.00    -0.035 C 
HETATM   37  C1  UNL     1       1.218  31.538   7.301  1.00  0.00     0.007 C 
ENDBRANCH  35  36
ENDBRANCH   1  35
BRANCH   5  38
HETATM   38  O1  UNL     1       2.992  24.788   5.885  1.00  0.00    -0.348 OA
ATOM     39  H1  UNL     1       2.064  24.652   6.040  1.00  0.00     0.219 HD
ENDBRANCH   5  38
BRANCH  26  40
HETATM   40  C29 UNL     1       7.043  27.970   7.931  1.00  0.00     0.038 C 
BRANCH  40  41
HETATM   41  C30 UNL     1       8.359  27.305   8.200  1.00  0.00    -0.020 C 
HETATM   42  C31 UNL     1       8.277  26.061   9.003  1.00  0.00     0.009 C 
HETATM   43  C32 UNL     1       9.166  28.328   9.016  1.00  0.00     0.009 C 
ENDBRANCH  40  41
ENDBRANCH  26  40
BRANCH   8  44
HETATM   44  C13 UNL     1       3.246  28.028   2.557  1.00  0.00     0.038 C 
BRANCH  44  45
HETATM   45  C14 UNL     1       1.790  28.241   2.698  1.00  0.00    -0.020 C 
HETATM   46  C15 UNL     1       0.980  28.227   1.439  1.00  0.00     0.009 C 
HETATM   47  C16 UNL     1       1.637  29.657   3.293  1.00  0.00     0.009 C 
ENDBRANCH  44  45
ENDBRANCH   8  44
BRANCH  21  48
HETATM   48  C23 UNL     1       8.780  25.216   5.772  1.00  0.00     0.038 C 
BRANCH  48  49
HETATM   49  C24 UNL     1      10.168  24.767   5.560  1.00  0.00    -0.020 C 
HETATM   50  C25 UNL     1      11.061  25.757   6.347  1.00  0.00     0.009 C 
HETATM   51  C26 UNL     1      10.548  23.413   6.077  1.00  0.00     0.009 C 
ENDBRANCH  48  49
ENDBRANCH  21  48
TORSDOF 11
ENDMDL
