MODEL 1
REMARK VINA RESULT: -9.979642214      0.000      0.000
REMARK  6 active torsions:
REMARK  status: ('A' for Active; 'I' for Inactive)
REMARK       I    between atoms: C1_2  and  N1_3 
REMARK    1  A    between atoms: C1_2  and  C8_14 
REMARK    2  A    between atoms: N1_3  and  C2_5 
REMARK    3  A    between atoms: C2_5  and  C3_6 
REMARK       I    between atoms: N3_17  and  C11_18 
REMARK    4  A    between atoms: C11_18  and  C12_20 
REMARK    5  A    between atoms: C12_20  and  C13_21 
REMARK    6  A    between atoms: C13_21  and  C14_22 
ROOT
HETATM    1  C8  UNL     1       4.330   7.108  22.715  1.00  0.00     0.097 C 
HETATM    2  C9  UNL     1       5.326   6.880  21.619  1.00  0.00     0.035 C 
HETATM    3  C10 UNL     1       4.787   5.658  20.913  1.00  0.00     0.127 C 
HETATM    4  N3  UNL     1       4.277   4.872  22.047  1.00  0.00    -0.351 N 
HETATM    5  C11 UNL     1       4.296   3.473  22.097  1.00  0.00     0.219 C 
HETATM    6  O2  UNL     1       3.827   2.875  23.109  1.00  0.00    -0.273 OA
HETATM    7  C24 UNL     1       3.788   5.754  23.051  1.00  0.00     0.139 C 
ENDROOT
BRANCH   5   8
HETATM    8  C12 UNL     1       4.872   2.689  20.955  1.00  0.00     0.103 C 
BRANCH   8   9
HETATM    9  C13 UNL     1       6.374   2.602  21.100  1.00  0.00     0.018 C 
BRANCH   9  10
HETATM   10  C14 UNL     1       7.085   2.625  19.783  1.00  0.00    -0.039 C 
HETATM   11  C15 UNL     1       8.080   1.471  19.726  1.00  0.00     0.014 C 
HETATM   12  C16 UNL     1       8.667   1.338  18.352  1.00  0.00    -0.013 C 
HETATM   13  C17 UNL     1       9.430   2.603  18.055  1.00  0.00     0.009 C 
HETATM   14  C21 UNL     1       7.554   1.097  17.361  1.00  0.00     0.009 C 
HETATM   15  C18 UNL     1       8.447   3.751  18.113  1.00  0.00    -0.013 C 
HETATM   16  C19 UNL     1       7.411   3.560  17.035  1.00  0.00     0.009 C 
HETATM   17  C23 UNL     1       7.829   3.884  19.491  1.00  0.00     0.014 C 
HETATM   18  C20 UNL     1       6.650   2.301  17.339  1.00  0.00    -0.013 C 
HETATM   19  C22 UNL     1       6.021   2.432  18.703  1.00  0.00     0.014 C 
ENDBRANCH   9  10
ENDBRANCH   8   9
ENDBRANCH   5   8
BRANCH   1  20
HETATM   20  C1  UNL     1       5.147   7.568  23.906  1.00  0.00     0.223 C 
HETATM   21  O1  UNL     1       4.830   7.053  24.991  1.00  0.00    -0.273 OA
HETATM   22  N1  UNL     1       6.165   8.500  23.739  1.00  0.00    -0.359 N 
ATOM     23  H1  UNL     1       6.264   8.817  22.775  1.00  0.00     0.162 HD
BRANCH  22  24
HETATM   24  C2  UNL     1       7.093   9.105  24.620  1.00  0.00     0.155 C 
BRANCH  24  25
HETATM   25  C3  UNL     1       8.443   8.524  24.814  1.00  0.00     0.203 C 
HETATM   26  C4  UNL     1       8.714   7.886  26.091  1.00  0.00     0.035 C 
HETATM   27  C5  UNL     1      10.202   7.734  26.416  1.00  0.00     0.004 C 
HETATM   28  C6  UNL     1      10.991   8.945  26.045  1.00  0.00     0.027 C 
HETATM   29  C7  UNL     1      10.748   9.169  24.546  1.00  0.00     0.233 C 
HETATM   30  N2  UNL     1       9.390   9.543  24.404  1.00  0.00    -0.069 N 
ATOM     31  H22 UNL     1       9.200   9.840  23.447  1.00  0.00     0.277 HD
ATOM     32  H21 UNL     1       9.208  10.417  24.897  1.00  0.00     0.277 HD
ENDBRANCH  24  25
ENDBRANCH  22  24
ENDBRANCH   1  20
TORSDOF 6
ENDMDL
MODEL 2
REMARK VINA RESULT: -9.881615104      0.144      1.398
REMARK  6 active torsions:
REMARK  status: ('A' for Active; 'I' for Inactive)
REMARK       I    between atoms: C1_2  and  N1_3 
REMARK    1  A    between atoms: C1_2  and  C8_14 
REMARK    2  A    between atoms: N1_3  and  C2_5 
REMARK    3  A    between atoms: C2_5  and  C3_6 
REMARK       I    between atoms: N3_17  and  C11_18 
REMARK    4  A    between atoms: C11_18  and  C12_20 
REMARK    5  A    between atoms: C12_20  and  C13_21 
REMARK    6  A    between atoms: C13_21  and  C14_22 
ROOT
HETATM    1  C8  UNL     1       4.319   7.019  22.703  1.00  0.00     0.097 C 
HETATM    2  C9  UNL     1       5.299   6.791  21.592  1.00  0.00     0.035 C 
HETATM    3  C10 UNL     1       4.767   5.552  20.912  1.00  0.00     0.127 C 
HETATM    4  N3  UNL     1       4.289   4.773  22.065  1.00  0.00    -0.351 N 
HETATM    5  C11 UNL     1       4.331   3.376  22.133  1.00  0.00     0.219 C 
HETATM    6  O2  UNL     1       3.888   2.785  23.161  1.00  0.00    -0.273 OA
HETATM    7  C24 UNL     1       3.804   5.662  23.066  1.00  0.00     0.139 C 
ENDROOT
BRANCH   5   8
HETATM    8  C12 UNL     1       4.898   2.586  20.991  1.00  0.00     0.103 C 
BRANCH   8   9
HETATM    9  C13 UNL     1       6.407   2.674  21.008  1.00  0.00     0.018 C 
BRANCH   9  10
HETATM   10  C14 UNL     1       7.010   2.552  19.644  1.00  0.00    -0.039 C 
HETATM   11  C15 UNL     1       7.728   3.849  19.290  1.00  0.00     0.014 C 
HETATM   12  C16 UNL     1       8.512   3.698  18.021  1.00  0.00    -0.013 C 
HETATM   13  C17 UNL     1       7.535   3.408  16.909  1.00  0.00     0.009 C 
HETATM   14  C21 UNL     1       9.523   2.590  18.194  1.00  0.00     0.009 C 
HETATM   15  C18 UNL     1       6.819   2.122  17.258  1.00  0.00    -0.013 C 
HETATM   16  C19 UNL     1       7.825   1.002  17.306  1.00  0.00     0.009 C 
HETATM   17  C23 UNL     1       6.039   2.255  18.551  1.00  0.00     0.014 C 
HETATM   18  C20 UNL     1       8.793   1.293  18.418  1.00  0.00    -0.013 C 
HETATM   19  C22 UNL     1       8.025   1.411  19.710  1.00  0.00     0.014 C 
ENDBRANCH   9  10
ENDBRANCH   8   9
ENDBRANCH   5   8
BRANCH   1  20
HETATM   20  C1  UNL     1       5.150   7.507  23.873  1.00  0.00     0.223 C 
HETATM   21  O1  UNL     1       4.884   6.977  24.963  1.00  0.00    -0.273 OA
HETATM   22  N1  UNL     1       6.125   8.480  23.682  1.00  0.00    -0.359 N 
ATOM     23  H1  UNL     1       6.184   8.803  22.716  1.00  0.00     0.162 HD
BRANCH  22  24
HETATM   24  C2  UNL     1       7.052   9.119  24.540  1.00  0.00     0.155 C 
BRANCH  24  25
HETATM   25  C3  UNL     1       8.402   8.546  24.757  1.00  0.00     0.203 C 
HETATM   26  C4  UNL     1       8.671   7.953  26.056  1.00  0.00     0.035 C 
HETATM   27  C5  UNL     1      10.158   7.815  26.389  1.00  0.00     0.004 C 
HETATM   28  C6  UNL     1      10.947   9.012  25.977  1.00  0.00     0.027 C 
HETATM   29  C7  UNL     1      10.706   9.184  24.471  1.00  0.00     0.233 C 
HETATM   30  N2  UNL     1       9.348   9.551  24.313  1.00  0.00    -0.069 N 
ATOM     31  H22 UNL     1       9.161   9.814  23.346  1.00  0.00     0.277 HD
ATOM     32  H21 UNL     1       9.165  10.442  24.774  1.00  0.00     0.277 HD
ENDBRANCH  24  25
ENDBRANCH  22  24
ENDBRANCH   1  20
TORSDOF 6
ENDMDL
MODEL 3
REMARK VINA RESULT: -9.866729791      1.152      1.266
REMARK  6 active torsions:
REMARK  status: ('A' for Active; 'I' for Inactive)
REMARK       I    between atoms: C1_2  and  N1_3 
REMARK    1  A    between atoms: C1_2  and  C8_14 
REMARK    2  A    between atoms: N1_3  and  C2_5 
REMARK    3  A    between atoms: C2_5  and  C3_6 
REMARK       I    between atoms: N3_17  and  C11_18 
REMARK    4  A    between atoms: C11_18  and  C12_20 
REMARK    5  A    between atoms: C12_20  and  C13_21 
REMARK    6  A    between atoms: C13_21  and  C14_22 
ROOT
HETATM    1  C8  UNL     1       5.580   7.590  21.192  1.00  0.00     0.097 C 
HETATM    2  C9  UNL     1       6.356   6.915  20.102  1.00  0.00     0.035 C 
HETATM    3  C10 UNL     1       5.512   5.704  19.779  1.00  0.00     0.127 C 
HETATM    4  N3  UNL     1       5.031   5.322  21.116  1.00  0.00    -0.351 N 
HETATM    5  C11 UNL     1       4.805   4.000  21.515  1.00  0.00     0.219 C 
HETATM    6  O2  UNL     1       4.380   3.761  22.683  1.00  0.00    -0.273 OA
HETATM    7  C24 UNL     1       4.854   6.494  21.906  1.00  0.00     0.139 C 
ENDROOT
BRANCH   5   8
HETATM    8  C12 UNL     1       5.065   2.873  20.559  1.00  0.00     0.103 C 
BRANCH   8   9
HETATM    9  C13 UNL     1       6.473   2.358  20.747  1.00  0.00     0.018 C 
BRANCH   9  10
HETATM   10  C14 UNL     1       7.261   2.351  19.475  1.00  0.00    -0.039 C 
HETATM   11  C15 UNL     1       8.298   1.234  19.528  1.00  0.00     0.014 C 
HETATM   12  C16 UNL     1       8.971   1.064  18.199  1.00  0.00    -0.013 C 
HETATM   13  C17 UNL     1       9.706   2.343  17.890  1.00  0.00     0.009 C 
HETATM   14  C21 UNL     1       7.928   0.739  17.155  1.00  0.00     0.009 C 
HETATM   15  C18 UNL     1       8.681   3.455  17.838  1.00  0.00    -0.013 C 
HETATM   16  C19 UNL     1       7.720   3.179  16.712  1.00  0.00     0.009 C 
HETATM   17  C23 UNL     1       7.977   3.623  19.170  1.00  0.00     0.014 C 
HETATM   18  C20 UNL     1       6.987   1.906  17.027  1.00  0.00    -0.013 C 
HETATM   19  C22 UNL     1       6.272   2.072  18.344  1.00  0.00     0.014 C 
ENDBRANCH   9  10
ENDBRANCH   8   9
ENDBRANCH   5   8
BRANCH   1  20
HETATM   20  C1  UNL     1       6.624   8.129  22.149  1.00  0.00     0.223 C 
HETATM   21  O1  UNL     1       7.721   8.396  21.633  1.00  0.00    -0.273 OA
HETATM   22  N1  UNL     1       6.321   8.292  23.497  1.00  0.00    -0.359 N 
ATOM     23  H1  UNL     1       5.371   8.004  23.732  1.00  0.00     0.162 HD
BRANCH  22  24
HETATM   24  C2  UNL     1       7.048   8.771  24.612  1.00  0.00     0.155 C 
BRANCH  24  25
HETATM   25  C3  UNL     1       8.460   8.371  24.826  1.00  0.00     0.203 C 
HETATM   26  C4  UNL     1       8.827   7.913  26.154  1.00  0.00     0.035 C 
HETATM   27  C5  UNL     1      10.328   7.968  26.446  1.00  0.00     0.004 C 
HETATM   28  C6  UNL     1      10.965   9.211  25.922  1.00  0.00     0.027 C 
HETATM   29  C7  UNL     1      10.669   9.239  24.416  1.00  0.00     0.233 C 
HETATM   30  N2  UNL     1       9.274   9.439  24.278  1.00  0.00    -0.069 N 
ATOM     31  H22 UNL     1       9.033   9.605  23.301  1.00  0.00     0.277 HD
ATOM     32  H21 UNL     1       9.002  10.336  24.679  1.00  0.00     0.277 HD
ENDBRANCH  24  25
ENDBRANCH  22  24
ENDBRANCH   1  20
TORSDOF 6
ENDMDL
MODEL 4
REMARK VINA RESULT: -9.858021659      0.110      1.360
REMARK  6 active torsions:
REMARK  status: ('A' for Active; 'I' for Inactive)
REMARK       I    between atoms: C1_2  and  N1_3 
REMARK    1  A    between atoms: C1_2  and  C8_14 
REMARK    2  A    between atoms: N1_3  and  C2_5 
REMARK    3  A    between atoms: C2_5  and  C3_6 
REMARK       I    between atoms: N3_17  and  C11_18 
REMARK    4  A    between atoms: C11_18  and  C12_20 
REMARK    5  A    between atoms: C12_20  and  C13_21 
REMARK    6  A    between atoms: C13_21  and  C14_22 
ROOT
HETATM    1  C8  UNL     1       4.340   7.015  22.691  1.00  0.00     0.097 C 
HETATM    2  C9  UNL     1       5.343   6.785  21.601  1.00  0.00     0.035 C 
HETATM    3  C10 UNL     1       4.825   5.546  20.911  1.00  0.00     0.127 C 
HETATM    4  N3  UNL     1       4.321   4.768  22.054  1.00  0.00    -0.351 N 
HETATM    5  C11 UNL     1       4.359   3.371  22.124  1.00  0.00     0.219 C 
HETATM    6  O2  UNL     1       3.893   2.782  23.142  1.00  0.00    -0.273 OA
HETATM    7  C24 UNL     1       3.815   5.659  23.044  1.00  0.00     0.139 C 
ENDROOT
BRANCH   5   8
HETATM    8  C12 UNL     1       4.950   2.579  20.995  1.00  0.00     0.103 C 
BRANCH   8   9
HETATM    9  C13 UNL     1       6.458   2.597  21.093  1.00  0.00     0.018 C 
BRANCH   9  10
HETATM   10  C14 UNL     1       7.127   2.463  19.761  1.00  0.00    -0.039 C 
HETATM   11  C15 UNL     1       6.072   2.215  18.688  1.00  0.00     0.014 C 
HETATM   12  C16 UNL     1       6.677   2.274  17.318  1.00  0.00    -0.013 C 
HETATM   13  C17 UNL     1       7.691   1.164  17.216  1.00  0.00     0.009 C 
HETATM   14  C21 UNL     1       7.299   3.635  17.112  1.00  0.00     0.009 C 
HETATM   15  C18 UNL     1       8.739   1.406  18.280  1.00  0.00    -0.013 C 
HETATM   16  C19 UNL     1       9.436   2.709  17.989  1.00  0.00     0.009 C 
HETATM   17  C23 UNL     1       8.136   1.370  19.670  1.00  0.00     0.014 C 
HETATM   18  C20 UNL     1       8.422   3.813  18.098  1.00  0.00    -0.013 C 
HETATM   19  C22 UNL     1       7.830   3.792  19.484  1.00  0.00     0.014 C 
ENDBRANCH   9  10
ENDBRANCH   8   9
ENDBRANCH   5   8
BRANCH   1  20
HETATM   20  C1  UNL     1       5.145   7.503  23.878  1.00  0.00     0.223 C 
HETATM   21  O1  UNL     1       4.831   7.000  24.969  1.00  0.00    -0.273 OA
HETATM   22  N1  UNL     1       6.151   8.447  23.701  1.00  0.00    -0.359 N 
ATOM     23  H1  UNL     1       6.250   8.750  22.733  1.00  0.00     0.162 HD
BRANCH  22  24
HETATM   24  C2  UNL     1       7.067   9.077  24.578  1.00  0.00     0.155 C 
BRANCH  24  25
HETATM   25  C3  UNL     1       8.418   8.507  24.799  1.00  0.00     0.203 C 
HETATM   26  C4  UNL     1       8.685   7.915  26.099  1.00  0.00     0.035 C 
HETATM   27  C5  UNL     1      10.171   7.780  26.436  1.00  0.00     0.004 C 
HETATM   28  C6  UNL     1      10.958   8.980  26.028  1.00  0.00     0.027 C 
HETATM   29  C7  UNL     1      10.722   9.151  24.520  1.00  0.00     0.233 C 
HETATM   30  N2  UNL     1       9.364   9.515  24.358  1.00  0.00    -0.069 N 
ATOM     31  H22 UNL     1       9.178   9.778  23.391  1.00  0.00     0.277 HD
ATOM     32  H21 UNL     1       9.176  10.405  24.819  1.00  0.00     0.277 HD
ENDBRANCH  24  25
ENDBRANCH  22  24
ENDBRANCH   1  20
TORSDOF 6
ENDMDL
MODEL 5
REMARK VINA RESULT: -9.810998823      1.257      2.177
REMARK  6 active torsions:
REMARK  status: ('A' for Active; 'I' for Inactive)
REMARK       I    between atoms: C1_2  and  N1_3 
REMARK    1  A    between atoms: C1_2  and  C8_14 
REMARK    2  A    between atoms: N1_3  and  C2_5 
REMARK    3  A    between atoms: C2_5  and  C3_6 
REMARK       I    between atoms: N3_17  and  C11_18 
REMARK    4  A    between atoms: C11_18  and  C12_20 
REMARK    5  A    between atoms: C12_20  and  C13_21 
REMARK    6  A    between atoms: C13_21  and  C14_22 
ROOT
HETATM    1  C8  UNL     1       5.875   7.313  21.876  1.00  0.00     0.097 C 
HETATM    2  C9  UNL     1       7.189   6.674  21.540  1.00  0.00     0.035 C 
HETATM    3  C10 UNL     1       6.791   5.511  20.662  1.00  0.00     0.127 C 
HETATM    4  N3  UNL     1       5.545   5.072  21.312  1.00  0.00    -0.351 N 
HETATM    5  C11 UNL     1       5.127   3.738  21.374  1.00  0.00     0.219 C 
HETATM    6  O2  UNL     1       4.035   3.449  21.945  1.00  0.00    -0.273 OA
HETATM    7  C24 UNL     1       4.872   6.203  21.855  1.00  0.00     0.139 C 
ENDROOT
BRANCH   5   8
HETATM    8  C12 UNL     1       5.972   2.657  20.766  1.00  0.00     0.103 C 
BRANCH   8   9
HETATM    9  C13 UNL     1       5.643   2.517  19.297  1.00  0.00     0.018 C 
BRANCH   9  10
HETATM   10  C14 UNL     1       6.839   2.173  18.466  1.00  0.00    -0.039 C 
HETATM   11  C15 UNL     1       7.420   3.447  17.863  1.00  0.00     0.014 C 
HETATM   12  C16 UNL     1       8.732   3.171  17.190  1.00  0.00    -0.013 C 
HETATM   13  C17 UNL     1       8.472   2.215  16.054  1.00  0.00     0.009 C 
HETATM   14  C21 UNL     1       9.697   2.604  18.203  1.00  0.00     0.009 C 
HETATM   15  C18 UNL     1       7.894   0.950  16.648  1.00  0.00    -0.013 C 
HETATM   16  C19 UNL     1       8.917   0.329  17.563  1.00  0.00     0.009 C 
HETATM   17  C23 UNL     1       6.578   1.219  17.351  1.00  0.00     0.014 C 
HETATM   18  C20 UNL     1       9.168   1.284  18.696  1.00  0.00    -0.013 C 
HETATM   19  C22 UNL     1       7.865   1.543  19.408  1.00  0.00     0.014 C 
ENDBRANCH   9  10
ENDBRANCH   8   9
ENDBRANCH   5   8
BRANCH   1  20
HETATM   20  C1  UNL     1       6.009   7.764  23.317  1.00  0.00     0.223 C 
HETATM   21  O1  UNL     1       5.066   8.451  23.742  1.00  0.00    -0.273 OA
HETATM   22  N1  UNL     1       7.128   7.406  24.062  1.00  0.00    -0.359 N 
ATOM     23  H1  UNL     1       7.800   6.851  23.533  1.00  0.00     0.162 HD
BRANCH  22  24
HETATM   24  C2  UNL     1       7.533   7.646  25.396  1.00  0.00     0.155 C 
BRANCH  24  25
HETATM   25  C3  UNL     1       8.741   8.455  25.687  1.00  0.00     0.203 C 
HETATM   26  C4  UNL     1       9.269   9.272  24.609  1.00  0.00     0.035 C 
HETATM   27  C5  UNL     1      10.727   9.697  24.796  1.00  0.00     0.004 C 
HETATM   28  C6  UNL     1      11.576   8.594  25.333  1.00  0.00     0.027 C 
HETATM   29  C7  UNL     1      10.927   8.161  26.655  1.00  0.00     0.233 C 
HETATM   30  N2  UNL     1       9.688   7.560  26.324  1.00  0.00    -0.069 N 
ATOM     31  H22 UNL     1       9.271   7.127  27.147  1.00  0.00     0.277 HD
ATOM     32  H21 UNL     1       9.837   6.731  25.748  1.00  0.00     0.277 HD
ENDBRANCH  24  25
ENDBRANCH  22  24
ENDBRANCH   1  20
TORSDOF 6
ENDMDL
