MODEL 1
REMARK VINA RESULT: -9.270123007      0.000      0.000
REMARK  6 active torsions:
REMARK  status: ('A' for Active; 'I' for Inactive)
REMARK    1  A    between atoms: C3_3  and  N1_4 
REMARK       I    between atoms: N1_4  and  C4_6 
REMARK    2  A    between atoms: C4_6  and  C5_8 
REMARK    3  A    between atoms: C12_15  and  C13_16 
REMARK       I    between atoms: C13_16  and  N2_18 
REMARK    4  A    between atoms: N2_18  and  C14_20 
REMARK    5  A    between atoms: C14_20  and  C15_21 
REMARK    6  A    between atoms: C15_21  and  N3_22 
ROOT
HETATM    1  C1  UNL     1       6.433   4.364  16.309  1.00  0.00     0.015 C 
HETATM    2  C2  UNL     1       6.906   3.833  17.274  1.00  0.00    -0.086 C 
HETATM    3  C3  UNL     1       7.485   3.155  18.459  1.00  0.00     0.095 C 
HETATM    4  C21 UNL     1       7.313   1.678  18.340  1.00  0.00     0.044 C 
HETATM    5  C22 UNL     1       8.691   1.133  18.646  1.00  0.00     0.004 C 
HETATM    6  C23 UNL     1       9.588   2.176  18.012  1.00  0.00     0.004 C 
HETATM    7  C24 UNL     1       8.954   3.454  18.577  1.00  0.00     0.044 C 
ENDROOT
BRANCH   3   8
HETATM    8  N1  UNL     1       6.767   3.613  19.632  1.00  0.00    -0.341 N 
HETATM    9  C4  UNL     1       6.745   4.963  20.021  1.00  0.00     0.224 C 
HETATM   10  O1  UNL     1       7.375   5.793  19.318  1.00  0.00    -0.273 OA
ATOM     11  H1  UNL     1       6.260   2.932  20.195  1.00  0.00     0.164 HD
BRANCH   9  12
HETATM   12  C5  UNL     1       6.008   5.434  21.221  1.00  0.00     0.095 C 
HETATM   13  C6  UNL     1       4.597   4.873  21.214  1.00  0.00    -0.001 C 
HETATM   14  C7  UNL     1       3.767   5.628  20.219  1.00  0.00     0.006 C 
HETATM   15  C11 UNL     1       3.989   5.071  22.584  1.00  0.00     0.006 C 
HETATM   16  C8  UNL     1       3.510   7.061  20.695  1.00  0.00     0.006 C 
HETATM   17  C9  UNL     1       4.525   7.331  21.779  1.00  0.00    -0.001 C 
HETATM   18  C10 UNL     1       4.101   6.513  22.990  1.00  0.00     0.006 C 
HETATM   19  C12 UNL     1       5.935   6.919  21.341  1.00  0.00     0.095 C 
BRANCH  19  20
HETATM   20  C13 UNL     1       6.848   7.449  22.393  1.00  0.00     0.223 C 
HETATM   21  O2  UNL     1       7.949   6.881  22.616  1.00  0.00    -0.273 OA
HETATM   22  N2  UNL     1       6.530   8.590  23.175  1.00  0.00    -0.359 N 
ATOM     23  H2  UNL     1       5.640   9.055  23.000  1.00  0.00     0.162 HD
BRANCH  22  24
HETATM   24  C14 UNL     1       7.376   9.129  24.190  1.00  0.00     0.152 C 
BRANCH  24  25
HETATM   25  C15 UNL     1       7.487   8.141  25.324  1.00  0.00     0.292 C 
BRANCH  25  26
HETATM   26  N3  UNL     1       8.900   7.876  25.593  1.00  0.00     0.090 N 
HETATM   27  C16 UNL     1       9.120   7.663  27.010  1.00  0.00     0.272 C 
HETATM   28  C17 UNL     1      10.497   7.054  27.158  1.00  0.00     0.030 C 
HETATM   29  C18 UNL     1      11.553   7.941  26.519  1.00  0.00     0.003 C 
HETATM   30  C19 UNL     1      10.951   9.192  25.947  1.00  0.00     0.030 C 
HETATM   31  C20 UNL     1       9.750   8.932  25.075  1.00  0.00     0.272 C 
ENDBRANCH  25  26
ENDBRANCH  24  25
ENDBRANCH  22  24
ENDBRANCH  19  20
ENDBRANCH   9  12
ENDBRANCH   3   8
TORSDOF 6
ENDMDL
MODEL 2
REMARK VINA RESULT: -9.062938317      1.194      1.721
REMARK  6 active torsions:
REMARK  status: ('A' for Active; 'I' for Inactive)
REMARK    1  A    between atoms: C3_3  and  N1_4 
REMARK       I    between atoms: N1_4  and  C4_6 
REMARK    2  A    between atoms: C4_6  and  C5_8 
REMARK    3  A    between atoms: C12_15  and  C13_16 
REMARK       I    between atoms: C13_16  and  N2_18 
REMARK    4  A    between atoms: N2_18  and  C14_20 
REMARK    5  A    between atoms: C14_20  and  C15_21 
REMARK    6  A    between atoms: C15_21  and  N3_22 
ROOT
HETATM    1  C1  UNL     1       6.516   3.908  16.226  1.00  0.00     0.015 C 
HETATM    2  C2  UNL     1       6.996   3.411  17.205  1.00  0.00    -0.086 C 
HETATM    3  C3  UNL     1       7.588   2.775  18.406  1.00  0.00     0.095 C 
HETATM    4  C21 UNL     1       7.672   1.298  18.216  1.00  0.00     0.044 C 
HETATM    5  C22 UNL     1       9.094   0.967  18.613  1.00  0.00     0.004 C 
HETATM    6  C23 UNL     1       9.851   2.172  18.097  1.00  0.00     0.004 C 
HETATM    7  C24 UNL     1       8.975   3.301  18.657  1.00  0.00     0.044 C 
ENDROOT
BRANCH   3   8
HETATM    8  N1  UNL     1       6.719   3.051  19.533  1.00  0.00    -0.341 N 
HETATM    9  C4  UNL     1       6.544   4.345  20.051  1.00  0.00     0.224 C 
HETATM   10  O1  UNL     1       7.172   5.290  19.508  1.00  0.00    -0.273 OA
ATOM     11  H1  UNL     1       6.215   2.277  19.966  1.00  0.00     0.164 HD
BRANCH   9  12
HETATM   12  C5  UNL     1       5.653   4.628  21.204  1.00  0.00     0.095 C 
HETATM   13  C6  UNL     1       4.798   3.411  21.507  1.00  0.00    -0.001 C 
HETATM   14  C7  UNL     1       3.702   3.307  20.487  1.00  0.00     0.006 C 
HETATM   15  C11 UNL     1       4.162   3.590  22.867  1.00  0.00     0.006 C 
HETATM   16  C8  UNL     1       2.680   4.433  20.665  1.00  0.00     0.006 C 
HETATM   17  C9  UNL     1       3.353   5.480  21.520  1.00  0.00    -0.001 C 
HETATM   18  C10 UNL     1       3.442   4.907  22.926  1.00  0.00     0.006 C 
HETATM   19  C12 UNL     1       4.759   5.805  21.002  1.00  0.00     0.095 C 
BRANCH  19  20
HETATM   20  C13 UNL     1       5.203   6.995  21.781  1.00  0.00     0.223 C 
HETATM   21  O2  UNL     1       4.520   8.053  21.759  1.00  0.00    -0.273 OA
HETATM   22  N2  UNL     1       6.387   6.997  22.564  1.00  0.00    -0.359 N 
ATOM     23  H2  UNL     1       6.945   6.144  22.586  1.00  0.00     0.162 HD
BRANCH  22  24
HETATM   24  C14 UNL     1       6.846   8.114  23.324  1.00  0.00     0.152 C 
BRANCH  24  25
HETATM   25  C15 UNL     1       7.162   7.666  24.729  1.00  0.00     0.292 C 
BRANCH  25  26
HETATM   26  N3  UNL     1       8.319   8.413  25.222  1.00  0.00     0.090 N 
HETATM   27  C16 UNL     1       9.260   8.665  24.148  1.00  0.00     0.272 C 
HETATM   28  C17 UNL     1      10.222   9.724  24.642  1.00  0.00     0.030 C 
HETATM   29  C18 UNL     1      10.894   9.285  25.932  1.00  0.00     0.003 C 
HETATM   30  C19 UNL     1      10.450   7.912  26.348  1.00  0.00     0.030 C 
HETATM   31  C20 UNL     1       8.953   7.741  26.340  1.00  0.00     0.272 C 
ENDBRANCH  25  26
ENDBRANCH  24  25
ENDBRANCH  22  24
ENDBRANCH  19  20
ENDBRANCH   9  12
ENDBRANCH   3   8
TORSDOF 6
ENDMDL
MODEL 3
REMARK VINA RESULT: -9.042995225      1.300      1.602
REMARK  6 active torsions:
REMARK  status: ('A' for Active; 'I' for Inactive)
REMARK    1  A    between atoms: C3_3  and  N1_4 
REMARK       I    between atoms: N1_4  and  C4_6 
REMARK    2  A    between atoms: C4_6  and  C5_8 
REMARK    3  A    between atoms: C12_15  and  C13_16 
REMARK       I    between atoms: C13_16  and  N2_18 
REMARK    4  A    between atoms: N2_18  and  C14_20 
REMARK    5  A    between atoms: C14_20  and  C15_21 
REMARK    6  A    between atoms: C15_21  and  N3_22 
ROOT
HETATM    1  C1  UNL     1       6.288   4.617  16.578  1.00  0.00     0.015 C 
HETATM    2  C2  UNL     1       6.732   3.959  17.477  1.00  0.00    -0.086 C 
HETATM    3  C3  UNL     1       7.278   3.127  18.576  1.00  0.00     0.095 C 
HETATM    4  C21 UNL     1       7.310   1.693  18.166  1.00  0.00     0.044 C 
HETATM    5  C22 UNL     1       8.711   1.249  18.526  1.00  0.00     0.004 C 
HETATM    6  C23 UNL     1       9.522   2.487  18.206  1.00  0.00     0.004 C 
HETATM    7  C24 UNL     1       8.679   3.554  18.919  1.00  0.00     0.044 C 
ENDROOT
BRANCH   3   8
HETATM    8  N1  UNL     1       6.400   3.265  19.721  1.00  0.00    -0.341 N 
HETATM    9  C4  UNL     1       6.198   4.493  20.371  1.00  0.00     0.224 C 
HETATM   10  O1  UNL     1       6.808   5.502  19.935  1.00  0.00    -0.273 OA
ATOM     11  H1  UNL     1       5.910   2.440  20.066  1.00  0.00     0.164 HD
BRANCH   9  12
HETATM   12  C5  UNL     1       5.297   4.636  21.543  1.00  0.00     0.095 C 
HETATM   13  C6  UNL     1       4.457   3.381  21.704  1.00  0.00    -0.001 C 
HETATM   14  C7  UNL     1       3.367   3.377  20.672  1.00  0.00     0.006 C 
HETATM   15  C11 UNL     1       3.813   3.400  23.071  1.00  0.00     0.006 C 
HETATM   16  C8  UNL     1       2.330   4.463  20.968  1.00  0.00     0.006 C 
HETATM   17  C9  UNL     1       2.985   5.418  21.937  1.00  0.00    -0.001 C 
HETATM   18  C10 UNL     1       3.075   4.693  23.272  1.00  0.00     0.006 C 
HETATM   19  C12 UNL     1       4.389   5.816  21.467  1.00  0.00     0.095 C 
BRANCH  19  20
HETATM   20  C13 UNL     1       4.813   6.918  22.376  1.00  0.00     0.223 C 
HETATM   21  O2  UNL     1       4.137   7.979  22.439  1.00  0.00    -0.273 OA
HETATM   22  N2  UNL     1       5.969   6.831  23.195  1.00  0.00    -0.359 N 
ATOM     23  H2  UNL     1       6.522   5.975  23.149  1.00  0.00     0.162 HD
BRANCH  22  24
HETATM   24  C14 UNL     1       6.409   7.862  24.077  1.00  0.00     0.152 C 
BRANCH  24  25
HETATM   25  C15 UNL     1       7.641   8.517  23.504  1.00  0.00     0.292 C 
BRANCH  25  26
HETATM   26  N3  UNL     1       8.784   8.230  24.372  1.00  0.00     0.090 N 
HETATM   27  C16 UNL     1       8.379   8.223  25.764  1.00  0.00     0.272 C 
HETATM   28  C17 UNL     1       9.503   7.579  26.548  1.00  0.00     0.030 C 
HETATM   29  C18 UNL     1      10.814   8.309  26.313  1.00  0.00     0.003 C 
HETATM   30  C19 UNL     1      10.636   9.487  25.398  1.00  0.00     0.030 C 
HETATM   31  C20 UNL     1       9.877   9.155  24.139  1.00  0.00     0.272 C 
ENDBRANCH  25  26
ENDBRANCH  24  25
ENDBRANCH  22  24
ENDBRANCH  19  20
ENDBRANCH   9  12
ENDBRANCH   3   8
TORSDOF 6
ENDMDL
MODEL 4
REMARK VINA RESULT: -8.858084236      1.385      1.662
REMARK  6 active torsions:
REMARK  status: ('A' for Active; 'I' for Inactive)
REMARK    1  A    between atoms: C3_3  and  N1_4 
REMARK       I    between atoms: N1_4  and  C4_6 
REMARK    2  A    between atoms: C4_6  and  C5_8 
REMARK    3  A    between atoms: C12_15  and  C13_16 
REMARK       I    between atoms: C13_16  and  N2_18 
REMARK    4  A    between atoms: N2_18  and  C14_20 
REMARK    5  A    between atoms: C14_20  and  C15_21 
REMARK    6  A    between atoms: C15_21  and  N3_22 
ROOT
HETATM    1  C1  UNL     1       4.929   1.763  17.383  1.00  0.00     0.015 C 
HETATM    2  C2  UNL     1       5.927   2.197  17.885  1.00  0.00    -0.086 C 
HETATM    3  C3  UNL     1       7.168   2.712  18.512  1.00  0.00     0.095 C 
HETATM    4  C21 UNL     1       7.965   1.583  19.075  1.00  0.00     0.044 C 
HETATM    5  C22 UNL     1       9.361   1.832  18.547  1.00  0.00     0.004 C 
HETATM    6  C23 UNL     1       9.078   2.377  17.162  1.00  0.00     0.004 C 
HETATM    7  C24 UNL     1       8.015   3.432  17.499  1.00  0.00     0.044 C 
ENDROOT
BRANCH   3   8
HETATM    8  N1  UNL     1       6.789   3.598  19.594  1.00  0.00    -0.341 N 
HETATM    9  C4  UNL     1       6.353   4.915  19.371  1.00  0.00     0.224 C 
HETATM   10  O1  UNL     1       6.296   5.327  18.184  1.00  0.00    -0.273 OA
ATOM     11  H1  UNL     1       6.840   3.254  20.552  1.00  0.00     0.164 HD
BRANCH   9  12
HETATM   12  C5  UNL     1       5.963   5.823  20.478  1.00  0.00     0.095 C 
HETATM   13  C6  UNL     1       4.751   5.263  21.202  1.00  0.00    -0.001 C 
HETATM   14  C7  UNL     1       3.523   5.498  20.371  1.00  0.00     0.006 C 
HETATM   15  C11 UNL     1       4.583   6.001  22.511  1.00  0.00     0.006 C 
HETATM   16  C8  UNL     1       3.172   6.988  20.322  1.00  0.00     0.006 C 
HETATM   17  C9  UNL     1       4.411   7.727  20.768  1.00  0.00    -0.001 C 
HETATM   18  C10 UNL     1       4.552   7.483  22.264  1.00  0.00     0.006 C 
HETATM   19  C12 UNL     1       5.660   7.216  20.040  1.00  0.00     0.095 C 
BRANCH  19  20
HETATM   20  C13 UNL     1       6.745   8.172  20.397  1.00  0.00     0.223 C 
HETATM   21  O2  UNL     1       6.886   9.239  19.742  1.00  0.00    -0.273 OA
HETATM   22  N2  UNL     1       7.652   7.936  21.463  1.00  0.00    -0.359 N 
ATOM     23  H2  UNL     1       7.544   7.074  21.997  1.00  0.00     0.162 HD
BRANCH  22  24
HETATM   24  C14 UNL     1       8.703   8.825  21.837  1.00  0.00     0.152 C 
BRANCH  24  25
HETATM   25  C15 UNL     1       8.396   9.422  23.187  1.00  0.00     0.292 C 
BRANCH  25  26
HETATM   26  N3  UNL     1       9.149   8.700  24.213  1.00  0.00     0.090 N 
HETATM   27  C16 UNL     1       8.379   8.602  25.438  1.00  0.00     0.272 C 
HETATM   28  C17 UNL     1       9.055   7.559  26.302  1.00  0.00     0.030 C 
HETATM   29  C18 UNL     1      10.512   7.917  26.542  1.00  0.00     0.003 C 
HETATM   30  C19 UNL     1      10.877   9.218  25.888  1.00  0.00     0.030 C 
HETATM   31  C20 UNL     1      10.447   9.303  24.446  1.00  0.00     0.272 C 
ENDBRANCH  25  26
ENDBRANCH  24  25
ENDBRANCH  22  24
ENDBRANCH  19  20
ENDBRANCH   9  12
ENDBRANCH   3   8
TORSDOF 6
ENDMDL
MODEL 5
REMARK VINA RESULT: -8.406606708      1.872      2.367
REMARK  6 active torsions:
REMARK  status: ('A' for Active; 'I' for Inactive)
REMARK    1  A    between atoms: C3_3  and  N1_4 
REMARK       I    between atoms: N1_4  and  C4_6 
REMARK    2  A    between atoms: C4_6  and  C5_8 
REMARK    3  A    between atoms: C12_15  and  C13_16 
REMARK       I    between atoms: C13_16  and  N2_18 
REMARK    4  A    between atoms: N2_18  and  C14_20 
REMARK    5  A    between atoms: C14_20  and  C15_21 
REMARK    6  A    between atoms: C15_21  and  N3_22 
ROOT
HETATM    1  C1  UNL     1       4.657   1.947  17.884  1.00  0.00     0.015 C 
HETATM    2  C2  UNL     1       5.653   2.611  17.957  1.00  0.00    -0.086 C 
HETATM    3  C3  UNL     1       6.891   3.418  18.065  1.00  0.00     0.095 C 
HETATM    4  C21 UNL     1       7.745   2.903  19.175  1.00  0.00     0.044 C 
HETATM    5  C22 UNL     1       9.115   2.780  18.544  1.00  0.00     0.004 C 
HETATM    6  C23 UNL     1       8.773   2.330  17.139  1.00  0.00     0.004 C 
HETATM    7  C24 UNL     1       7.682   3.352  16.788  1.00  0.00     0.044 C 
ENDROOT
BRANCH   3   8
HETATM    8  N1  UNL     1       6.510   4.784  18.367  1.00  0.00    -0.341 N 
HETATM    9  C4  UNL     1       5.765   5.122  19.509  1.00  0.00     0.224 C 
HETATM   10  O1  UNL     1       5.421   4.197  20.289  1.00  0.00    -0.273 OA
ATOM     11  H1  UNL     1       6.794   5.526  17.728  1.00  0.00     0.164 HD
BRANCH   9  12
HETATM   12  C5  UNL     1       5.375   6.521  19.820  1.00  0.00     0.095 C 
HETATM   13  C6  UNL     1       3.883   6.702  19.603  1.00  0.00    -0.001 C 
HETATM   14  C7  UNL     1       3.603   6.788  18.131  1.00  0.00     0.006 C 
HETATM   15  C11 UNL     1       3.453   8.002  20.243  1.00  0.00     0.006 C 
HETATM   16  C8  UNL     1       4.144   8.096  17.547  1.00  0.00     0.006 C 
HETATM   17  C9  UNL     1       5.128   8.632  18.558  1.00  0.00    -0.001 C 
HETATM   18  C10 UNL     1       4.313   9.128  19.743  1.00  0.00     0.006 C 
HETATM   19  C12 UNL     1       6.106   7.545  19.018  1.00  0.00     0.095 C 
BRANCH  19  20
HETATM   20  C13 UNL     1       7.143   8.257  19.817  1.00  0.00     0.223 C 
HETATM   21  O2  UNL     1       7.898   9.098  19.261  1.00  0.00    -0.273 OA
HETATM   22  N2  UNL     1       7.329   8.027  21.205  1.00  0.00    -0.359 N 
ATOM     23  H2  UNL     1       6.722   7.347  21.661  1.00  0.00     0.162 HD
BRANCH  22  24
HETATM   24  C14 UNL     1       8.309   8.687  22.004  1.00  0.00     0.152 C 
BRANCH  24  25
HETATM   25  C15 UNL     1       7.808   8.793  23.423  1.00  0.00     0.292 C 
BRANCH  25  26
HETATM   26  N3  UNL     1       8.867   8.369  24.339  1.00  0.00     0.090 N 
HETATM   27  C16 UNL     1       8.371   8.305  25.700  1.00  0.00     0.272 C 
HETATM   28  C17 UNL     1       9.393   7.532  26.507  1.00  0.00     0.030 C 
HETATM   29  C18 UNL     1      10.764   8.178  26.403  1.00  0.00     0.003 C 
HETATM   30  C19 UNL     1      10.729   9.421  25.561  1.00  0.00     0.030 C 
HETATM   31  C20 UNL     1      10.035   9.225  24.237  1.00  0.00     0.272 C 
ENDBRANCH  25  26
ENDBRANCH  24  25
ENDBRANCH  22  24
ENDBRANCH  19  20
ENDBRANCH   9  12
ENDBRANCH   3   8
TORSDOF 6
ENDMDL
