MODEL 1
REMARK VINA RESULT: -8.114534109      0.000      0.000
REMARK  6 active torsions:
REMARK  status: ('A' for Active; 'I' for Inactive)
REMARK    1  A    between atoms: C2_2  and  C3_3 
REMARK    2  A    between atoms: C9_9  and  N1_10 
REMARK    3  A    between atoms: N1_10  and  S1_12 
REMARK    4  A    between atoms: S1_12  and  C10_15 
REMARK    5  A    between atoms: C10_15  and  C11_16 
REMARK    6  A    between atoms: C20_25  and  C21_26 
ROOT
HETATM    1  C3  UNL     1       6.650   8.109  19.745  1.00  0.00    -0.024 C 
HETATM    2  C4  UNL     1       5.952   8.095  21.132  1.00  0.00     0.015 C 
HETATM    3  C5  UNL     1       4.540   7.768  20.700  1.00  0.00    -0.012 C 
HETATM    4  C6  UNL     1       4.441   6.403  20.074  1.00  0.00     0.011 C 
HETATM    5  C7  UNL     1       5.551   6.024  19.169  1.00  0.00     0.010 C 
HETATM    6  C8  UNL     1       6.906   6.593  19.536  1.00  0.00     0.017 C 
HETATM    7  C9  UNL     1       5.337   6.436  17.709  1.00  0.00     0.098 C 
HETATM    8  C19 UNL     1       5.281   7.895  17.612  1.00  0.00     0.045 C 
HETATM    9  C20 UNL     1       5.656   8.684  18.858  1.00  0.00     0.048 C 
HETATM   10  C22 UNL     1       4.345   8.813  19.633  1.00  0.00     0.024 C 
ENDROOT
BRANCH   7  11
HETATM   11  N1  UNL     1       4.324   5.635  17.189  1.00  0.00    -0.314 N 
ATOM     12  H1  UNL     1       3.347   5.913  17.277  1.00  0.00     0.172 HD
BRANCH  11  13
HETATM   13  S1  UNL     1       4.741   4.192  16.406  1.00  0.00     0.227 S 
HETATM   14  O1  UNL     1       4.403   3.093  17.406  1.00  0.00    -0.206 OA
HETATM   15  O2  UNL     1       3.835   3.956  15.232  1.00  0.00    -0.206 OA
BRANCH  13  16
HETATM   16  C10 UNL     1       6.418   4.026  15.984  1.00  0.00     0.167 C 
BRANCH  16  17
HETATM   17  C11 UNL     1       7.237   3.127  16.848  1.00  0.00     0.001 C 
HETATM   18  C12 UNL     1       8.015   2.096  16.070  1.00  0.00     0.006 C 
HETATM   19  C13 UNL     1       8.221   0.824  16.843  1.00  0.00     0.005 C 
HETATM   20  C14 UNL     1       8.932   0.994  18.134  1.00  0.00    -0.014 C 
HETATM   21  C15 UNL     1       8.101   1.685  19.205  1.00  0.00     0.009 C 
HETATM   22  C17 UNL     1       9.858   2.188  18.176  1.00  0.00     0.009 C 
HETATM   23  C16 UNL     1       8.750   2.960  18.837  1.00  0.00    -0.013 C 
HETATM   24  C18 UNL     1       8.004   3.846  17.890  1.00  0.00     0.010 C 
ENDBRANCH  16  17
ENDBRANCH  13  16
ENDBRANCH  11  13
ENDBRANCH   7  11
BRANCH   9  25
HETATM   25  C21 UNL     1       5.976  10.045  18.351  1.00  0.00     0.240 C 
HETATM   26  N2  UNL     1       6.416  10.186  16.973  1.00  0.00    -0.061 NA
HETATM   27  O3  UNL     1       5.917  11.115  18.974  1.00  0.00    -0.276 OA
ENDBRANCH   9  25
BRANCH   1  28
HETATM   28  C2  UNL     1       7.993   8.745  19.879  1.00  0.00     0.006 C 
HETATM   29  C1  UNL     1       8.342   8.746  21.373  1.00  0.00     0.006 C 
ENDBRANCH   1  28
TORSDOF 6
ENDMDL
MODEL 2
REMARK VINA RESULT: -7.960298808      4.300      6.154
REMARK  6 active torsions:
REMARK  status: ('A' for Active; 'I' for Inactive)
REMARK    1  A    between atoms: C2_2  and  C3_3 
REMARK    2  A    between atoms: C9_9  and  N1_10 
REMARK    3  A    between atoms: N1_10  and  S1_12 
REMARK    4  A    between atoms: S1_12  and  C10_15 
REMARK    5  A    between atoms: C10_15  and  C11_16 
REMARK    6  A    between atoms: C20_25  and  C21_26 
ROOT
HETATM    1  C3  UNL     1       3.360   1.868  22.352  1.00  0.00    -0.024 C 
HETATM    2  C4  UNL     1       2.621   1.211  21.154  1.00  0.00     0.015 C 
HETATM    3  C5  UNL     1       2.334   2.446  20.329  1.00  0.00    -0.012 C 
HETATM    4  C6  UNL     1       3.595   3.106  19.840  1.00  0.00     0.011 C 
HETATM    5  C7  UNL     1       4.713   3.161  20.809  1.00  0.00     0.010 C 
HETATM    6  C8  UNL     1       4.793   1.994  21.771  1.00  0.00     0.017 C 
HETATM    7  C9  UNL     1       4.706   4.405  21.703  1.00  0.00     0.098 C 
HETATM    8  C19 UNL     1       3.508   4.399  22.544  1.00  0.00     0.045 C 
HETATM    9  C20 UNL     1       2.670   3.130  22.541  1.00  0.00     0.048 C 
HETATM   10  C22 UNL     1       1.697   3.320  21.378  1.00  0.00     0.024 C 
ENDROOT
BRANCH   7  11
HETATM   11  N1  UNL     1       5.029   5.500  20.907  1.00  0.00    -0.314 N 
ATOM     12  H1  UNL     1       4.300   6.127  20.568  1.00  0.00     0.172 HD
BRANCH  11  13
HETATM   13  S1  UNL     1       6.652   5.774  20.510  1.00  0.00     0.227 S 
HETATM   14  O1  UNL     1       6.857   7.270  20.709  1.00  0.00    -0.206 OA
HETATM   15  O2  UNL     1       7.552   5.111  21.513  1.00  0.00    -0.206 OA
BRANCH  13  16
HETATM   16  C10 UNL     1       7.098   5.391  18.875  1.00  0.00     0.167 C 
BRANCH  16  17
HETATM   17  C11 UNL     1       7.451   3.969  18.595  1.00  0.00     0.001 C 
HETATM   18  C12 UNL     1       6.626   3.353  17.494  1.00  0.00     0.006 C 
HETATM   19  C13 UNL     1       6.428   1.875  17.679  1.00  0.00     0.005 C 
HETATM   20  C14 UNL     1       7.683   1.087  17.748  1.00  0.00    -0.014 C 
HETATM   21  C15 UNL     1       8.465   1.294  19.036  1.00  0.00     0.009 C 
HETATM   22  C17 UNL     1       8.847   1.715  17.018  1.00  0.00     0.009 C 
HETATM   23  C16 UNL     1       9.294   2.293  18.332  1.00  0.00    -0.013 C 
HETATM   24  C18 UNL     1       8.909   3.729  18.505  1.00  0.00     0.010 C 
ENDBRANCH  16  17
ENDBRANCH  13  16
ENDBRANCH  11  13
ENDBRANCH   7  11
BRANCH   9  25
HETATM   25  C21 UNL     1       1.856   3.222  23.784  1.00  0.00     0.240 C 
HETATM   26  N2  UNL     1       0.501   2.698  23.765  1.00  0.00    -0.061 NA
HETATM   27  O3  UNL     1       2.196   3.707  24.872  1.00  0.00    -0.276 OA
ENDBRANCH   9  25
BRANCH   1  28
HETATM   28  C2  UNL     1       3.448   0.885  23.471  1.00  0.00     0.006 C 
HETATM   29  C1  UNL     1       2.803  -0.417  22.976  1.00  0.00     0.006 C 
ENDBRANCH   1  28
TORSDOF 6
ENDMDL
MODEL 3
REMARK VINA RESULT: -7.806639924      3.912      5.234
REMARK  6 active torsions:
REMARK  status: ('A' for Active; 'I' for Inactive)
REMARK    1  A    between atoms: C2_2  and  C3_3 
REMARK    2  A    between atoms: C9_9  and  N1_10 
REMARK    3  A    between atoms: N1_10  and  S1_12 
REMARK    4  A    between atoms: S1_12  and  C10_15 
REMARK    5  A    between atoms: C10_15  and  C11_16 
REMARK    6  A    between atoms: C20_25  and  C21_26 
ROOT
HETATM    1  C3  UNL     1       2.766   8.450  23.490  1.00  0.00    -0.024 C 
HETATM    2  C4  UNL     1       3.665   9.533  24.146  1.00  0.00     0.015 C 
HETATM    3  C5  UNL     1       4.812   8.661  24.608  1.00  0.00    -0.012 C 
HETATM    4  C6  UNL     1       5.545   8.032  23.454  1.00  0.00     0.011 C 
HETATM    5  C7  UNL     1       4.700   7.540  22.342  1.00  0.00     0.010 C 
HETATM    6  C8  UNL     1       3.433   8.331  22.093  1.00  0.00     0.017 C 
HETATM    7  C9  UNL     1       4.229   6.091  22.508  1.00  0.00     0.098 C 
HETATM    8  C19 UNL     1       3.365   5.987  23.684  1.00  0.00     0.045 C 
HETATM    9  C20 UNL     1       2.935   7.289  24.342  1.00  0.00     0.048 C 
HETATM   10  C22 UNL     1       4.047   7.592  25.345  1.00  0.00     0.024 C 
ENDROOT
BRANCH   7  11
HETATM   11  N1  UNL     1       5.338   5.265  22.346  1.00  0.00    -0.314 N 
ATOM     12  H1  UNL     1       6.097   5.277  23.027  1.00  0.00     0.172 HD
BRANCH  11  13
HETATM   13  S1  UNL     1       5.406   4.240  21.000  1.00  0.00     0.227 S 
HETATM   14  O1  UNL     1       5.749   2.869  21.569  1.00  0.00    -0.206 OA
HETATM   15  O2  UNL     1       4.043   4.090  20.390  1.00  0.00    -0.206 OA
BRANCH  13  16
HETATM   16  C10 UNL     1       6.614   4.638  19.816  1.00  0.00     0.167 C 
BRANCH  16  17
HETATM   17  C11 UNL     1       7.279   3.492  19.131  1.00  0.00     0.001 C 
HETATM   18  C12 UNL     1       6.457   2.905  18.011  1.00  0.00     0.006 C 
HETATM   19  C13 UNL     1       6.706   1.435  17.821  1.00  0.00     0.005 C 
HETATM   20  C14 UNL     1       8.117   1.080  17.531  1.00  0.00    -0.014 C 
HETATM   21  C15 UNL     1       9.045   1.234  18.727  1.00  0.00     0.009 C 
HETATM   22  C17 UNL     1       8.905   2.182  16.861  1.00  0.00     0.009 C 
HETATM   23  C16 UNL     1       9.422   2.570  18.219  1.00  0.00    -0.013 C 
HETATM   24  C18 UNL     1       8.702   3.741  18.809  1.00  0.00     0.010 C 
ENDBRANCH  16  17
ENDBRANCH  13  16
ENDBRANCH  11  13
ENDBRANCH   7  11
BRANCH   9  25
HETATM   25  C21 UNL     1       1.738   6.919  25.146  1.00  0.00     0.240 C 
HETATM   26  N2  UNL     1       1.179   5.588  24.984  1.00  0.00    -0.061 NA
HETATM   27  O3  UNL     1       1.133   7.626  25.964  1.00  0.00    -0.276 OA
ENDBRANCH   9  25
BRANCH   1  28
HETATM   28  C2  UNL     1       1.407   9.019  23.255  1.00  0.00     0.006 C 
HETATM   29  C1  UNL     1       1.513  10.536  23.466  1.00  0.00     0.006 C 
ENDBRANCH   1  28
TORSDOF 6
ENDMDL
MODEL 4
REMARK VINA RESULT: -7.741685272      3.855      6.558
REMARK  6 active torsions:
REMARK  status: ('A' for Active; 'I' for Inactive)
REMARK    1  A    between atoms: C2_2  and  C3_3 
REMARK    2  A    between atoms: C9_9  and  N1_10 
REMARK    3  A    between atoms: N1_10  and  S1_12 
REMARK    4  A    between atoms: S1_12  and  C10_15 
REMARK    5  A    between atoms: C10_15  and  C11_16 
REMARK    6  A    between atoms: C20_25  and  C21_26 
ROOT
HETATM    1  C3  UNL     1       7.567   3.500  17.990  1.00  0.00    -0.024 C 
HETATM    2  C4  UNL     1       9.057   3.402  18.416  1.00  0.00     0.015 C 
HETATM    3  C5  UNL     1       9.223   1.899  18.405  1.00  0.00    -0.012 C 
HETATM    4  C6  UNL     1       9.057   1.321  17.025  1.00  0.00     0.011 C 
HETATM    5  C7  UNL     1       7.973   1.908  16.205  1.00  0.00     0.010 C 
HETATM    6  C8  UNL     1       7.701   3.378  16.448  1.00  0.00     0.017 C 
HETATM    7  C9  UNL     1       6.613   1.225  16.384  1.00  0.00     0.098 C 
HETATM    8  C19 UNL     1       6.151   1.400  17.761  1.00  0.00     0.045 C 
HETATM    9  C20 UNL     1       6.941   2.362  18.636  1.00  0.00     0.048 C 
HETATM   10  C22 UNL     1       8.042   1.499  19.250  1.00  0.00     0.024 C 
ENDROOT
BRANCH   7  11
HETATM   11  N1  UNL     1       6.694  -0.037  15.800  1.00  0.00    -0.314 N 
ATOM     12  H1  UNL     1       7.495  -0.641  15.983  1.00  0.00     0.172 HD
BRANCH  11  13
HETATM   13  S1  UNL     1       5.442  -0.552  14.784  1.00  0.00     0.227 S 
HETATM   14  O1  UNL     1       4.181  -0.449  15.633  1.00  0.00    -0.206 OA
HETATM   15  O2  UNL     1       5.248   0.426  13.660  1.00  0.00    -0.206 OA
BRANCH  13  16
HETATM   16  C10 UNL     1       5.564  -2.188  14.215  1.00  0.00     0.167 C 
BRANCH  16  17
HETATM   17  C11 UNL     1       6.602  -3.043  14.860  1.00  0.00     0.001 C 
HETATM   18  C12 UNL     1       6.074  -4.378  15.323  1.00  0.00     0.006 C 
HETATM   19  C13 UNL     1       6.802  -4.899  16.531  1.00  0.00     0.005 C 
HETATM   20  C14 UNL     1       8.264  -5.072  16.345  1.00  0.00    -0.014 C 
HETATM   21  C15 UNL     1       9.030  -3.760  16.265  1.00  0.00     0.009 C 
HETATM   22  C17 UNL     1       8.678  -5.324  14.914  1.00  0.00     0.009 C 
HETATM   23  C16 UNL     1       8.971  -3.855  14.791  1.00  0.00    -0.013 C 
HETATM   24  C18 UNL     1       7.878  -3.091  14.112  1.00  0.00     0.010 C 
ENDBRANCH  16  17
ENDBRANCH  13  16
ENDBRANCH  11  13
ENDBRANCH   7  11
BRANCH   9  25
HETATM   25  C21 UNL     1       6.009   2.702  19.745  1.00  0.00     0.240 C 
HETATM   26  N2  UNL     1       6.548   2.829  21.088  1.00  0.00    -0.061 NA
HETATM   27  O3  UNL     1       4.787   2.896  19.670  1.00  0.00    -0.276 OA
ENDBRANCH   9  25
BRANCH   1  28
HETATM   28  C2  UNL     1       7.071   4.882  18.257  1.00  0.00     0.006 C 
HETATM   29  C1  UNL     1       6.122   5.249  17.108  1.00  0.00     0.006 C 
ENDBRANCH   1  28
TORSDOF 6
ENDMDL
MODEL 5
REMARK VINA RESULT: -7.673231310      1.949      3.015
REMARK  6 active torsions:
REMARK  status: ('A' for Active; 'I' for Inactive)
REMARK    1  A    between atoms: C2_2  and  C3_3 
REMARK    2  A    between atoms: C9_9  and  N1_10 
REMARK    3  A    between atoms: N1_10  and  S1_12 
REMARK    4  A    between atoms: S1_12  and  C10_15 
REMARK    5  A    between atoms: C10_15  and  C11_16 
REMARK    6  A    between atoms: C20_25  and  C21_26 
ROOT
HETATM    1  C3  UNL     1       4.740   6.791  20.167  1.00  0.00    -0.024 C 
HETATM    2  C4  UNL     1       4.685   8.342  20.116  1.00  0.00     0.015 C 
HETATM    3  C5  UNL     1       5.623   8.589  18.956  1.00  0.00    -0.012 C 
HETATM    4  C6  UNL     1       5.090   8.025  17.667  1.00  0.00     0.011 C 
HETATM    5  C7  UNL     1       4.435   6.701  17.762  1.00  0.00     0.010 C 
HETATM    6  C8  UNL     1       3.710   6.430  19.064  1.00  0.00     0.017 C 
HETATM    7  C9  UNL     1       5.393   5.516  17.595  1.00  0.00     0.098 C 
HETATM    8  C19 UNL     1       6.365   5.511  18.688  1.00  0.00     0.045 C 
HETATM    9  C20 UNL     1       6.118   6.478  19.836  1.00  0.00     0.048 C 
HETATM   10  C22 UNL     1       6.807   7.770  19.399  1.00  0.00     0.024 C 
ENDROOT
BRANCH   7  11
HETATM   11  N1  UNL     1       5.797   5.484  16.263  1.00  0.00    -0.314 N 
ATOM     12  H1  UNL     1       6.390   6.222  15.884  1.00  0.00     0.172 HD
BRANCH  11  13
HETATM   13  S1  UNL     1       5.288   4.201  15.283  1.00  0.00     0.227 S 
HETATM   14  O1  UNL     1       3.942   3.779  15.857  1.00  0.00    -0.206 OA
HETATM   15  O2  UNL     1       4.994   4.691  13.894  1.00  0.00    -0.206 OA
BRANCH  13  16
HETATM   16  C10 UNL     1       6.323   2.805  15.280  1.00  0.00     0.167 C 
BRANCH  16  17
HETATM   17  C11 UNL     1       7.121   2.564  16.517  1.00  0.00     0.001 C 
HETATM   18  C12 UNL     1       6.434   1.657  17.506  1.00  0.00     0.006 C 
HETATM   19  C13 UNL     1       6.805   1.968  18.929  1.00  0.00     0.005 C 
HETATM   20  C14 UNL     1       8.256   1.881  19.223  1.00  0.00    -0.014 C 
HETATM   21  C15 UNL     1       9.075   3.006  18.607  1.00  0.00     0.009 C 
HETATM   22  C17 UNL     1       9.011   0.929  18.325  1.00  0.00     0.009 C 
HETATM   23  C16 UNL     1       9.391   2.110  17.476  1.00  0.00    -0.013 C 
HETATM   24  C18 UNL     1       8.543   2.250  16.250  1.00  0.00     0.010 C 
ENDBRANCH  16  17
ENDBRANCH  13  16
ENDBRANCH  11  13
ENDBRANCH   7  11
BRANCH   9  25
HETATM   25  C21 UNL     1       6.927   5.933  20.959  1.00  0.00     0.240 C 
HETATM   26  N2  UNL     1       7.496   6.864  21.918  1.00  0.00    -0.061 NA
HETATM   27  O3  UNL     1       7.190   4.744  21.190  1.00  0.00    -0.276 OA
ENDBRANCH   9  25
BRANCH   1  28
HETATM   28  C2  UNL     1       4.153   6.322  21.456  1.00  0.00     0.006 C 
HETATM   29  C1  UNL     1       3.865   7.572  22.299  1.00  0.00     0.006 C 
ENDBRANCH   1  28
TORSDOF 6
ENDMDL
