MODEL 1
REMARK VINA RESULT: -8.572062850      0.000      0.000
REMARK  6 active torsions:
REMARK  status: ('A' for Active; 'I' for Inactive)
REMARK    1  A    between atoms: C2_2  and  C3_4 
REMARK    2  A    between atoms: C5_9  and  C6_10 
REMARK    3  A    between atoms: C6_10  and  N2_11 
REMARK    4  A    between atoms: C10_15  and  C11_16 
REMARK    5  A    between atoms: C11_16  and  C12_17 
REMARK       I    between atoms: C12_17  and  N3_19 
REMARK    6  A    between atoms: N3_19  and  C13_21 
ROOT
HETATM    1  C3  UNL     1       6.244   8.643  23.772  1.00  0.00     0.159 C 
HETATM    2  N1  UNL     1       5.486   8.951  24.994  1.00  0.00    -0.349 N 
ATOM      3  H1  UNL     1       5.748   9.641  25.698  1.00  0.00     0.163 HD
HETATM    4  C4  UNL     1       4.304   8.108  25.033  1.00  0.00     0.229 C 
HETATM    5  O2  UNL     1       3.676   7.959  26.102  1.00  0.00    -0.273 OA
HETATM    6  C5  UNL     1       4.181   7.629  23.675  1.00  0.00     0.073 C 
HETATM    7  C9  UNL     1       3.699   6.222  23.484  1.00  0.00     0.026 C 
HETATM    8  C10 UNL     1       4.543   5.717  22.330  1.00  0.00    -0.004 C 
HETATM    9  C23 UNL     1       5.593   6.814  22.074  1.00  0.00     0.013 C 
HETATM   10  C24 UNL     1       5.668   7.366  23.412  1.00  0.00     0.036 C 
ENDROOT
BRANCH   8  11
HETATM   11  C11 UNL     1       3.769   5.388  21.114  1.00  0.00     0.107 C 
BRANCH  11  12
HETATM   12  C12 UNL     1       4.682   4.803  20.082  1.00  0.00     0.218 C 
HETATM   13  O3  UNL     1       4.665   5.272  18.926  1.00  0.00    -0.274 OA
HETATM   14  N3  UNL     1       5.561   3.740  20.376  1.00  0.00    -0.352 N 
ATOM     15  H3  UNL     1       5.557   3.373  21.327  1.00  0.00     0.163 HD
BRANCH  14  16
HETATM   16  C13 UNL     1       6.462   3.136  19.433  1.00  0.00     0.034 C 
HETATM   17  C14 UNL     1       5.701   2.470  18.292  1.00  0.00     0.035 C 
HETATM   18  C15 UNL     1       6.668   2.076  17.205  1.00  0.00    -0.012 C 
HETATM   19  C16 UNL     1       7.598   1.030  17.781  1.00  0.00     0.009 C 
HETATM   20  C20 UNL     1       7.484   3.216  16.687  1.00  0.00     0.009 C 
HETATM   21  C17 UNL     1       8.316   1.605  18.982  1.00  0.00    -0.012 C 
HETATM   22  C18 UNL     1       9.200   2.723  18.462  1.00  0.00     0.009 C 
HETATM   23  C22 UNL     1       7.340   2.058  20.030  1.00  0.00     0.035 C 
HETATM   24  C19 UNL     1       8.297   3.754  17.839  1.00  0.00    -0.012 C 
HETATM   25  C21 UNL     1       7.356   4.244  18.901  1.00  0.00     0.035 C 
ENDBRANCH  14  16
ENDBRANCH  11  12
ENDBRANCH   8  11
BRANCH   6  26
HETATM   26  C6  UNL     1       3.557   8.614  22.779  1.00  0.00     0.290 C 
BRANCH  26  27
HETATM   27  N2  UNL     1       2.404   9.247  23.264  1.00  0.00     0.081 N 
HETATM   28  C7  UNL     1       2.357  10.642  23.444  1.00  0.00     0.309 C 
HETATM   29  C8  UNL     1       1.245   8.799  22.522  1.00  0.00     0.309 C 
ENDBRANCH  26  27
ENDBRANCH   6  26
BRANCH   1  30
HETATM   30  C2  UNL     1       7.699   8.421  24.142  1.00  0.00     0.146 C 
HETATM   31  C1  UNL     1       8.654   9.400  23.599  1.00  0.00     0.093 C 
HETATM   32  O1  UNL     1       8.045   7.488  24.845  1.00  0.00    -0.296 OA
ENDBRANCH   1  30
TORSDOF 6
ENDMDL
MODEL 2
REMARK VINA RESULT: -8.539350930      1.355      2.216
REMARK  6 active torsions:
REMARK  status: ('A' for Active; 'I' for Inactive)
REMARK    1  A    between atoms: C2_2  and  C3_4 
REMARK    2  A    between atoms: C5_9  and  C6_10 
REMARK    3  A    between atoms: C6_10  and  N2_11 
REMARK    4  A    between atoms: C10_15  and  C11_16 
REMARK    5  A    between atoms: C11_16  and  C12_17 
REMARK       I    between atoms: C12_17  and  N3_19 
REMARK    6  A    between atoms: N3_19  and  C13_21 
ROOT
HETATM    1  C3  UNL     1       7.024   8.574  24.161  1.00  0.00     0.159 C 
HETATM    2  N1  UNL     1       6.009   8.020  25.069  1.00  0.00    -0.349 N 
ATOM      3  H1  UNL     1       5.933   8.217  26.067  1.00  0.00     0.163 HD
HETATM    4  C4  UNL     1       5.133   7.144  24.309  1.00  0.00     0.229 C 
HETATM    5  O2  UNL     1       4.398   6.326  24.901  1.00  0.00    -0.273 OA
HETATM    6  C5  UNL     1       5.392   7.511  22.936  1.00  0.00     0.073 C 
HETATM    7  C9  UNL     1       5.379   6.410  21.918  1.00  0.00     0.026 C 
HETATM    8  C10 UNL     1       6.520   6.779  20.990  1.00  0.00    -0.004 C 
HETATM    9  C23 UNL     1       7.236   7.964  21.664  1.00  0.00     0.013 C 
HETATM   10  C24 UNL     1       6.914   7.661  23.044  1.00  0.00     0.036 C 
ENDROOT
BRANCH   8  11
HETATM   11  C11 UNL     1       6.098   7.092  19.607  1.00  0.00     0.107 C 
BRANCH  11  12
HETATM   12  C12 UNL     1       6.499   5.975  18.696  1.00  0.00     0.218 C 
HETATM   13  O3  UNL     1       6.297   6.093  17.470  1.00  0.00    -0.274 OA
HETATM   14  N3  UNL     1       7.099   4.793  19.179  1.00  0.00    -0.352 N 
ATOM     15  H3  UNL     1       7.254   4.719  20.184  1.00  0.00     0.163 HD
BRANCH  14  16
HETATM   16  C13 UNL     1       7.509   3.686  18.358  1.00  0.00     0.034 C 
HETATM   17  C14 UNL     1       9.016   3.470  18.438  1.00  0.00     0.035 C 
HETATM   18  C15 UNL     1       9.372   2.162  17.777  1.00  0.00    -0.012 C 
HETATM   19  C16 UNL     1       9.024   2.285  16.309  1.00  0.00     0.009 C 
HETATM   20  C20 UNL     1       8.648   0.986  18.349  1.00  0.00     0.009 C 
HETATM   21  C17 UNL     1       7.551   2.596  16.168  1.00  0.00    -0.012 C 
HETATM   22  C18 UNL     1       6.801   1.382  16.686  1.00  0.00     0.009 C 
HETATM   23  C22 UNL     1       7.194   3.865  16.889  1.00  0.00     0.035 C 
HETATM   24  C19 UNL     1       7.172   1.212  18.134  1.00  0.00    -0.012 C 
HETATM   25  C21 UNL     1       6.767   2.460  18.863  1.00  0.00     0.035 C 
ENDBRANCH  14  16
ENDBRANCH  11  12
ENDBRANCH   8  11
BRANCH   6  26
HETATM   26  C6  UNL     1       4.676   8.729  22.527  1.00  0.00     0.290 C 
BRANCH  26  27
HETATM   27  N2  UNL     1       3.302   8.759  22.803  1.00  0.00     0.081 N 
HETATM   28  C7  UNL     1       2.749   9.731  23.657  1.00  0.00     0.309 C 
HETATM   29  C8  UNL     1       2.549   8.690  21.569  1.00  0.00     0.309 C 
ENDBRANCH  26  27
ENDBRANCH   6  26
BRANCH   1  30
HETATM   30  C2  UNL     1       8.393   8.393  24.789  1.00  0.00     0.146 C 
HETATM   31  C1  UNL     1       9.409   9.389  24.410  1.00  0.00     0.093 C 
HETATM   32  O1  UNL     1       8.628   7.478  25.558  1.00  0.00    -0.296 OA
ENDBRANCH   1  30
TORSDOF 6
ENDMDL
MODEL 3
REMARK VINA RESULT: -8.530401267      0.154      1.348
REMARK  6 active torsions:
REMARK  status: ('A' for Active; 'I' for Inactive)
REMARK    1  A    between atoms: C2_2  and  C3_4 
REMARK    2  A    between atoms: C5_9  and  C6_10 
REMARK    3  A    between atoms: C6_10  and  N2_11 
REMARK    4  A    between atoms: C10_15  and  C11_16 
REMARK    5  A    between atoms: C11_16  and  C12_17 
REMARK       I    between atoms: C12_17  and  N3_19 
REMARK    6  A    between atoms: N3_19  and  C13_21 
ROOT
HETATM    1  C3  UNL     1       6.215   8.620  23.754  1.00  0.00     0.159 C 
HETATM    2  N1  UNL     1       5.495   8.935  24.997  1.00  0.00    -0.349 N 
ATOM      3  H1  UNL     1       5.780   9.627  25.690  1.00  0.00     0.163 HD
HETATM    4  C4  UNL     1       4.311   8.096  25.074  1.00  0.00     0.229 C 
HETATM    5  O2  UNL     1       3.714   7.954  26.161  1.00  0.00    -0.273 OA
HETATM    6  C5  UNL     1       4.146   7.614  23.722  1.00  0.00     0.073 C 
HETATM    7  C9  UNL     1       3.653   6.208  23.550  1.00  0.00     0.026 C 
HETATM    8  C10 UNL     1       4.460   5.696  22.373  1.00  0.00    -0.004 C 
HETATM    9  C23 UNL     1       5.507   6.787  22.082  1.00  0.00     0.013 C 
HETATM   10  C24 UNL     1       5.624   7.344  23.416  1.00  0.00     0.036 C 
ENDROOT
BRANCH   8  11
HETATM   11  C11 UNL     1       3.649   5.366  21.182  1.00  0.00     0.107 C 
BRANCH  11  12
HETATM   12  C12 UNL     1       4.546   4.887  20.083  1.00  0.00     0.218 C 
HETATM   13  O3  UNL     1       4.504   5.461  18.976  1.00  0.00    -0.274 OA
HETATM   14  N3  UNL     1       5.437   3.808  20.259  1.00  0.00    -0.352 N 
ATOM     15  H3  UNL     1       5.453   3.353  21.172  1.00  0.00     0.163 HD
BRANCH  14  16
HETATM   16  C13 UNL     1       6.324   3.302  19.247  1.00  0.00     0.034 C 
HETATM   17  C14 UNL     1       7.184   4.416  18.662  1.00  0.00     0.035 C 
HETATM   18  C15 UNL     1       8.265   3.817  17.800  1.00  0.00    -0.012 C 
HETATM   19  C16 UNL     1       7.588   3.128  16.634  1.00  0.00     0.009 C 
HETATM   20  C20 UNL     1       9.121   2.824  18.517  1.00  0.00     0.009 C 
HETATM   21  C17 UNL     1       6.644   2.069  17.159  1.00  0.00    -0.012 C 
HETATM   22  C18 UNL     1       7.505   1.019  17.834  1.00  0.00     0.009 C 
HETATM   23  C22 UNL     1       5.613   2.668  18.072  1.00  0.00     0.035 C 
HETATM   24  C19 UNL     1       8.228   1.695  18.969  1.00  0.00    -0.012 C 
HETATM   25  C21 UNL     1       7.196   2.247  19.908  1.00  0.00     0.035 C 
ENDBRANCH  14  16
ENDBRANCH  11  12
ENDBRANCH   8  11
BRANCH   6  26
HETATM   26  C6  UNL     1       3.500   8.598  22.840  1.00  0.00     0.290 C 
BRANCH  26  27
HETATM   27  N2  UNL     1       2.374   9.249  23.364  1.00  0.00     0.081 N 
HETATM   28  C7  UNL     1       2.329  10.651  23.482  1.00  0.00     0.309 C 
HETATM   29  C8  UNL     1       1.176   8.764  22.713  1.00  0.00     0.309 C 
ENDBRANCH  26  27
ENDBRANCH   6  26
BRANCH   1  30
HETATM   30  C2  UNL     1       7.679   8.392  24.082  1.00  0.00     0.146 C 
HETATM   31  C1  UNL     1       8.617   9.393  23.546  1.00  0.00     0.093 C 
HETATM   32  O1  UNL     1       8.046   7.441  24.747  1.00  0.00    -0.296 OA
ENDBRANCH   1  30
TORSDOF 6
ENDMDL
MODEL 4
REMARK VINA RESULT: -8.459072985      0.144      1.338
REMARK  6 active torsions:
REMARK  status: ('A' for Active; 'I' for Inactive)
REMARK    1  A    between atoms: C2_2  and  C3_4 
REMARK    2  A    between atoms: C5_9  and  C6_10 
REMARK    3  A    between atoms: C6_10  and  N2_11 
REMARK    4  A    between atoms: C10_15  and  C11_16 
REMARK    5  A    between atoms: C11_16  and  C12_17 
REMARK       I    between atoms: C12_17  and  N3_19 
REMARK    6  A    between atoms: N3_19  and  C13_21 
ROOT
HETATM    1  C3  UNL     1       6.206   8.632  23.867  1.00  0.00     0.159 C 
HETATM    2  N1  UNL     1       5.422   8.951  25.070  1.00  0.00    -0.349 N 
ATOM      3  H1  UNL     1       5.663   9.654  25.767  1.00  0.00     0.163 HD
HETATM    4  C4  UNL     1       4.247   8.096  25.099  1.00  0.00     0.229 C 
HETATM    5  O2  UNL     1       3.600   7.957  26.158  1.00  0.00    -0.273 OA
HETATM    6  C5  UNL     1       4.155   7.596  23.746  1.00  0.00     0.073 C 
HETATM    7  C9  UNL     1       3.691   6.181  23.567  1.00  0.00     0.026 C 
HETATM    8  C10 UNL     1       4.562   5.668  22.437  1.00  0.00    -0.004 C 
HETATM    9  C23 UNL     1       5.606   6.771  22.184  1.00  0.00     0.013 C 
HETATM   10  C24 UNL     1       5.650   7.344  23.515  1.00  0.00     0.036 C 
ENDROOT
BRANCH   8  11
HETATM   11  C11 UNL     1       3.814   5.313  21.211  1.00  0.00     0.107 C 
BRANCH  11  12
HETATM   12  C12 UNL     1       4.772   4.856  20.155  1.00  0.00     0.218 C 
HETATM   13  O3  UNL     1       4.784   5.444  19.055  1.00  0.00    -0.274 OA
HETATM   14  N3  UNL     1       5.662   3.782  20.366  1.00  0.00    -0.352 N 
ATOM     15  H3  UNL     1       5.634   3.316  21.273  1.00  0.00     0.163 HD
BRANCH  14  16
HETATM   16  C13 UNL     1       6.606   3.297  19.396  1.00  0.00     0.034 C 
HETATM   17  C14 UNL     1       7.497   2.212  19.990  1.00  0.00     0.035 C 
HETATM   18  C15 UNL     1       8.291   1.555  18.890  1.00  0.00    -0.012 C 
HETATM   19  C16 UNL     1       9.210   2.604  18.303  1.00  0.00     0.009 C 
HETATM   20  C20 UNL     1       7.443   0.988  17.797  1.00  0.00     0.009 C 
HETATM   21  C17 UNL     1       8.383   3.757  17.779  1.00  0.00    -0.012 C 
HETATM   22  C18 UNL     1       7.563   3.212  16.624  1.00  0.00     0.009 C 
HETATM   23  C22 UNL     1       7.543   4.360  18.869  1.00  0.00     0.035 C 
HETATM   24  C19 UNL     1       6.676   2.130  17.178  1.00  0.00    -0.012 C 
HETATM   25  C21 UNL     1       5.801   2.745  18.231  1.00  0.00     0.035 C 
ENDBRANCH  14  16
ENDBRANCH  11  12
ENDBRANCH   8  11
BRANCH   6  26
HETATM   26  C6  UNL     1       3.539   8.561  22.823  1.00  0.00     0.290 C 
BRANCH  26  27
HETATM   27  N2  UNL     1       2.381   9.203  23.284  1.00  0.00     0.081 N 
HETATM   28  C7  UNL     1       2.320  10.604  23.404  1.00  0.00     0.309 C 
HETATM   29  C8  UNL     1       1.225   8.712  22.565  1.00  0.00     0.309 C 
ENDBRANCH  26  27
ENDBRANCH   6  26
BRANCH   1  30
HETATM   30  C2  UNL     1       7.656   8.430  24.268  1.00  0.00     0.146 C 
HETATM   31  C1  UNL     1       8.604   9.439  23.768  1.00  0.00     0.093 C 
HETATM   32  O1  UNL     1       8.003   7.490  24.959  1.00  0.00    -0.296 OA
ENDBRANCH   1  30
TORSDOF 6
ENDMDL
MODEL 5
REMARK VINA RESULT: -8.431576344      1.469      1.982
REMARK  6 active torsions:
REMARK  status: ('A' for Active; 'I' for Inactive)
REMARK    1  A    between atoms: C2_2  and  C3_4 
REMARK    2  A    between atoms: C5_9  and  C6_10 
REMARK    3  A    between atoms: C6_10  and  N2_11 
REMARK    4  A    between atoms: C10_15  and  C11_16 
REMARK    5  A    between atoms: C11_16  and  C12_17 
REMARK       I    between atoms: C12_17  and  N3_19 
REMARK    6  A    between atoms: N3_19  and  C13_21 
ROOT
HETATM    1  C3  UNL     1       7.112   8.491  24.224  1.00  0.00     0.159 C 
HETATM    2  N1  UNL     1       6.053   7.860  25.027  1.00  0.00    -0.349 N 
ATOM      3  H1  UNL     1       5.895   8.009  26.023  1.00  0.00     0.163 HD
HETATM    4  C4  UNL     1       5.271   6.990  24.165  1.00  0.00     0.229 C 
HETATM    5  O2  UNL     1       4.527   6.120  24.664  1.00  0.00    -0.273 OA
HETATM    6  C5  UNL     1       5.619   7.428  22.833  1.00  0.00     0.073 C 
HETATM    7  C9  UNL     1       5.725   6.375  21.770  1.00  0.00     0.026 C 
HETATM    8  C10 UNL     1       6.917   6.825  20.949  1.00  0.00    -0.004 C 
HETATM    9  C23 UNL     1       7.534   8.003  21.726  1.00  0.00     0.013 C 
HETATM   10  C24 UNL     1       7.121   7.627  23.064  1.00  0.00     0.036 C 
ENDROOT
BRANCH   8  11
HETATM   11  C11 UNL     1       6.588   7.186  19.553  1.00  0.00     0.107 C 
BRANCH  11  12
HETATM   12  C12 UNL     1       6.703   5.974  18.682  1.00  0.00     0.218 C 
HETATM   13  O3  UNL     1       6.200   6.001  17.541  1.00  0.00    -0.274 OA
HETATM   14  N3  UNL     1       7.361   4.803  19.112  1.00  0.00    -0.352 N 
ATOM     15  H3  UNL     1       7.764   4.804  20.049  1.00  0.00     0.163 HD
BRANCH  14  16
HETATM   16  C13 UNL     1       7.507   3.609  18.325  1.00  0.00     0.034 C 
HETATM   17  C14 UNL     1       7.052   3.837  16.888  1.00  0.00     0.035 C 
HETATM   18  C15 UNL     1       7.453   2.657  16.039  1.00  0.00    -0.012 C 
HETATM   19  C16 UNL     1       6.696   1.451  16.552  1.00  0.00     0.009 C 
HETATM   20  C20 UNL     1       8.918   2.362  16.079  1.00  0.00     0.009 C 
HETATM   21  C17 UNL     1       7.036   1.229  18.010  1.00  0.00    -0.012 C 
HETATM   22  C18 UNL     1       8.508   0.864  18.060  1.00  0.00     0.009 C 
HETATM   23  C22 UNL     1       6.696   2.438  18.834  1.00  0.00     0.035 C 
HETATM   24  C19 UNL     1       9.277   2.033  17.507  1.00  0.00    -0.012 C 
HETATM   25  C21 UNL     1       8.978   3.228  18.363  1.00  0.00     0.035 C 
ENDBRANCH  14  16
ENDBRANCH  11  12
ENDBRANCH   8  11
BRANCH   6  26
HETATM   26  C6  UNL     1       4.889   8.637  22.422  1.00  0.00     0.290 C 
BRANCH  26  27
HETATM   27  N2  UNL     1       3.490   8.549  22.442  1.00  0.00     0.081 N 
HETATM   28  C7  UNL     1       2.719   9.359  23.297  1.00  0.00     0.309 C 
HETATM   29  C8  UNL     1       2.972   8.613  21.092  1.00  0.00     0.309 C 
ENDBRANCH  26  27
ENDBRANCH   6  26
BRANCH   1  30
HETATM   30  C2  UNL     1       8.436   8.330  24.947  1.00  0.00     0.146 C 
HETATM   31  C1  UNL     1       9.478   9.309  24.599  1.00  0.00     0.093 C 
HETATM   32  O1  UNL     1       8.616   7.443  25.762  1.00  0.00    -0.296 OA
ENDBRANCH   1  30
TORSDOF 6
ENDMDL
