MODEL 1
REMARK VINA RESULT: -9.844601465      0.000      0.000
REMARK  11 active torsions:
REMARK  status: ('A' for Active; 'I' for Inactive)
REMARK       I    between atoms: N1_3  and  C3_5 
REMARK       I    between atoms: C3_5  and  N3_9 
REMARK    1  A    between atoms: C7_13  and  C8_14 
REMARK    2  A    between atoms: C8_14  and  C9_15 
REMARK       I    between atoms: C9_15  and  N4_17 
REMARK    3  A    between atoms: N4_17  and  C10_19 
REMARK    4  A    between atoms: C10_19  and  C11_20 
REMARK    5  A    between atoms: C10_19  and  C25_37 
REMARK    6  A    between atoms: C11_20  and  C12_21 
REMARK    7  A    between atoms: C12_21  and  C13_22 
REMARK    8  A    between atoms: N5_25  and  C16_26 
REMARK    9  A    between atoms: C19_29  and  C20_30 
REMARK       I    between atoms: C25_37  and  N6_39 
REMARK   10  A    between atoms: N6_39  and  C26_41 
REMARK   11  A    between atoms: C26_41  and  C27_42 
ROOT
HETATM    1  C1  UNL     1       4.285  27.063   4.118  1.00  0.00     0.037 C 
HETATM    2  C2  UNL     1       5.246  26.379   4.285  1.00  0.00     0.015 C 
HETATM    3  N1  UNL     1       6.365  25.571   4.499  1.00  0.00    -0.150 N 
ATOM      4  H1  UNL     1       6.887  25.667   5.370  1.00  0.00     0.195 HD
HETATM    5  C3  UNL     1       6.797  24.617   3.537  1.00  0.00     0.681 C 
HETATM    6  N2  UNL     1       6.477  23.352   3.616  1.00  0.00    -0.234 N 
ATOM      7  H21 UNL     1       6.787  22.668   2.926  1.00  0.00     0.174 HD
ATOM      8  H22 UNL     1       5.897  23.019   4.386  1.00  0.00     0.174 HD
HETATM    9  N3  UNL     1       7.604  25.081   2.466  1.00  0.00    -0.212 N 
HETATM   10  C4  UNL     1       7.256  25.302   1.079  1.00  0.00     0.141 C 
HETATM   11  C5  UNL     1       8.098  26.505   0.715  1.00  0.00     0.022 C 
HETATM   12  C6  UNL     1       9.416  26.188   1.388  1.00  0.00     0.028 C 
HETATM   13  C7  UNL     1       8.990  25.425   2.612  1.00  0.00     0.110 C 
ENDROOT
BRANCH  13  14
HETATM   14  C8  UNL     1       9.768  24.131   2.660  1.00  0.00     0.128 C 
BRANCH  14  15
HETATM   15  C9  UNL     1      10.187  23.880   4.048  1.00  0.00     0.220 C 
HETATM   16  O1  UNL     1      10.423  22.703   4.410  1.00  0.00    -0.274 OA
HETATM   17  N4  UNL     1      10.317  24.956   4.948  1.00  0.00    -0.348 N 
ATOM     18  H4  UNL     1      10.119  25.905   4.631  1.00  0.00     0.163 HD
BRANCH  17  19
HETATM   19  C10 UNL     1      10.740  24.725   6.351  1.00  0.00     0.176 C 
BRANCH  19  20
HETATM   20  C11 UNL     1      12.218  25.063   6.314  1.00  0.00     0.035 C 
BRANCH  20  21
HETATM   21  C12 UNL     1      13.121  24.109   6.984  1.00  0.00     0.007 C 
BRANCH  21  22
HETATM   22  C13 UNL     1      14.322  23.743   6.132  1.00  0.00    -0.008 C 
HETATM   23  C14 UNL     1      15.375  23.042   6.989  1.00  0.00     0.049 C 
HETATM   24  C15 UNL     1      15.020  21.594   7.214  1.00  0.00     0.059 C 
HETATM   25  N5  UNL     1      14.604  20.869   6.084  1.00  0.00    -0.389 N 
HETATM   26  C23 UNL     1      13.639  21.505   5.237  1.00  0.00     0.122 C 
HETATM   27  C24 UNL     1      13.968  22.940   4.935  1.00  0.00     0.024 C 
BRANCH  25  28
HETATM   28  C16 UNL     1      15.473  19.940   5.487  1.00  0.00     0.083 C 
HETATM   29  C17 UNL     1      16.707  20.633   4.976  1.00  0.00     0.026 C 
HETATM   30  C18 UNL     1      17.738  19.618   4.493  1.00  0.00     0.017 C 
HETATM   31  C19 UNL     1      17.067  18.917   3.304  1.00  0.00     0.087 C 
HETATM   32  C21 UNL     1      15.918  18.133   3.884  1.00  0.00     0.017 C 
HETATM   33  C22 UNL     1      14.844  19.042   4.454  1.00  0.00     0.026 C 
BRANCH  31  34
HETATM   34  C20 UNL     1      18.004  17.985   2.655  1.00  0.00     0.177 C 
HETATM   35  O2  UNL     1      19.223  18.091   2.874  1.00  0.00    -0.648 OA
HETATM   36  O3  UNL     1      17.529  16.998   1.806  1.00  0.00    -0.648 OA
ENDBRANCH  31  34
ENDBRANCH  25  28
ENDBRANCH  21  22
ENDBRANCH  20  21
ENDBRANCH  19  20
BRANCH  19  37
HETATM   37  C25 UNL     1       9.938  25.631   7.193  1.00  0.00     0.241 C 
HETATM   38  O4  UNL     1      10.123  25.641   8.427  1.00  0.00    -0.271 OA
HETATM   39  N6  UNL     1       8.961  26.506   6.679  1.00  0.00    -0.342 N 
ATOM     40  H6  UNL     1       8.811  26.509   5.671  1.00  0.00     0.163 HD
BRANCH  39  41
HETATM   41  C26 UNL     1       8.162  27.395   7.475  1.00  0.00     0.111 C 
HETATM   42  C28 UNL     1       7.199  28.225   6.663  1.00  0.00     0.041 C 
HETATM   43  C29 UNL     1       6.107  27.871   7.646  1.00  0.00     0.006 C 
HETATM   44  C30 UNL     1       7.000  26.781   8.190  1.00  0.00     0.041 C 
BRANCH  41  45
HETATM   45  C27 UNL     1       8.917  28.285   8.414  1.00  0.00     0.259 C 
HETATM   46  N7  UNL     1       8.631  28.321   9.793  1.00  0.00    -0.060 NA
HETATM   47  O5  UNL     1       9.830  29.025   7.981  1.00  0.00    -0.274 OA
ENDBRANCH  41  45
ENDBRANCH  39  41
ENDBRANCH  19  37
ENDBRANCH  17  19
ENDBRANCH  14  15
ENDBRANCH  13  14
TORSDOF 11
ENDMDL
MODEL 2
REMARK VINA RESULT: -9.362141289      1.663      4.441
REMARK  11 active torsions:
REMARK  status: ('A' for Active; 'I' for Inactive)
REMARK       I    between atoms: N1_3  and  C3_5 
REMARK       I    between atoms: C3_5  and  N3_9 
REMARK    1  A    between atoms: C7_13  and  C8_14 
REMARK    2  A    between atoms: C8_14  and  C9_15 
REMARK       I    between atoms: C9_15  and  N4_17 
REMARK    3  A    between atoms: N4_17  and  C10_19 
REMARK    4  A    between atoms: C10_19  and  C11_20 
REMARK    5  A    between atoms: C10_19  and  C25_37 
REMARK    6  A    between atoms: C11_20  and  C12_21 
REMARK    7  A    between atoms: C12_21  and  C13_22 
REMARK    8  A    between atoms: N5_25  and  C16_26 
REMARK    9  A    between atoms: C19_29  and  C20_30 
REMARK       I    between atoms: C25_37  and  N6_39 
REMARK   10  A    between atoms: N6_39  and  C26_41 
REMARK   11  A    between atoms: C26_41  and  C27_42 
ROOT
HETATM    1  C1  UNL     1       3.806  24.396   3.708  1.00  0.00     0.037 C 
HETATM    2  C2  UNL     1       4.840  24.900   4.019  1.00  0.00     0.015 C 
HETATM    3  N1  UNL     1       6.061  25.481   4.370  1.00  0.00    -0.150 N 
ATOM      4  H1  UNL     1       6.866  24.877   4.539  1.00  0.00     0.195 HD
HETATM    5  C3  UNL     1       6.214  26.888   4.498  1.00  0.00     0.681 C 
HETATM    6  N2  UNL     1       6.696  27.628   3.534  1.00  0.00    -0.234 N 
ATOM      7  H21 UNL     1       6.806  28.637   3.626  1.00  0.00     0.174 HD
ATOM      8  H22 UNL     1       6.977  27.199   2.652  1.00  0.00     0.174 HD
HETATM    9  N3  UNL     1       5.823  27.484   5.724  1.00  0.00    -0.212 N 
HETATM   10  C4  UNL     1       4.650  28.275   6.032  1.00  0.00     0.141 C 
HETATM   11  C5  UNL     1       4.345  27.871   7.458  1.00  0.00     0.022 C 
HETATM   12  C6  UNL     1       5.724  27.824   8.079  1.00  0.00     0.028 C 
HETATM   13  C7  UNL     1       6.592  27.384   6.933  1.00  0.00     0.110 C 
ENDROOT
BRANCH  13  14
HETATM   14  C8  UNL     1       7.744  28.353   6.810  1.00  0.00     0.128 C 
BRANCH  14  15
HETATM   15  C9  UNL     1       8.850  27.688   6.101  1.00  0.00     0.220 C 
HETATM   16  O1  UNL     1       9.226  28.142   4.995  1.00  0.00    -0.274 OA
HETATM   17  N4  UNL     1       9.469  26.557   6.671  1.00  0.00    -0.348 N 
ATOM     18  H4  UNL     1       9.145  26.205   7.572  1.00  0.00     0.163 HD
BRANCH  17  19
HETATM   19  C10 UNL     1      10.586  25.873   5.974  1.00  0.00     0.176 C 
BRANCH  19  20
HETATM   20  C11 UNL     1      11.222  25.058   7.084  1.00  0.00     0.035 C 
BRANCH  20  21
HETATM   21  C12 UNL     1      12.687  24.902   7.019  1.00  0.00     0.007 C 
BRANCH  21  22
HETATM   22  C13 UNL     1      13.136  23.479   7.289  1.00  0.00    -0.008 C 
HETATM   23  C14 UNL     1      12.372  22.510   6.387  1.00  0.00     0.049 C 
HETATM   24  C15 UNL     1      12.949  22.490   4.994  1.00  0.00     0.059 C 
HETATM   25  N5  UNL     1      14.349  22.402   4.900  1.00  0.00    -0.389 N 
HETATM   26  C23 UNL     1      15.103  23.272   5.752  1.00  0.00     0.122 C 
HETATM   27  C24 UNL     1      14.604  23.294   7.169  1.00  0.00     0.024 C 
BRANCH  25  28
HETATM   28  C16 UNL     1      14.952  21.190   4.519  1.00  0.00     0.083 C 
HETATM   29  C17 UNL     1      16.375  21.140   5.005  1.00  0.00     0.026 C 
HETATM   30  C18 UNL     1      16.983  19.763   4.761  1.00  0.00     0.017 C 
HETATM   31  C19 UNL     1      17.002  19.610   3.235  1.00  0.00     0.087 C 
HETATM   32  C21 UNL     1      15.558  19.533   2.811  1.00  0.00     0.017 C 
HETATM   33  C22 UNL     1      14.825  20.839   3.060  1.00  0.00     0.026 C 
BRANCH  31  34
HETATM   34  C20 UNL     1      17.682  18.362   2.847  1.00  0.00     0.177 C 
HETATM   35  O2  UNL     1      18.923  18.336   2.784  1.00  0.00    -0.648 OA
HETATM   36  O3  UNL     1      16.942  17.227   2.556  1.00  0.00    -0.648 OA
ENDBRANCH  31  34
ENDBRANCH  25  28
ENDBRANCH  21  22
ENDBRANCH  20  21
ENDBRANCH  19  20
BRANCH  19  37
HETATM   37  C25 UNL     1       9.985  25.059   4.902  1.00  0.00     0.241 C 
HETATM   38  O4  UNL     1       9.592  23.903   5.162  1.00  0.00    -0.271 OA
HETATM   39  N6  UNL     1       9.821  25.515   3.580  1.00  0.00    -0.342 N 
ATOM     40  H6  UNL     1      10.133  26.461   3.363  1.00  0.00     0.163 HD
BRANCH  39  41
HETATM   41  C26 UNL     1       9.245  24.741   2.515  1.00  0.00     0.111 C 
HETATM   42  C28 UNL     1      10.272  24.036   1.664  1.00  0.00     0.041 C 
HETATM   43  C29 UNL     1       9.450  22.773   1.767  1.00  0.00     0.006 C 
HETATM   44  C30 UNL     1       8.675  23.412   2.896  1.00  0.00     0.041 C 
BRANCH  41  45
HETATM   45  C27 UNL     1       8.280  25.469   1.631  1.00  0.00     0.259 C 
HETATM   46  N7  UNL     1       8.637  26.654   0.959  1.00  0.00    -0.060 NA
HETATM   47  O5  UNL     1       7.119  25.027   1.471  1.00  0.00    -0.274 OA
ENDBRANCH  41  45
ENDBRANCH  39  41
ENDBRANCH  19  37
ENDBRANCH  17  19
ENDBRANCH  14  15
ENDBRANCH  13  14
TORSDOF 11
ENDMDL
MODEL 3
REMARK VINA RESULT: -9.284593400      3.018      8.947
REMARK  11 active torsions:
REMARK  status: ('A' for Active; 'I' for Inactive)
REMARK       I    between atoms: N1_3  and  C3_5 
REMARK       I    between atoms: C3_5  and  N3_9 
REMARK    1  A    between atoms: C7_13  and  C8_14 
REMARK    2  A    between atoms: C8_14  and  C9_15 
REMARK       I    between atoms: C9_15  and  N4_17 
REMARK    3  A    between atoms: N4_17  and  C10_19 
REMARK    4  A    between atoms: C10_19  and  C11_20 
REMARK    5  A    between atoms: C10_19  and  C25_37 
REMARK    6  A    between atoms: C11_20  and  C12_21 
REMARK    7  A    between atoms: C12_21  and  C13_22 
REMARK    8  A    between atoms: N5_25  and  C16_26 
REMARK    9  A    between atoms: C19_29  and  C20_30 
REMARK       I    between atoms: C25_37  and  N6_39 
REMARK   10  A    between atoms: N6_39  and  C26_41 
REMARK   11  A    between atoms: C26_41  and  C27_42 
ROOT
HETATM    1  C1  UNL     1       5.372  27.938   7.603  1.00  0.00     0.037 C 
HETATM    2  C2  UNL     1       6.340  27.357   7.222  1.00  0.00     0.015 C 
HETATM    3  N1  UNL     1       7.466  26.672   6.759  1.00  0.00    -0.150 N 
ATOM      4  H1  UNL     1       7.374  25.690   6.495  1.00  0.00     0.195 HD
HETATM    5  C3  UNL     1       8.735  27.302   6.644  1.00  0.00     0.681 C 
HETATM    6  N2  UNL     1       9.172  27.790   5.513  1.00  0.00    -0.234 N 
ATOM      7  H21 UNL     1      10.082  28.242   5.431  1.00  0.00     0.174 HD
ATOM      8  H22 UNL     1       8.597  27.727   4.673  1.00  0.00     0.174 HD
HETATM    9  N3  UNL     1       9.534  27.389   7.813  1.00  0.00    -0.212 N 
HETATM   10  C4  UNL     1       9.810  28.531   8.658  1.00  0.00     0.141 C 
HETATM   11  C5  UNL     1       9.902  27.910  10.034  1.00  0.00     0.022 C 
HETATM   12  C6  UNL     1      10.682  26.643   9.762  1.00  0.00     0.028 C 
HETATM   13  C7  UNL     1      10.243  26.272   8.372  1.00  0.00     0.110 C 
ENDROOT
BRANCH  13  14
HETATM   14  C8  UNL     1      11.474  26.056   7.525  1.00  0.00     0.128 C 
BRANCH  14  15
HETATM   15  C9  UNL     1      11.561  24.630   7.167  1.00  0.00     0.220 C 
HETATM   16  O1  UNL     1      10.561  23.896   7.344  1.00  0.00    -0.274 OA
HETATM   17  N4  UNL     1      12.757  24.112   6.634  1.00  0.00    -0.348 N 
ATOM     18  H4  UNL     1      13.559  24.729   6.499  1.00  0.00     0.163 HD
BRANCH  17  19
HETATM   19  C10 UNL     1      12.865  22.679   6.265  1.00  0.00     0.176 C 
BRANCH  19  20
HETATM   20  C11 UNL     1      12.855  22.723   4.749  1.00  0.00     0.035 C 
BRANCH  20  21
HETATM   21  C12 UNL     1      11.637  22.214   4.091  1.00  0.00     0.007 C 
BRANCH  21  22
HETATM   22  C13 UNL     1      11.122  23.147   3.012  1.00  0.00    -0.008 C 
HETATM   23  C14 UNL     1       9.993  22.471   2.233  1.00  0.00     0.049 C 
HETATM   24  C15 UNL     1       8.692  22.535   2.993  1.00  0.00     0.059 C 
HETATM   25  N5  UNL     1       8.356  23.778   3.554  1.00  0.00    -0.389 N 
HETATM   26  C23 UNL     1       9.395  24.460   4.266  1.00  0.00     0.122 C 
HETATM   27  C24 UNL     1      10.707  24.473   3.533  1.00  0.00     0.024 C 
BRANCH  25  28
HETATM   28  C16 UNL     1       7.355  24.569   2.962  1.00  0.00     0.083 C 
HETATM   29  C17 UNL     1       6.012  23.910   3.114  1.00  0.00     0.026 C 
HETATM   30  C18 UNL     1       4.897  24.837   2.642  1.00  0.00     0.017 C 
HETATM   31  C19 UNL     1       5.159  25.030   1.142  1.00  0.00     0.087 C 
HETATM   32  C21 UNL     1       6.446  25.807   1.046  1.00  0.00     0.017 C 
HETATM   33  C22 UNL     1       7.631  25.002   1.546  1.00  0.00     0.026 C 
BRANCH  31  34
HETATM   34  C20 UNL     1       4.077  25.815   0.524  1.00  0.00     0.177 C 
HETATM   35  O2  UNL     1       3.820  26.950   0.957  1.00  0.00    -0.648 OA
HETATM   36  O3  UNL     1       3.352  25.289  -0.534  1.00  0.00    -0.648 OA
ENDBRANCH  31  34
ENDBRANCH  25  28
ENDBRANCH  21  22
ENDBRANCH  20  21
ENDBRANCH  19  20
BRANCH  19  37
HETATM   37  C25 UNL     1      14.128  22.184   6.842  1.00  0.00     0.241 C 
HETATM   38  O4  UNL     1      14.986  21.679   6.089  1.00  0.00    -0.271 OA
HETATM   39  N6  UNL     1      14.433  22.251   8.215  1.00  0.00    -0.342 N 
ATOM     40  H6  UNL     1      13.740  22.670   8.835  1.00  0.00     0.163 HD
BRANCH  39  41
HETATM   41  C26 UNL     1      15.652  21.771   8.805  1.00  0.00     0.111 C 
HETATM   42  C28 UNL     1      15.588  21.665  10.308  1.00  0.00     0.041 C 
HETATM   43  C29 UNL     1      16.193  20.284  10.209  1.00  0.00     0.006 C 
HETATM   44  C30 UNL     1      15.889  20.297   8.729  1.00  0.00     0.041 C 
BRANCH  41  45
HETATM   45  C27 UNL     1      16.898  22.502   8.409  1.00  0.00     0.259 C 
HETATM   46  N7  UNL     1      18.116  21.829   8.191  1.00  0.00    -0.060 NA
HETATM   47  O5  UNL     1      16.877  23.746   8.264  1.00  0.00    -0.274 OA
ENDBRANCH  41  45
ENDBRANCH  39  41
ENDBRANCH  19  37
ENDBRANCH  17  19
ENDBRANCH  14  15
ENDBRANCH  13  14
TORSDOF 11
ENDMDL
MODEL 4
REMARK VINA RESULT: -9.278624389      1.204      1.661
REMARK  11 active torsions:
REMARK  status: ('A' for Active; 'I' for Inactive)
REMARK       I    between atoms: N1_3  and  C3_5 
REMARK       I    between atoms: C3_5  and  N3_9 
REMARK    1  A    between atoms: C7_13  and  C8_14 
REMARK    2  A    between atoms: C8_14  and  C9_15 
REMARK       I    between atoms: C9_15  and  N4_17 
REMARK    3  A    between atoms: N4_17  and  C10_19 
REMARK    4  A    between atoms: C10_19  and  C11_20 
REMARK    5  A    between atoms: C10_19  and  C25_37 
REMARK    6  A    between atoms: C11_20  and  C12_21 
REMARK    7  A    between atoms: C12_21  and  C13_22 
REMARK    8  A    between atoms: N5_25  and  C16_26 
REMARK    9  A    between atoms: C19_29  and  C20_30 
REMARK       I    between atoms: C25_37  and  N6_39 
REMARK   10  A    between atoms: N6_39  and  C26_41 
REMARK   11  A    between atoms: C26_41  and  C27_42 
ROOT
HETATM    1  C1  UNL     1       4.521  27.395   4.286  1.00  0.00     0.037 C 
HETATM    2  C2  UNL     1       5.450  26.658   4.397  1.00  0.00     0.015 C 
HETATM    3  N1  UNL     1       6.533  25.788   4.545  1.00  0.00    -0.150 N 
ATOM      4  H1  UNL     1       7.114  25.857   5.381  1.00  0.00     0.195 HD
HETATM    5  C3  UNL     1       6.850  24.810   3.564  1.00  0.00     0.681 C 
HETATM    6  N2  UNL     1       6.464  23.565   3.671  1.00  0.00    -0.234 N 
ATOM      7  H21 UNL     1       6.692  22.863   2.967  1.00  0.00     0.174 HD
ATOM      8  H22 UNL     1       5.916  23.267   4.478  1.00  0.00     0.174 HD
HETATM    9  N3  UNL     1       7.612  25.225   2.442  1.00  0.00    -0.212 N 
HETATM   10  C4  UNL     1       7.191  25.462   1.078  1.00  0.00     0.141 C 
HETATM   11  C5  UNL     1       8.075  26.614   0.655  1.00  0.00     0.022 C 
HETATM   12  C6  UNL     1       9.412  26.225   1.246  1.00  0.00     0.028 C 
HETATM   13  C7  UNL     1       9.022  25.490   2.499  1.00  0.00     0.110 C 
ENDROOT
BRANCH  13  14
HETATM   14  C8  UNL     1       9.728  24.154   2.505  1.00  0.00     0.128 C 
BRANCH  14  15
HETATM   15  C9  UNL     1      10.164  23.855   3.879  1.00  0.00     0.220 C 
HETATM   16  O1  UNL     1      10.200  22.661   4.260  1.00  0.00    -0.274 OA
HETATM   17  N4  UNL     1      10.533  24.905   4.743  1.00  0.00    -0.348 N 
ATOM     18  H4  UNL     1      10.495  25.868   4.411  1.00  0.00     0.163 HD
BRANCH  17  19
HETATM   19  C10 UNL     1      10.978  24.624   6.131  1.00  0.00     0.176 C 
BRANCH  19  20
HETATM   20  C11 UNL     1      12.488  24.596   5.998  1.00  0.00     0.035 C 
BRANCH  20  21
HETATM   21  C12 UNL     1      13.200  23.635   6.861  1.00  0.00     0.007 C 
BRANCH  21  22
HETATM   22  C13 UNL     1      14.593  23.314   6.355  1.00  0.00    -0.008 C 
HETATM   23  C14 UNL     1      15.022  21.932   6.847  1.00  0.00     0.049 C 
HETATM   24  C15 UNL     1      14.403  20.839   6.011  1.00  0.00     0.059 C 
HETATM   25  N5  UNL     1      14.458  21.011   4.618  1.00  0.00    -0.389 N 
HETATM   26  C23 UNL     1      14.094  22.303   4.117  1.00  0.00     0.122 C 
HETATM   27  C24 UNL     1      14.723  23.434   4.881  1.00  0.00     0.024 C 
BRANCH  25  28
HETATM   28  C16 UNL     1      15.365  20.255   3.853  1.00  0.00     0.083 C 
HETATM   29  C17 UNL     1      14.934  20.226   2.412  1.00  0.00     0.026 C 
HETATM   30  C18 UNL     1      16.000  19.569   1.541  1.00  0.00     0.017 C 
HETATM   31  C19 UNL     1      16.071  18.120   2.039  1.00  0.00     0.087 C 
HETATM   32  C21 UNL     1      16.630  18.192   3.437  1.00  0.00     0.017 C 
HETATM   33  C22 UNL     1      15.676  18.884   4.392  1.00  0.00     0.026 C 
BRANCH  31  34
HETATM   34  C20 UNL     1      16.984  17.327   1.198  1.00  0.00     0.177 C 
HETATM   35  O2  UNL     1      17.867  16.637   1.735  1.00  0.00    -0.648 OA
HETATM   36  O3  UNL     1      16.857  17.351  -0.182  1.00  0.00    -0.648 OA
ENDBRANCH  31  34
ENDBRANCH  25  28
ENDBRANCH  21  22
ENDBRANCH  20  21
ENDBRANCH  19  20
BRANCH  19  37
HETATM   37  C25 UNL     1      10.470  25.723   6.971  1.00  0.00     0.241 C 
HETATM   38  O4  UNL     1      11.274  26.389   7.656  1.00  0.00    -0.271 OA
HETATM   39  N6  UNL     1       9.110  26.078   7.048  1.00  0.00    -0.342 N 
ATOM     40  H6  UNL     1       8.448  25.543   6.485  1.00  0.00     0.163 HD
BRANCH  39  41
HETATM   41  C26 UNL     1       8.587  27.140   7.862  1.00  0.00     0.111 C 
HETATM   42  C28 UNL     1       8.640  26.842   9.341  1.00  0.00     0.041 C 
HETATM   43  C29 UNL     1       9.223  28.217   9.569  1.00  0.00     0.006 C 
HETATM   44  C30 UNL     1       9.491  28.310   8.085  1.00  0.00     0.041 C 
BRANCH  41  45
HETATM   45  C27 UNL     1       7.217  27.624   7.500  1.00  0.00     0.259 C 
HETATM   46  N7  UNL     1       6.070  26.836   7.719  1.00  0.00    -0.060 NA
HETATM   47  O5  UNL     1       7.066  28.756   6.987  1.00  0.00    -0.274 OA
ENDBRANCH  41  45
ENDBRANCH  39  41
ENDBRANCH  19  37
ENDBRANCH  17  19
ENDBRANCH  14  15
ENDBRANCH  13  14
TORSDOF 11
ENDMDL
MODEL 5
REMARK VINA RESULT: -9.197946968      4.220     10.925
REMARK  11 active torsions:
REMARK  status: ('A' for Active; 'I' for Inactive)
REMARK       I    between atoms: N1_3  and  C3_5 
REMARK       I    between atoms: C3_5  and  N3_9 
REMARK    1  A    between atoms: C7_13  and  C8_14 
REMARK    2  A    between atoms: C8_14  and  C9_15 
REMARK       I    between atoms: C9_15  and  N4_17 
REMARK    3  A    between atoms: N4_17  and  C10_19 
REMARK    4  A    between atoms: C10_19  and  C11_20 
REMARK    5  A    between atoms: C10_19  and  C25_37 
REMARK    6  A    between atoms: C11_20  and  C12_21 
REMARK    7  A    between atoms: C12_21  and  C13_22 
REMARK    8  A    between atoms: N5_25  and  C16_26 
REMARK    9  A    between atoms: C19_29  and  C20_30 
REMARK       I    between atoms: C25_37  and  N6_39 
REMARK   10  A    between atoms: N6_39  and  C26_41 
REMARK   11  A    between atoms: C26_41  and  C27_42 
ROOT
HETATM    1  C1  UNL     1      13.439  22.578   3.249  1.00  0.00     0.037 C 
HETATM    2  C2  UNL     1      14.315  21.991   3.803  1.00  0.00     0.015 C 
HETATM    3  N1  UNL     1      15.338  21.312   4.468  1.00  0.00    -0.150 N 
ATOM      4  H1  UNL     1      16.065  21.851   4.940  1.00  0.00     0.195 HD
HETATM    5  C3  UNL     1      15.396  19.893   4.507  1.00  0.00     0.681 C 
HETATM    6  N2  UNL     1      14.945  19.204   5.522  1.00  0.00    -0.234 N 
ATOM      7  H21 UNL     1      14.986  18.185   5.550  1.00  0.00     0.174 HD
ATOM      8  H22 UNL     1      14.532  19.683   6.322  1.00  0.00     0.174 HD
HETATM    9  N3  UNL     1      15.970  19.226   3.394  1.00  0.00    -0.212 N 
HETATM   10  C4  UNL     1      15.326  18.485   2.330  1.00  0.00     0.141 C 
HETATM   11  C5  UNL     1      16.202  18.793   1.136  1.00  0.00     0.022 C 
HETATM   12  C6  UNL     1      17.592  18.708   1.729  1.00  0.00     0.028 C 
HETATM   13  C7  UNL     1      17.383  19.184   3.140  1.00  0.00     0.110 C 
ENDROOT
BRANCH  13  14
HETATM   14  C8  UNL     1      17.975  18.161   4.080  1.00  0.00     0.128 C 
BRANCH  14  15
HETATM   15  C9  UNL     1      18.483  18.853   5.276  1.00  0.00     0.220 C 
HETATM   16  O1  UNL     1      19.274  19.815   5.133  1.00  0.00    -0.274 OA
HETATM   17  N4  UNL     1      18.079  18.429   6.557  1.00  0.00    -0.348 N 
ATOM     18  H4  UNL     1      17.435  17.642   6.648  1.00  0.00     0.163 HD
BRANCH  17  19
HETATM   19  C10 UNL     1      18.578  19.113   7.775  1.00  0.00     0.176 C 
BRANCH  19  20
HETATM   20  C11 UNL     1      17.417  20.014   8.150  1.00  0.00     0.035 C 
BRANCH  20  21
HETATM   21  C12 UNL     1      17.564  21.441   7.807  1.00  0.00     0.007 C 
BRANCH  21  22
HETATM   22  C13 UNL     1      16.719  22.344   8.686  1.00  0.00    -0.008 C 
HETATM   23  C14 UNL     1      16.563  23.715   8.028  1.00  0.00     0.049 C 
HETATM   24  C15 UNL     1      15.513  23.685   6.946  1.00  0.00     0.059 C 
HETATM   25  N5  UNL     1      14.303  23.046   7.267  1.00  0.00    -0.389 N 
HETATM   26  C23 UNL     1      14.405  21.772   7.913  1.00  0.00     0.122 C 
HETATM   27  C24 UNL     1      15.403  21.755   9.037  1.00  0.00     0.024 C 
BRANCH  25  28
HETATM   28  C16 UNL     1      13.153  23.812   7.528  1.00  0.00     0.083 C 
HETATM   29  C17 UNL     1      12.067  23.474   6.543  1.00  0.00     0.026 C 
HETATM   30  C18 UNL     1      10.758  24.158   6.925  1.00  0.00     0.017 C 
HETATM   31  C19 UNL     1      11.052  25.659   6.803  1.00  0.00     0.087 C 
HETATM   32  C21 UNL     1      12.045  25.973   7.893  1.00  0.00     0.017 C 
HETATM   33  C22 UNL     1      13.381  25.295   7.653  1.00  0.00     0.026 C 
BRANCH  31  34
HETATM   34  C20 UNL     1       9.829  26.447   7.028  1.00  0.00     0.177 C 
HETATM   35  O2  UNL     1       9.027  26.095   7.909  1.00  0.00    -0.648 OA
HETATM   36  O3  UNL     1       9.575  27.573   6.260  1.00  0.00    -0.648 OA
ENDBRANCH  31  34
ENDBRANCH  25  28
ENDBRANCH  21  22
ENDBRANCH  20  21
ENDBRANCH  19  20
BRANCH  19  37
HETATM   37  C25 UNL     1      18.865  18.062   8.767  1.00  0.00     0.241 C 
HETATM   38  O4  UNL     1      20.052  17.804   9.057  1.00  0.00    -0.271 OA
HETATM   39  N6  UNL     1      17.864  17.318   9.422  1.00  0.00    -0.342 N 
ATOM     40  H6  UNL     1      16.893  17.529   9.195  1.00  0.00     0.163 HD
BRANCH  39  41
HETATM   41  C26 UNL     1      18.115  16.284  10.387  1.00  0.00     0.111 C 
HETATM   42  C28 UNL     1      18.711  16.798  11.674  1.00  0.00     0.041 C 
HETATM   43  C29 UNL     1      17.705  15.970  12.439  1.00  0.00     0.006 C 
HETATM   44  C30 UNL     1      16.929  15.792  11.155  1.00  0.00     0.041 C 
BRANCH  41  45
HETATM   45  C27 UNL     1      18.917  15.118   9.898  1.00  0.00     0.259 C 
HETATM   46  N7  UNL     1      18.569  14.416   8.727  1.00  0.00    -0.060 NA
HETATM   47  O5  UNL     1      19.928  14.739  10.533  1.00  0.00    -0.274 OA
ENDBRANCH  41  45
ENDBRANCH  39  41
ENDBRANCH  19  37
ENDBRANCH  17  19
ENDBRANCH  14  15
ENDBRANCH  13  14
TORSDOF 11
ENDMDL
