MODEL 1
REMARK VINA RESULT: -4.989632748      0.000      0.000
REMARK  17 active torsions:
REMARK  status: ('A' for Active; 'I' for Inactive)
REMARK    1  A    between atoms: C2_2  and  C3_3 
REMARK    2  A    between atoms: C3_3  and  C4_4 
REMARK    3  A    between atoms: C4_4  and  C5_5 
REMARK    4  A    between atoms: C7_10  and  C8_11 
REMARK    5  A    between atoms: C8_11  and  C10_13 
REMARK    6  A    between atoms: C12_17  and  O2_18 
REMARK    7  A    between atoms: C13_20  and  C14_21 
REMARK    8  A    between atoms: C14_21  and  C15_22 
REMARK    9  A    between atoms: C18_27  and  O3_28 
REMARK   10  A    between atoms: C19_30  and  O4_31 
REMARK   11  A    between atoms: C20_33  and  C21_34 
REMARK   12  A    between atoms: C21_34  and  C22_35 
REMARK   13  A    between atoms: C22_35  and  C23_36 
REMARK   14  A    between atoms: C23_36  and  C24_37 
REMARK   15  A    between atoms: C24_37  and  N4_38 
REMARK   16  A    between atoms: C25_44  and  O5_45 
REMARK   17  A    between atoms: C26_47  and  C27_48 
ROOT
HETATM    1  C5  UNL     1      21.289  15.662  13.518  1.00  0.00     0.177 C 
HETATM    2  N1  UNL     1      20.371  16.658  13.998  1.00  0.00    -0.346 N 
ATOM      3  H1  UNL     1      20.792  17.313  14.658  1.00  0.00     0.163 HD
HETATM    4  C6  UNL     1      19.026  16.914  13.747  1.00  0.00     0.241 C 
HETATM    5  O1  UNL     1      18.249  16.913  14.774  1.00  0.00    -0.271 OA
HETATM    6  C7  UNL     1      18.357  17.197  12.448  1.00  0.00     0.179 C 
HETATM    7  N2  UNL     1      19.265  17.747  11.494  1.00  0.00    -0.359 N 
ATOM      8  H2  UNL     1      20.212  17.378  11.583  1.00  0.00     0.162 HD
HETATM    9  C12 UNL     1      19.135  18.682  10.465  1.00  0.00     0.135 C 
HETATM   10  C13 UNL     1      18.260  18.600   9.322  1.00  0.00     0.158 C 
HETATM   11  N3  UNL     1      18.715  17.914   8.154  1.00  0.00    -0.357 N 
ATOM     12  H3  UNL     1      18.835  18.542   7.360  1.00  0.00     0.162 HD
HETATM   13  C18 UNL     1      19.036  16.588   7.833  1.00  0.00     0.168 C 
HETATM   14  C19 UNL     1      20.020  15.628   8.244  1.00  0.00     0.116 C 
HETATM   15  C20 UNL     1      21.485  15.665   8.428  1.00  0.00     0.145 C 
HETATM   16  N5  UNL     1      22.004  16.828   9.081  1.00  0.00    -0.359 N 
ATOM     17  H5  UNL     1      21.552  17.685   8.762  1.00  0.00     0.162 HD
HETATM   18  C25 UNL     1      22.953  17.067  10.022  1.00  0.00     0.160 C 
HETATM   19  C26 UNL     1      23.680  16.336  11.066  1.00  0.00     0.066 C 
HETATM   20  N6  UNL     1      23.318  16.847  12.386  1.00  0.00    -0.325 N 
ATOM     21  H6  UNL     1      23.580  17.821  12.542  1.00  0.00     0.169 HD
HETATM   22  C30 UNL     1      22.683  16.250  13.464  1.00  0.00     0.244 C 
HETATM   23  O6  UNL     1      23.303  16.170  14.553  1.00  0.00    -0.271 OA
ENDROOT
BRANCH  15  24
HETATM   24  C21 UNL     1      22.201  15.474   7.062  1.00  0.00     0.032 C 
BRANCH  24  25
HETATM   25  C22 UNL     1      22.258  14.038   6.655  1.00  0.00     0.004 C 
BRANCH  25  26
HETATM   26  C23 UNL     1      22.047  13.889   5.141  1.00  0.00     0.027 C 
BRANCH  26  27
HETATM   27  C24 UNL     1      20.630  14.321   4.871  1.00  0.00     0.229 C 
BRANCH  27  28
HETATM   28  N4  UNL     1      19.652  13.508   5.528  1.00  0.00    -0.079 N 
ATOM     29  H43 UNL     1      19.177  12.902   4.859  1.00  0.00     0.274 HD
ATOM     30  H42 UNL     1      20.101  12.800   6.108  1.00  0.00     0.274 HD
ATOM     31  H41 UNL     1      18.977  14.045   6.072  1.00  0.00     0.274 HD
ENDBRANCH  27  28
ENDBRANCH  26  27
ENDBRANCH  25  26
ENDBRANCH  24  25
ENDBRANCH  15  24
BRANCH  14  32
HETATM   32  O4  UNL     1      19.655  14.408   8.550  1.00  0.00    -0.359 OA
ATOM     33  H4  UNL     1      19.252  14.231   9.392  1.00  0.00     0.217 HD
ENDBRANCH  14  32
BRANCH  13  34
HETATM   34  O3  UNL     1      18.226  16.109   6.917  1.00  0.00    -0.344 OA
ATOM     35  H3  UNL     1      18.229  15.159   6.915  1.00  0.00     0.219 HD
ENDBRANCH  13  34
BRANCH  18  36
HETATM   36  O5  UNL     1      23.356  18.329  10.016  1.00  0.00    -0.345 OA
ATOM     37  H5  UNL     1      24.152  18.453  10.520  1.00  0.00     0.219 HD
ENDBRANCH  18  36
BRANCH  19  38
HETATM   38  C27 UNL     1      23.850  14.875  10.976  1.00  0.00     0.032 C 
HETATM   39  C28 UNL     1      24.908  14.522  12.054  1.00  0.00     0.016 C 
HETATM   40  C29 UNL     1      24.590  14.573   9.662  1.00  0.00     0.016 C 
ENDBRANCH  19  38
BRANCH  10  41
HETATM   41  C14 UNL     1      17.769  20.031   8.998  1.00  0.00     0.037 C 
BRANCH  41  42
HETATM   42  C15 UNL     1      16.275  20.073   9.200  1.00  0.00    -0.020 C 
HETATM   43  C16 UNL     1      16.020  20.667  10.576  1.00  0.00     0.009 C 
HETATM   44  C17 UNL     1      15.734  21.005   8.115  1.00  0.00     0.009 C 
ENDBRANCH  41  42
ENDBRANCH  10  41
BRANCH   9  45
HETATM   45  O2  UNL     1      19.864  19.771  10.484  1.00  0.00    -0.348 OA
ATOM     46  H2  UNL     1      19.507  20.580  10.137  1.00  0.00     0.219 HD
ENDBRANCH   9  45
BRANCH   1  47
HETATM   47  C4  UNL     1      21.256  14.357  14.204  1.00  0.00     0.035 C 
BRANCH  47  48
HETATM   48  C3  UNL     1      20.827  13.126  13.553  1.00  0.00     0.002 C 
BRANCH  48  49
HETATM   49  C2  UNL     1      20.237  13.223  12.172  1.00  0.00    -0.004 C 
HETATM   50  C1  UNL     1      21.110  12.429  11.179  1.00  0.00     0.005 C 
ENDBRANCH  48  49
ENDBRANCH  47  48
ENDBRANCH   1  47
BRANCH   6  51
HETATM   51  C8  UNL     1      17.491  16.087  12.015  1.00  0.00     0.013 C 
HETATM   52  C9  UNL     1      17.157  15.029  13.024  1.00  0.00     0.012 C 
BRANCH  51  53
HETATM   53  C10 UNL     1      16.188  16.578  11.428  1.00  0.00     0.002 C 
HETATM   54  C11 UNL     1      15.016  15.788  12.048  1.00  0.00     0.005 C 
ENDBRANCH  51  53
ENDBRANCH   6  51
TORSDOF 17
ENDMDL
MODEL 2
REMARK VINA RESULT: -4.968323349      2.169      3.157
REMARK  17 active torsions:
REMARK  status: ('A' for Active; 'I' for Inactive)
REMARK    1  A    between atoms: C2_2  and  C3_3 
REMARK    2  A    between atoms: C3_3  and  C4_4 
REMARK    3  A    between atoms: C4_4  and  C5_5 
REMARK    4  A    between atoms: C7_10  and  C8_11 
REMARK    5  A    between atoms: C8_11  and  C10_13 
REMARK    6  A    between atoms: C12_17  and  O2_18 
REMARK    7  A    between atoms: C13_20  and  C14_21 
REMARK    8  A    between atoms: C14_21  and  C15_22 
REMARK    9  A    between atoms: C18_27  and  O3_28 
REMARK   10  A    between atoms: C19_30  and  O4_31 
REMARK   11  A    between atoms: C20_33  and  C21_34 
REMARK   12  A    between atoms: C21_34  and  C22_35 
REMARK   13  A    between atoms: C22_35  and  C23_36 
REMARK   14  A    between atoms: C23_36  and  C24_37 
REMARK   15  A    between atoms: C24_37  and  N4_38 
REMARK   16  A    between atoms: C25_44  and  O5_45 
REMARK   17  A    between atoms: C26_47  and  C27_48 
ROOT
HETATM    1  C5  UNL     1      20.941  17.877  11.989  1.00  0.00     0.177 C 
HETATM    2  N1  UNL     1      19.977  18.859  11.573  1.00  0.00    -0.346 N 
ATOM      3  H1  UNL     1      20.305  19.819  11.680  1.00  0.00     0.163 HD
HETATM    4  C6  UNL     1      18.689  18.769  11.055  1.00  0.00     0.241 C 
HETATM    5  O1  UNL     1      17.767  19.374  11.721  1.00  0.00    -0.271 OA
HETATM    6  C7  UNL     1      18.225  18.071   9.825  1.00  0.00     0.179 C 
HETATM    7  N2  UNL     1      19.273  17.936   8.866  1.00  0.00    -0.359 N 
ATOM      8  H2  UNL     1      20.190  17.801   9.291  1.00  0.00     0.162 HD
HETATM    9  C12 UNL     1      19.311  17.951   7.470  1.00  0.00     0.135 C 
HETATM   10  C13 UNL     1      18.615  17.064   6.572  1.00  0.00     0.158 C 
HETATM   11  N3  UNL     1      19.228  15.823   6.217  1.00  0.00    -0.357 N 
ATOM     12  H3  UNL     1      19.476  15.783   5.228  1.00  0.00     0.162 HD
HETATM   13  C18 UNL     1      19.573  14.646   6.896  1.00  0.00     0.168 C 
HETATM   14  C19 UNL     1      20.470  14.281   7.955  1.00  0.00     0.116 C 
HETATM   15  C20 UNL     1      21.892  14.558   8.244  1.00  0.00     0.145 C 
HETATM   16  N5  UNL     1      22.326  15.903   8.021  1.00  0.00    -0.359 N 
ATOM     17  H5  UNL     1      21.940  16.298   7.163  1.00  0.00     0.162 HD
HETATM   18  C25 UNL     1      23.128  16.782   8.675  1.00  0.00     0.160 C 
HETATM   19  C26 UNL     1      23.681  16.983  10.019  1.00  0.00     0.066 C 
HETATM   20  N6  UNL     1      23.134  18.200  10.614  1.00  0.00    -0.325 N 
ATOM     21  H6  UNL     1      23.384  19.055  10.117  1.00  0.00     0.169 HD
HETATM   22  C30 UNL     1      22.336  18.405  11.730  1.00  0.00     0.244 C 
HETATM   23  O6  UNL     1      22.786  19.113  12.664  1.00  0.00    -0.271 OA
ENDROOT
BRANCH  15  24
HETATM   24  C21 UNL     1      22.801  13.581   7.447  1.00  0.00     0.032 C 
BRANCH  24  25
HETATM   25  C22 UNL     1      23.552  14.277   6.358  1.00  0.00     0.004 C 
BRANCH  25  26
HETATM   26  C23 UNL     1      23.217  13.670   4.988  1.00  0.00     0.027 C 
BRANCH  26  27
HETATM   27  C24 UNL     1      23.140  14.826   4.025  1.00  0.00     0.229 C 
BRANCH  27  28
HETATM   28  N4  UNL     1      22.076  15.738   4.315  1.00  0.00    -0.079 N 
ATOM     29  H43 UNL     1      22.157  16.098   5.266  1.00  0.00     0.274 HD
ATOM     30  H42 UNL     1      22.194  16.608   3.795  1.00  0.00     0.274 HD
ATOM     31  H41 UNL     1      21.149  15.344   4.154  1.00  0.00     0.274 HD
ENDBRANCH  27  28
ENDBRANCH  26  27
ENDBRANCH  25  26
ENDBRANCH  24  25
ENDBRANCH  15  24
BRANCH  14  32
HETATM   32  O4  UNL     1      20.046  13.536   8.943  1.00  0.00    -0.359 OA
ATOM     33  H4  UNL     1      19.741  12.652   8.773  1.00  0.00     0.217 HD
ENDBRANCH  14  32
BRANCH  13  34
HETATM   34  O3  UNL     1      18.902  13.616   6.436  1.00  0.00    -0.344 OA
ATOM     35  H3  UNL     1      19.465  13.022   5.954  1.00  0.00     0.219 HD
ENDBRANCH  13  34
BRANCH  18  36
HETATM   36  O5  UNL     1      23.546  17.760   7.884  1.00  0.00    -0.345 OA
ATOM     37  H5  UNL     1      24.483  17.719   7.731  1.00  0.00     0.219 HD
ENDBRANCH  18  36
BRANCH  19  38
HETATM   38  C27 UNL     1      23.839  15.843  10.940  1.00  0.00     0.032 C 
HETATM   39  C28 UNL     1      24.724  16.376  12.098  1.00  0.00     0.016 C 
HETATM   40  C29 UNL     1      24.758  14.817  10.255  1.00  0.00     0.016 C 
ENDBRANCH  19  38
BRANCH  10  41
HETATM   41  C14 UNL     1      18.200  17.881   5.326  1.00  0.00     0.037 C 
BRANCH  41  42
HETATM   42  C15 UNL     1      17.470  16.960   4.381  1.00  0.00    -0.020 C 
HETATM   43  C16 UNL     1      16.032  17.444   4.295  1.00  0.00     0.009 C 
HETATM   44  C17 UNL     1      18.162  17.120   3.026  1.00  0.00     0.009 C 
ENDBRANCH  41  42
ENDBRANCH  10  41
BRANCH   9  45
HETATM   45  O2  UNL     1      20.046  18.844   6.853  1.00  0.00    -0.348 OA
ATOM     46  H2  UNL     1      19.625  19.565   6.399  1.00  0.00     0.219 HD
ENDBRANCH   9  45
BRANCH   1  47
HETATM   47  C4  UNL     1      20.786  17.346  13.355  1.00  0.00     0.035 C 
BRANCH  47  48
HETATM   48  C3  UNL     1      19.846  16.285  13.697  1.00  0.00     0.002 C 
BRANCH  48  49
HETATM   49  C2  UNL     1      18.488  16.681  14.208  1.00  0.00    -0.004 C 
HETATM   50  C1  UNL     1      17.655  15.416  14.502  1.00  0.00     0.005 C 
ENDBRANCH  48  49
ENDBRANCH  47  48
ENDBRANCH   1  47
BRANCH   6  51
HETATM   51  C8  UNL     1      17.416  16.878  10.134  1.00  0.00     0.013 C 
HETATM   52  C9  UNL     1      18.129  15.672  10.669  1.00  0.00     0.012 C 
BRANCH  51  53
HETATM   53  C10 UNL     1      16.282  17.191  11.081  1.00  0.00     0.002 C 
HETATM   54  C11 UNL     1      15.550  15.884  11.454  1.00  0.00     0.005 C 
ENDBRANCH  51  53
ENDBRANCH   6  51
TORSDOF 17
ENDMDL
MODEL 3
REMARK VINA RESULT: -4.949487199      2.387      5.757
REMARK  17 active torsions:
REMARK  status: ('A' for Active; 'I' for Inactive)
REMARK    1  A    between atoms: C2_2  and  C3_3 
REMARK    2  A    between atoms: C3_3  and  C4_4 
REMARK    3  A    between atoms: C4_4  and  C5_5 
REMARK    4  A    between atoms: C7_10  and  C8_11 
REMARK    5  A    between atoms: C8_11  and  C10_13 
REMARK    6  A    between atoms: C12_17  and  O2_18 
REMARK    7  A    between atoms: C13_20  and  C14_21 
REMARK    8  A    between atoms: C14_21  and  C15_22 
REMARK    9  A    between atoms: C18_27  and  O3_28 
REMARK   10  A    between atoms: C19_30  and  O4_31 
REMARK   11  A    between atoms: C20_33  and  C21_34 
REMARK   12  A    between atoms: C21_34  and  C22_35 
REMARK   13  A    between atoms: C22_35  and  C23_36 
REMARK   14  A    between atoms: C23_36  and  C24_37 
REMARK   15  A    between atoms: C24_37  and  N4_38 
REMARK   16  A    between atoms: C25_44  and  O5_45 
REMARK   17  A    between atoms: C26_47  and  C27_48 
ROOT
HETATM    1  C5  UNL     1      20.400  13.901  10.694  1.00  0.00     0.177 C 
HETATM    2  N1  UNL     1      19.290  13.878   9.781  1.00  0.00    -0.346 N 
ATOM      3  H1  UNL     1      18.635  13.115   9.958  1.00  0.00     0.163 HD
HETATM    4  C6  UNL     1      18.925  14.681   8.705  1.00  0.00     0.241 C 
HETATM    5  O1  UNL     1      18.781  14.082   7.574  1.00  0.00    -0.271 OA
HETATM    6  C7  UNL     1      18.668  16.147   8.680  1.00  0.00     0.179 C 
HETATM    7  N2  UNL     1      18.274  16.637   9.962  1.00  0.00    -0.359 N 
ATOM      8  H2  UNL     1      18.725  16.146  10.734  1.00  0.00     0.162 HD
HETATM    9  C12 UNL     1      17.403  17.644  10.384  1.00  0.00     0.135 C 
HETATM   10  C13 UNL     1      17.479  19.048  10.067  1.00  0.00     0.158 C 
HETATM   11  N3  UNL     1      18.284  19.897  10.887  1.00  0.00    -0.357 N 
ATOM     12  H3  UNL     1      17.725  20.578  11.402  1.00  0.00     0.162 HD
HETATM   13  C18 UNL     1      19.653  20.023  11.158  1.00  0.00     0.168 C 
HETATM   14  C19 UNL     1      20.672  19.212  11.761  1.00  0.00     0.116 C 
HETATM   15  C20 UNL     1      20.762  18.424  13.007  1.00  0.00     0.145 C 
HETATM   16  N5  UNL     1      19.612  17.638  13.335  1.00  0.00    -0.359 N 
ATOM     17  H5  UNL     1      18.739  18.137  13.160  1.00  0.00     0.162 HD
HETATM   18  C25 UNL     1      19.402  16.388  13.821  1.00  0.00     0.160 C 
HETATM   19  C26 UNL     1      20.125  15.119  13.954  1.00  0.00     0.066 C 
HETATM   20  N6  UNL     1      19.493  14.089  13.133  1.00  0.00    -0.325 N 
ATOM     21  H6  UNL     1      18.541  13.857  13.415  1.00  0.00     0.169 HD
HETATM   22  C30 UNL     1      19.952  13.370  12.039  1.00  0.00     0.244 C 
HETATM   23  O6  UNL     1      20.017  12.119  12.132  1.00  0.00    -0.271 OA
ENDROOT
BRANCH  15  24
HETATM   24  C21 UNL     1      21.113  19.353  14.203  1.00  0.00     0.032 C 
BRANCH  24  25
HETATM   25  C22 UNL     1      22.549  19.765  14.190  1.00  0.00     0.004 C 
BRANCH  25  26
HETATM   26  C23 UNL     1      22.679  21.295  14.216  1.00  0.00     0.027 C 
BRANCH  26  27
HETATM   27  C24 UNL     1      23.479  21.669  12.996  1.00  0.00     0.229 C 
BRANCH  27  28
HETATM   28  N4  UNL     1      22.675  22.136  11.908  1.00  0.00    -0.079 N 
ATOM     29  H43 UNL     1      23.067  21.838  11.015  1.00  0.00     0.274 HD
ATOM     30  H42 UNL     1      21.785  21.637  11.877  1.00  0.00     0.274 HD
ATOM     31  H41 UNL     1      22.523  23.144  11.919  1.00  0.00     0.274 HD
ENDBRANCH  27  28
ENDBRANCH  26  27
ENDBRANCH  25  26
ENDBRANCH  24  25
ENDBRANCH  15  24
BRANCH  14  32
HETATM   32  O4  UNL     1      21.827  19.065  11.164  1.00  0.00    -0.359 OA
ATOM     33  H4  UNL     1      22.126  18.197  10.917  1.00  0.00     0.217 HD
ENDBRANCH  14  32
BRANCH  13  34
HETATM   34  O3  UNL     1      20.113  21.185  10.758  1.00  0.00    -0.344 OA
ATOM     35  H3  UNL     1      20.875  21.448  11.262  1.00  0.00     0.219 HD
ENDBRANCH  13  34
BRANCH  18  36
HETATM   36  O5  UNL     1      18.187  16.250  14.332  1.00  0.00    -0.345 OA
ATOM     37  H5  UNL     1      17.915  15.340  14.367  1.00  0.00     0.219 HD
ENDBRANCH  18  36
BRANCH  19  38
HETATM   38  C27 UNL     1      21.598  15.097  13.976  1.00  0.00     0.032 C 
HETATM   39  C28 UNL     1      21.977  13.662  14.429  1.00  0.00     0.016 C 
HETATM   40  C29 UNL     1      22.059  15.960  15.162  1.00  0.00     0.016 C 
ENDBRANCH  19  38
BRANCH  10  41
HETATM   41  C14 UNL     1      16.033  19.580   9.926  1.00  0.00     0.037 C 
BRANCH  41  42
HETATM   42  C15 UNL     1      16.099  21.073   9.724  1.00  0.00    -0.020 C 
HETATM   43  C16 UNL     1      15.564  21.367   8.333  1.00  0.00     0.009 C 
HETATM   44  C17 UNL     1      15.175  21.677  10.783  1.00  0.00     0.009 C 
ENDBRANCH  41  42
ENDBRANCH  10  41
BRANCH   9  45
HETATM   45  O2  UNL     1      16.390  17.339  11.158  1.00  0.00    -0.348 OA
ATOM     46  H2  UNL     1      15.995  18.012  11.700  1.00  0.00     0.219 HD
ENDBRANCH   9  45
BRANCH   1  47
HETATM   47  C4  UNL     1      21.645  13.267  10.226  1.00  0.00     0.035 C 
BRANCH  47  48
HETATM   48  C3  UNL     1      22.970  13.808  10.505  1.00  0.00     0.002 C 
BRANCH  48  49
HETATM   49  C2  UNL     1      23.108  15.299  10.654  1.00  0.00    -0.004 C 
HETATM   50  C1  UNL     1      24.347  15.621  11.514  1.00  0.00     0.005 C 
ENDBRANCH  48  49
ENDBRANCH  47  48
ENDBRANCH   1  47
BRANCH   6  51
HETATM   51  C8  UNL     1      19.718  16.884   7.955  1.00  0.00     0.013 C 
HETATM   52  C9  UNL     1      21.048  16.212   7.783  1.00  0.00     0.012 C 
BRANCH  51  53
HETATM   53  C10 UNL     1      19.257  17.329   6.587  1.00  0.00     0.002 C 
HETATM   54  C11 UNL     1      18.925  18.836   6.623  1.00  0.00     0.005 C 
ENDBRANCH  51  53
ENDBRANCH   6  51
TORSDOF 17
ENDMDL
MODEL 4
REMARK VINA RESULT: -4.607398231      2.660      7.841
REMARK  17 active torsions:
REMARK  status: ('A' for Active; 'I' for Inactive)
REMARK    1  A    between atoms: C2_2  and  C3_3 
REMARK    2  A    between atoms: C3_3  and  C4_4 
REMARK    3  A    between atoms: C4_4  and  C5_5 
REMARK    4  A    between atoms: C7_10  and  C8_11 
REMARK    5  A    between atoms: C8_11  and  C10_13 
REMARK    6  A    between atoms: C12_17  and  O2_18 
REMARK    7  A    between atoms: C13_20  and  C14_21 
REMARK    8  A    between atoms: C14_21  and  C15_22 
REMARK    9  A    between atoms: C18_27  and  O3_28 
REMARK   10  A    between atoms: C19_30  and  O4_31 
REMARK   11  A    between atoms: C20_33  and  C21_34 
REMARK   12  A    between atoms: C21_34  and  C22_35 
REMARK   13  A    between atoms: C22_35  and  C23_36 
REMARK   14  A    between atoms: C23_36  and  C24_37 
REMARK   15  A    between atoms: C24_37  and  N4_38 
REMARK   16  A    between atoms: C25_44  and  O5_45 
REMARK   17  A    between atoms: C26_47  and  C27_48 
ROOT
HETATM    1  C5  UNL     1      17.646  20.040   7.454  1.00  0.00     0.177 C 
HETATM    2  N1  UNL     1      18.621  19.973   6.400  1.00  0.00    -0.346 N 
ATOM      3  H1  UNL     1      19.108  20.855   6.241  1.00  0.00     0.163 HD
HETATM    4  C6  UNL     1      19.037  18.951   5.551  1.00  0.00     0.241 C 
HETATM    5  O1  UNL     1      18.926  19.184   4.289  1.00  0.00    -0.271 OA
HETATM    6  C7  UNL     1      19.605  17.621   5.901  1.00  0.00     0.179 C 
HETATM    7  N2  UNL     1      20.229  17.633   7.184  1.00  0.00    -0.359 N 
ATOM      8  H2  UNL     1      19.766  18.253   7.849  1.00  0.00     0.162 HD
HETATM    9  C12 UNL     1      21.339  16.979   7.724  1.00  0.00     0.135 C 
HETATM   10  C13 UNL     1      21.540  15.556   7.835  1.00  0.00     0.158 C 
HETATM   11  N3  UNL     1      21.032  14.877   8.986  1.00  0.00    -0.357 N 
ATOM     12  H3  UNL     1      21.777  14.500   9.572  1.00  0.00     0.162 HD
HETATM   13  C18 UNL     1      19.760  14.601   9.505  1.00  0.00     0.168 C 
HETATM   14  C19 UNL     1      18.657  15.366  10.014  1.00  0.00     0.116 C 
HETATM   15  C20 UNL     1      18.529  16.474  10.982  1.00  0.00     0.145 C 
HETATM   16  N5  UNL     1      19.507  17.514  10.877  1.00  0.00    -0.359 N 
ATOM     17  H5  UNL     1      20.444  17.148  10.708  1.00  0.00     0.162 HD
HETATM   18  C25 UNL     1      19.489  18.870  10.946  1.00  0.00     0.160 C 
HETATM   19  C26 UNL     1      18.523  19.968  10.832  1.00  0.00     0.066 C 
HETATM   20  N6  UNL     1      18.824  20.785   9.658  1.00  0.00    -0.325 N 
ATOM     21  H6  UNL     1      19.727  21.258   9.700  1.00  0.00     0.169 HD
HETATM   22  C30 UNL     1      18.106  21.034   8.498  1.00  0.00     0.244 C 
HETATM   23  O6  UNL     1      17.779  22.219   8.241  1.00  0.00    -0.271 OA
ENDROOT
BRANCH  15  24
HETATM   24  C21 UNL     1      18.518  15.919  12.434  1.00  0.00     0.032 C 
BRANCH  24  25
HETATM   25  C22 UNL     1      17.318  16.374  13.199  1.00  0.00     0.004 C 
BRANCH  25  26
HETATM   26  C23 UNL     1      16.297  15.236  13.344  1.00  0.00     0.027 C 
BRANCH  26  27
HETATM   27  C24 UNL     1      14.996  15.769  12.804  1.00  0.00     0.229 C 
BRANCH  27  28
HETATM   28  N4  UNL     1      14.949  15.818  11.375  1.00  0.00    -0.079 N 
ATOM     29  H43 UNL     1      15.346  14.970  10.971  1.00  0.00     0.274 HD
ATOM     30  H42 UNL     1      13.989  15.731  11.042  1.00  0.00     0.274 HD
ATOM     31  H41 UNL     1      15.394  16.648  10.983  1.00  0.00     0.274 HD
ENDBRANCH  27  28
ENDBRANCH  26  27
ENDBRANCH  25  26
ENDBRANCH  24  25
ENDBRANCH  15  24
BRANCH  14  32
HETATM   32  O4  UNL     1      17.441  15.113   9.601  1.00  0.00    -0.359 OA
ATOM     33  H4  UNL     1      17.291  14.852   8.700  1.00  0.00     0.217 HD
ENDBRANCH  14  32
BRANCH  13  34
HETATM   34  O3  UNL     1      19.525  13.310   9.535  1.00  0.00    -0.344 OA
ATOM     35  H3  UNL     1      19.219  12.995   8.692  1.00  0.00     0.219 HD
ENDBRANCH  13  34
BRANCH  18  36
HETATM   36  O5  UNL     1      20.691  19.373  11.187  1.00  0.00    -0.345 OA
ATOM     37  H5  UNL     1      20.940  19.282  12.099  1.00  0.00     0.219 HD
ENDBRANCH  18  36
BRANCH  19  38
HETATM   38  C27 UNL     1      17.092  19.735  11.092  1.00  0.00     0.032 C 
HETATM   39  C28 UNL     1      16.637  18.734   9.998  1.00  0.00     0.016 C 
HETATM   40  C29 UNL     1      16.335  21.019  10.713  1.00  0.00     0.016 C 
ENDBRANCH  19  38
BRANCH  10  41
HETATM   41  C14 UNL     1      23.044  15.270   7.612  1.00  0.00     0.037 C 
BRANCH  41  42
HETATM   42  C15 UNL     1      23.269  15.061   6.136  1.00  0.00    -0.020 C 
HETATM   43  C16 UNL     1      24.653  15.596   5.808  1.00  0.00     0.009 C 
HETATM   44  C17 UNL     1      23.223  13.548   5.918  1.00  0.00     0.009 C 
ENDBRANCH  41  42
ENDBRANCH  10  41
BRANCH   9  45
HETATM   45  O2  UNL     1      22.337  17.683   8.199  1.00  0.00    -0.348 OA
ATOM     46  H2  UNL     1      22.598  18.483   7.758  1.00  0.00     0.219 HD
ENDBRANCH   9  45
BRANCH   1  47
HETATM   47  C4  UNL     1      16.249  20.266   7.039  1.00  0.00     0.035 C 
BRANCH  47  48
HETATM   48  C3  UNL     1      15.876  20.700   5.699  1.00  0.00     0.002 C 
BRANCH  48  49
HETATM   49  C2  UNL     1      15.141  19.726   4.819  1.00  0.00    -0.004 C 
HETATM   50  C1  UNL     1      15.543  19.951   3.347  1.00  0.00     0.005 C 
ENDBRANCH  48  49
ENDBRANCH  47  48
ENDBRANCH   1  47
BRANCH   6  51
HETATM   51  C8  UNL     1      18.671  16.521   5.600  1.00  0.00     0.013 C 
HETATM   52  C9  UNL     1      17.418  16.858   4.848  1.00  0.00     0.012 C 
BRANCH  51  53
HETATM   53  C10 UNL     1      19.347  15.387   4.866  1.00  0.00     0.002 C 
HETATM   54  C11 UNL     1      19.377  14.136   5.770  1.00  0.00     0.005 C 
ENDBRANCH  51  53
ENDBRANCH   6  51
TORSDOF 17
ENDMDL
MODEL 5
REMARK VINA RESULT: -4.441977502      2.729      8.156
REMARK  17 active torsions:
REMARK  status: ('A' for Active; 'I' for Inactive)
REMARK    1  A    between atoms: C2_2  and  C3_3 
REMARK    2  A    between atoms: C3_3  and  C4_4 
REMARK    3  A    between atoms: C4_4  and  C5_5 
REMARK    4  A    between atoms: C7_10  and  C8_11 
REMARK    5  A    between atoms: C8_11  and  C10_13 
REMARK    6  A    between atoms: C12_17  and  O2_18 
REMARK    7  A    between atoms: C13_20  and  C14_21 
REMARK    8  A    between atoms: C14_21  and  C15_22 
REMARK    9  A    between atoms: C18_27  and  O3_28 
REMARK   10  A    between atoms: C19_30  and  O4_31 
REMARK   11  A    between atoms: C20_33  and  C21_34 
REMARK   12  A    between atoms: C21_34  and  C22_35 
REMARK   13  A    between atoms: C22_35  and  C23_36 
REMARK   14  A    between atoms: C23_36  and  C24_37 
REMARK   15  A    between atoms: C24_37  and  N4_38 
REMARK   16  A    between atoms: C25_44  and  O5_45 
REMARK   17  A    between atoms: C26_47  and  C27_48 
ROOT
HETATM    1  C5  UNL     1      17.758  18.799   5.838  1.00  0.00     0.177 C 
HETATM    2  N1  UNL     1      18.972  18.495   5.132  1.00  0.00    -0.346 N 
ATOM      3  H1  UNL     1      19.432  19.319   4.743  1.00  0.00     0.163 HD
HETATM    4  C6  UNL     1      19.651  17.309   4.870  1.00  0.00     0.241 C 
HETATM    5  O1  UNL     1      19.853  17.034   3.628  1.00  0.00    -0.271 OA
HETATM    6  C7  UNL     1      20.185  16.308   5.834  1.00  0.00     0.179 C 
HETATM    7  N2  UNL     1      20.459  16.893   7.106  1.00  0.00    -0.359 N 
ATOM      8  H2  UNL     1      19.806  17.636   7.355  1.00  0.00     0.162 HD
HETATM    9  C12 UNL     1      21.429  16.665   8.085  1.00  0.00     0.135 C 
HETATM   10  C13 UNL     1      21.677  15.434   8.794  1.00  0.00     0.158 C 
HETATM   11  N3  UNL     1      20.931  15.163   9.982  1.00  0.00    -0.357 N 
ATOM     12  H3  UNL     1      21.522  15.151  10.814  1.00  0.00     0.162 HD
HETATM   13  C18 UNL     1      19.587  14.909  10.285  1.00  0.00     0.168 C 
HETATM   14  C19 UNL     1      18.348  15.628  10.200  1.00  0.00     0.116 C 
HETATM   15  C20 UNL     1      17.912  16.983  10.594  1.00  0.00     0.145 C 
HETATM   16  N5  UNL     1      18.823  18.046  10.294  1.00  0.00    -0.359 N 
ATOM     17  H5  UNL     1      19.791  17.793  10.489  1.00  0.00     0.162 HD
HETATM   18  C25 UNL     1      18.709  19.310   9.813  1.00  0.00     0.160 C 
HETATM   19  C26 UNL     1      17.743  20.125   9.067  1.00  0.00     0.066 C 
HETATM   20  N6  UNL     1      18.286  20.482   7.759  1.00  0.00    -0.325 N 
ATOM     21  H6  UNL     1      19.119  21.069   7.800  1.00  0.00     0.169 HD
HETATM   22  C30 UNL     1      17.877  20.168   6.472  1.00  0.00     0.244 C 
HETATM   23  O6  UNL     1      17.558  21.107   5.701  1.00  0.00    -0.271 OA
ENDROOT
BRANCH  15  24
HETATM   24  C21 UNL     1      17.562  17.013  12.109  1.00  0.00     0.032 C 
BRANCH  24  25
HETATM   25  C22 UNL     1      17.159  15.668  12.617  1.00  0.00     0.004 C 
BRANCH  25  26
HETATM   26  C23 UNL     1      15.734  15.702  13.188  1.00  0.00     0.027 C 
BRANCH  26  27
HETATM   27  C24 UNL     1      14.809  15.785  12.002  1.00  0.00     0.229 C 
BRANCH  27  28
HETATM   28  N4  UNL     1      13.424  15.825  12.361  1.00  0.00    -0.079 N 
ATOM     29  H43 UNL     1      12.851  15.391  11.637  1.00  0.00     0.274 HD
ATOM     30  H42 UNL     1      13.233  15.187  13.133  1.00  0.00     0.274 HD
ATOM     31  H41 UNL     1      13.088  16.764  12.575  1.00  0.00     0.274 HD
ENDBRANCH  27  28
ENDBRANCH  26  27
ENDBRANCH  25  26
ENDBRANCH  24  25
ENDBRANCH  15  24
BRANCH  14  32
HETATM   32  O4  UNL     1      17.295  15.057   9.673  1.00  0.00    -0.359 OA
ATOM     33  H4  UNL     1      17.267  14.884   8.739  1.00  0.00     0.217 HD
ENDBRANCH  14  32
BRANCH  13  34
HETATM   34  O3  UNL     1      19.428  13.701  10.775  1.00  0.00    -0.344 OA
ATOM     35  H3  UNL     1      20.032  13.536  11.490  1.00  0.00     0.219 HD
ENDBRANCH  13  34
BRANCH  18  36
HETATM   36  O5  UNL     1      19.778  20.045  10.082  1.00  0.00    -0.345 OA
ATOM     37  H5  UNL     1      19.550  20.942  10.297  1.00  0.00     0.219 HD
ENDBRANCH  18  36
BRANCH  19  38
HETATM   38  C27 UNL     1      16.308  19.788   9.087  1.00  0.00     0.032 C 
HETATM   39  C28 UNL     1      15.596  21.006   8.442  1.00  0.00     0.016 C 
HETATM   40  C29 UNL     1      15.836  19.853  10.549  1.00  0.00     0.016 C 
ENDBRANCH  19  38
BRANCH  10  41
HETATM   41  C14 UNL     1      23.202  15.321   9.029  1.00  0.00     0.037 C 
BRANCH  41  42
HETATM   42  C15 UNL     1      23.805  14.592   7.855  1.00  0.00    -0.020 C 
HETATM   43  C16 UNL     1      25.228  14.218   8.236  1.00  0.00     0.009 C 
HETATM   44  C17 UNL     1      22.961  13.330   7.670  1.00  0.00     0.009 C 
ENDBRANCH  41  42
ENDBRANCH  10  41
BRANCH   9  45
HETATM   45  O2  UNL     1      22.230  17.640   8.441  1.00  0.00    -0.348 OA
ATOM     46  H2  UNL     1      22.743  17.559   9.236  1.00  0.00     0.219 HD
ENDBRANCH   9  45
BRANCH   1  47
HETATM   47  C4  UNL     1      16.503  18.637   5.081  1.00  0.00     0.035 C 
BRANCH  47  48
HETATM   48  C3  UNL     1      16.355  17.700   3.975  1.00  0.00     0.002 C 
BRANCH  48  49
HETATM   49  C2  UNL     1      16.076  18.259   2.606  1.00  0.00    -0.004 C 
HETATM   50  C1  UNL     1      17.060  17.649   1.586  1.00  0.00     0.005 C 
ENDBRANCH  48  49
ENDBRANCH  47  48
ENDBRANCH   1  47
BRANCH   6  51
HETATM   51  C8  UNL     1      19.425  15.046   5.804  1.00  0.00     0.013 C 
HETATM   52  C9  UNL     1      20.061  13.866   5.130  1.00  0.00     0.012 C 
BRANCH  51  53
HETATM   53  C10 UNL     1      19.004  14.604   7.186  1.00  0.00     0.002 C 
HETATM   54  C11 UNL     1      19.158  13.073   7.304  1.00  0.00     0.005 C 
ENDBRANCH  51  53
ENDBRANCH   6  51
TORSDOF 17
ENDMDL
