MODEL 1
REMARK VINA RESULT: -8.143425345      0.000      0.000
REMARK  13 active torsions:
REMARK  status: ('A' for Active; 'I' for Inactive)
REMARK    1  A    between atoms: S1_2  and  C2_3 
REMARK    2  A    between atoms: C2_3  and  C3_4 
REMARK    3  A    between atoms: C3_4  and  C4_5 
REMARK    4  A    between atoms: C6_10  and  C7_11 
REMARK    5  A    between atoms: C7_11  and  C8_12 
REMARK    6  A    between atoms: C8_12  and  C9_13 
REMARK    7  A    between atoms: C9_13  and  C10_14 
REMARK    8  A    between atoms: C10_14  and  N2_15 
REMARK    9  A    between atoms: C12_22  and  O2_23 
REMARK   10  A    between atoms: C13_25  and  C14_26 
REMARK   11  A    between atoms: C14_26  and  C15_27 
REMARK   12  A    between atoms: C25_39  and  C26_40 
REMARK   13  A    between atoms: C26_40  and  C27_41 
ROOT
HETATM    1  C4  UNL     1      13.899  22.757   6.913  1.00  0.00     0.177 C 
HETATM    2  N1  UNL     1      13.969  24.168   7.075  1.00  0.00    -0.346 N 
ATOM      3  H1  UNL     1      14.913  24.507   7.264  1.00  0.00     0.163 HD
HETATM    4  C5  UNL     1      13.006  25.195   7.029  1.00  0.00     0.241 C 
HETATM    5  O1  UNL     1      13.166  26.010   6.063  1.00  0.00    -0.271 OA
HETATM    6  C6  UNL     1      11.871  25.475   7.900  1.00  0.00     0.175 C 
HETATM    7  N5  UNL     1      10.549  25.467   7.343  1.00  0.00    -0.359 N 
ATOM      8  H5  UNL     1       9.895  26.034   7.882  1.00  0.00     0.162 HD
HETATM    9  C12 UNL     1       9.951  24.870   6.243  1.00  0.00     0.135 C 
HETATM   10  C13 UNL     1       9.907  25.245   4.814  1.00  0.00     0.152 C 
HETATM   11  N6  UNL     1       9.762  24.032   4.087  1.00  0.00    -0.405 N 
ATOM     12  H6  UNL     1       9.405  23.216   4.584  1.00  0.00     0.154 HD
HETATM   13  C21 UNL     1      10.074  23.892   2.752  1.00  0.00     0.085 A 
HETATM   14  C22 UNL     1      10.737  24.800   1.831  1.00  0.00     0.036 A 
HETATM   15  C23 UNL     1      11.369  23.437   2.291  1.00  0.00     0.034 A 
HETATM   16  C24 UNL     1      12.631  23.662   2.961  1.00  0.00     0.005 C 
HETATM   17  C25 UNL     1      13.231  22.700   3.903  1.00  0.00     0.009 C 
HETATM   18  N7  UNL     1      12.398  22.134   4.917  1.00  0.00    -0.329 N 
ATOM     19  H7  UNL     1      11.535  21.673   4.627  1.00  0.00     0.168 HD
HETATM   20  C30 UNL     1      12.704  22.177   6.317  1.00  0.00     0.244 C 
HETATM   21  O3  UNL     1      11.848  21.661   7.070  1.00  0.00    -0.271 OA
ENDROOT
BRANCH   6  22
HETATM   22  C7  UNL     1      12.051  26.825   8.614  1.00  0.00     0.035 C 
BRANCH  22  23
HETATM   23  C8  UNL     1      11.856  26.804  10.076  1.00  0.00     0.004 C 
BRANCH  23  24
HETATM   24  C9  UNL     1      10.331  26.851  10.315  1.00  0.00     0.020 C 
BRANCH  24  25
HETATM   25  C10 UNL     1       9.774  28.233  10.090  1.00  0.00     0.122 C 
BRANCH  25  26
HETATM   26  N2  UNL     1       8.447  28.202   9.525  1.00  0.00    -0.367 N 
HETATM   27  C11 UNL     1       8.177  28.333   8.284  1.00  0.00     0.196 C 
HETATM   28  N3  UNL     1       6.821  28.284   7.857  1.00  0.00    -0.067 NA
HETATM   29  N4  UNL     1       9.173  28.527   7.296  1.00  0.00    -0.067 NA
ATOM     30  H2  UNL     1       7.665  28.064  10.165  1.00  0.00     0.161 HD
ENDBRANCH  25  26
ENDBRANCH  24  25
ENDBRANCH  23  24
ENDBRANCH  22  23
ENDBRANCH   6  22
BRANCH   9  31
HETATM   31  O2  UNL     1       9.276  23.749   6.442  1.00  0.00    -0.348 OA
ATOM     32  H2  UNL     1       9.713  22.929   6.245  1.00  0.00     0.219 HD
ENDBRANCH   9  31
BRANCH   1  33
HETATM   33  C3  UNL     1      14.379  22.069   8.153  1.00  0.00     0.045 C 
BRANCH  33  34
HETATM   34  C2  UNL     1      15.669  21.367   8.105  1.00  0.00     0.076 C 
BRANCH  34  35
HETATM   35  S1  UNL     1      16.970  22.578   8.559  1.00  0.00    -0.173 SA
HETATM   36  C1  UNL     1      18.572  21.803   8.758  1.00  0.00     0.089 C 
ENDBRANCH  34  35
ENDBRANCH  33  34
ENDBRANCH   1  33
BRANCH  10  37
HETATM   37  C14 UNL     1       9.009  26.347   4.423  1.00  0.00     0.037 C 
BRANCH  37  38
HETATM   38  C15 UNL     1       7.645  26.152   3.958  1.00  0.00    -0.012 C 
HETATM   39  C16 UNL     1       6.514  26.853   4.636  1.00  0.00     0.005 C 
HETATM   40  C17 UNL     1       5.251  26.114   4.207  1.00  0.00     0.000 C 
HETATM   41  C18 UNL     1       5.114  26.393   2.716  1.00  0.00     0.000 C 
HETATM   42  C19 UNL     1       6.312  26.010   1.918  1.00  0.00     0.000 C 
HETATM   43  C20 UNL     1       7.562  26.624   2.486  1.00  0.00     0.005 C 
ENDBRANCH  37  38
ENDBRANCH  10  37
BRANCH  17  44
HETATM   44  C26 UNL     1      14.153  21.734   3.227  1.00  0.00     0.060 C 
BRANCH  44  45
HETATM   45  C27 UNL     1      14.831  20.715   4.034  1.00  0.00    -0.017 C 
HETATM   46  C28 UNL     1      16.163  21.215   4.519  1.00  0.00     0.010 C 
HETATM   47  C29 UNL     1      15.162  19.541   3.088  1.00  0.00     0.010 C 
ENDBRANCH  44  45
ENDBRANCH  17  44
TORSDOF 13
ENDMDL
MODEL 2
REMARK VINA RESULT: -7.878891806      2.609      8.203
REMARK  13 active torsions:
REMARK  status: ('A' for Active; 'I' for Inactive)
REMARK    1  A    between atoms: S1_2  and  C2_3 
REMARK    2  A    between atoms: C2_3  and  C3_4 
REMARK    3  A    between atoms: C3_4  and  C4_5 
REMARK    4  A    between atoms: C6_10  and  C7_11 
REMARK    5  A    between atoms: C7_11  and  C8_12 
REMARK    6  A    between atoms: C8_12  and  C9_13 
REMARK    7  A    between atoms: C9_13  and  C10_14 
REMARK    8  A    between atoms: C10_14  and  N2_15 
REMARK    9  A    between atoms: C12_22  and  O2_23 
REMARK   10  A    between atoms: C13_25  and  C14_26 
REMARK   11  A    between atoms: C14_26  and  C15_27 
REMARK   12  A    between atoms: C25_39  and  C26_40 
REMARK   13  A    between atoms: C26_40  and  C27_41 
ROOT
HETATM    1  C4  UNL     1      11.655  25.458   8.022  1.00  0.00     0.177 C 
HETATM    2  N1  UNL     1      11.909  24.078   8.256  1.00  0.00    -0.346 N 
ATOM      3  H1  UNL     1      11.425  23.711   9.076  1.00  0.00     0.163 HD
HETATM    4  C5  UNL     1      12.690  23.113   7.590  1.00  0.00     0.241 C 
HETATM    5  O1  UNL     1      12.011  22.171   7.066  1.00  0.00    -0.271 OA
HETATM    6  C6  UNL     1      14.133  23.017   7.408  1.00  0.00     0.175 C 
HETATM    7  N5  UNL     1      14.668  23.032   6.078  1.00  0.00    -0.359 N 
ATOM      8  H5  UNL     1      15.581  22.580   6.020  1.00  0.00     0.162 HD
HETATM    9  C12 UNL     1      14.237  23.515   4.851  1.00  0.00     0.135 C 
HETATM   10  C13 UNL     1      13.318  22.961   3.836  1.00  0.00     0.152 C 
HETATM   11  N6  UNL     1      12.746  24.074   3.163  1.00  0.00    -0.405 N 
ATOM     12  H6  UNL     1      13.235  24.968   3.217  1.00  0.00     0.154 HD
HETATM   13  C21 UNL     1      11.574  24.020   2.440  1.00  0.00     0.085 A 
HETATM   14  C22 UNL     1      10.587  22.962   2.310  1.00  0.00     0.036 A 
HETATM   15  C23 UNL     1      10.282  24.334   3.015  1.00  0.00     0.034 A 
HETATM   16  C24 UNL     1       9.897  24.122   4.393  1.00  0.00     0.005 C 
HETATM   17  C25 UNL     1      10.007  25.161   5.433  1.00  0.00     0.009 C 
HETATM   18  N7  UNL     1      11.224  25.903   5.524  1.00  0.00    -0.329 N 
ATOM     19  H7  UNL     1      11.564  26.373   4.684  1.00  0.00     0.168 HD
HETATM   20  C30 UNL     1      11.996  26.025   6.727  1.00  0.00     0.244 C 
HETATM   21  O3  UNL     1      13.054  26.685   6.621  1.00  0.00    -0.271 OA
ENDROOT
BRANCH   6  22
HETATM   22  C7  UNL     1      14.688  21.764   8.104  1.00  0.00     0.035 C 
BRANCH  22  23
HETATM   23  C8  UNL     1      15.576  22.015   9.256  1.00  0.00     0.004 C 
BRANCH  23  24
HETATM   24  C9  UNL     1      16.939  22.447   8.673  1.00  0.00     0.020 C 
BRANCH  24  25
HETATM   25  C10 UNL     1      17.872  21.275   8.509  1.00  0.00     0.122 C 
BRANCH  25  26
HETATM   26  N2  UNL     1      18.285  21.093   7.138  1.00  0.00    -0.367 N 
HETATM   27  C11 UNL     1      18.800  20.025   6.666  1.00  0.00     0.196 C 
HETATM   28  N3  UNL     1      19.165  19.976   5.292  1.00  0.00    -0.067 NA
HETATM   29  N4  UNL     1      19.028  18.868   7.449  1.00  0.00    -0.067 NA
ATOM     30  H2  UNL     1      18.156  21.877   6.499  1.00  0.00     0.161 HD
ENDBRANCH  25  26
ENDBRANCH  24  25
ENDBRANCH  23  24
ENDBRANCH  22  23
ENDBRANCH   6  22
BRANCH   9  31
HETATM   31  O2  UNL     1      14.699  24.691   4.456  1.00  0.00    -0.348 OA
ATOM     32  H2  UNL     1      15.338  24.701   3.753  1.00  0.00     0.219 HD
ENDBRANCH   9  31
BRANCH   1  33
HETATM   33  C3  UNL     1      12.094  26.272   9.200  1.00  0.00     0.045 C 
BRANCH  33  34
HETATM   34  C2  UNL     1      11.259  27.409   9.612  1.00  0.00     0.076 C 
BRANCH  34  35
HETATM   35  S1  UNL     1       9.521  26.990   9.204  1.00  0.00    -0.173 SA
HETATM   36  C1  UNL     1       8.402  28.345   9.547  1.00  0.00     0.089 C 
ENDBRANCH  34  35
ENDBRANCH  33  34
ENDBRANCH   1  33
BRANCH  10  37
HETATM   37  C14 UNL     1      13.821  21.872   2.978  1.00  0.00     0.037 C 
BRANCH  37  38
HETATM   38  C15 UNL     1      14.745  20.845   3.433  1.00  0.00    -0.012 C 
HETATM   39  C16 UNL     1      14.379  19.962   4.580  1.00  0.00     0.005 C 
HETATM   40  C17 UNL     1      15.686  19.336   5.056  1.00  0.00     0.000 C 
HETATM   41  C18 UNL     1      16.128  18.425   3.918  1.00  0.00     0.000 C 
HETATM   42  C19 UNL     1      16.258  19.117   2.606  1.00  0.00     0.000 C 
HETATM   43  C20 UNL     1      15.000  19.867   2.261  1.00  0.00     0.005 C 
ENDBRANCH  37  38
ENDBRANCH  10  37
BRANCH  17  44
HETATM   44  C26 UNL     1       8.757  25.974   5.566  1.00  0.00     0.060 C 
BRANCH  44  45
HETATM   45  C27 UNL     1       8.810  27.412   5.285  1.00  0.00    -0.017 C 
HETATM   46  C28 UNL     1       7.691  28.135   5.981  1.00  0.00     0.010 C 
HETATM   47  C29 UNL     1       8.527  27.586   3.779  1.00  0.00     0.010 C 
ENDBRANCH  44  45
ENDBRANCH  17  44
TORSDOF 13
ENDMDL
MODEL 3
REMARK VINA RESULT: -7.842797653      3.543     10.496
REMARK  13 active torsions:
REMARK  status: ('A' for Active; 'I' for Inactive)
REMARK    1  A    between atoms: S1_2  and  C2_3 
REMARK    2  A    between atoms: C2_3  and  C3_4 
REMARK    3  A    between atoms: C3_4  and  C4_5 
REMARK    4  A    between atoms: C6_10  and  C7_11 
REMARK    5  A    between atoms: C7_11  and  C8_12 
REMARK    6  A    between atoms: C8_12  and  C9_13 
REMARK    7  A    between atoms: C9_13  and  C10_14 
REMARK    8  A    between atoms: C10_14  and  N2_15 
REMARK    9  A    between atoms: C12_22  and  O2_23 
REMARK   10  A    between atoms: C13_25  and  C14_26 
REMARK   11  A    between atoms: C14_26  and  C15_27 
REMARK   12  A    between atoms: C25_39  and  C26_40 
REMARK   13  A    between atoms: C26_40  and  C27_41 
ROOT
HETATM    1  C4  UNL     1      12.250  22.940   4.325  1.00  0.00     0.177 C 
HETATM    2  N1  UNL     1      13.361  22.826   3.444  1.00  0.00    -0.346 N 
ATOM      3  H1  UNL     1      13.303  23.447   2.637  1.00  0.00     0.163 HD
HETATM    4  C5  UNL     1      14.525  22.033   3.455  1.00  0.00     0.241 C 
HETATM    5  O1  UNL     1      15.603  22.699   3.588  1.00  0.00    -0.271 OA
HETATM    6  C6  UNL     1      14.695  20.590   3.337  1.00  0.00     0.175 C 
HETATM    7  N5  UNL     1      15.303  19.871   4.419  1.00  0.00    -0.359 N 
ATOM      8  H5  UNL     1      15.730  18.996   4.115  1.00  0.00     0.162 HD
HETATM    9  C12 UNL     1      15.448  20.086   5.782  1.00  0.00     0.135 C 
HETATM   10  C13 UNL     1      16.412  20.890   6.561  1.00  0.00     0.152 C 
HETATM   11  N6  UNL     1      15.741  21.274   7.753  1.00  0.00    -0.405 N 
ATOM     12  H6  UNL     1      14.925  20.733   8.039  1.00  0.00     0.154 HD
HETATM   13  C21 UNL     1      16.126  22.333   8.548  1.00  0.00     0.085 A 
HETATM   14  C22 UNL     1      17.123  23.368   8.333  1.00  0.00     0.036 A 
HETATM   15  C23 UNL     1      15.581  23.666   8.398  1.00  0.00     0.034 A 
HETATM   16  C24 UNL     1      15.125  24.258   7.160  1.00  0.00     0.005 C 
HETATM   17  C25 UNL     1      13.721  24.219   6.713  1.00  0.00     0.009 C 
HETATM   18  N7  UNL     1      13.022  22.975   6.780  1.00  0.00    -0.329 N 
ATOM     19  H7  UNL     1      12.998  22.485   7.674  1.00  0.00     0.168 HD
HETATM   20  C30 UNL     1      12.353  22.376   5.662  1.00  0.00     0.244 C 
HETATM   21  O3  UNL     1      11.818  21.267   5.888  1.00  0.00    -0.271 OA
ENDROOT
BRANCH   6  22
HETATM   22  C7  UNL     1      15.479  20.235   2.063  1.00  0.00     0.035 C 
BRANCH  22  23
HETATM   23  C8  UNL     1      15.310  18.853   1.576  1.00  0.00     0.004 C 
BRANCH  23  24
HETATM   24  C9  UNL     1      16.719  18.346   1.197  1.00  0.00     0.020 C 
BRANCH  24  25
HETATM   25  C10 UNL     1      17.764  18.828   2.169  1.00  0.00     0.122 C 
BRANCH  25  26
HETATM   26  N2  UNL     1      18.541  17.743   2.719  1.00  0.00    -0.367 N 
HETATM   27  C11 UNL     1      18.216  17.058   3.746  1.00  0.00     0.196 C 
HETATM   28  N3  UNL     1      19.074  16.012   4.185  1.00  0.00    -0.067 NA
HETATM   29  N4  UNL     1      17.026  17.287   4.479  1.00  0.00    -0.067 NA
ATOM     30  H2  UNL     1      19.416  17.506   2.252  1.00  0.00     0.161 HD
ENDBRANCH  25  26
ENDBRANCH  24  25
ENDBRANCH  23  24
ENDBRANCH  22  23
ENDBRANCH   6  22
BRANCH   9  31
HETATM   31  O2  UNL     1      14.593  19.485   6.594  1.00  0.00    -0.348 OA
ATOM     32  H2  UNL     1      14.449  19.873   7.449  1.00  0.00     0.219 HD
ENDBRANCH   9  31
BRANCH   1  33
HETATM   33  C3  UNL     1      10.980  22.613   3.600  1.00  0.00     0.045 C 
BRANCH  33  34
HETATM   34  C2  UNL     1       9.924  23.633   3.552  1.00  0.00     0.076 C 
BRANCH  34  35
HETATM   35  S1  UNL     1      10.299  24.746   2.143  1.00  0.00    -0.173 SA
HETATM   36  C1  UNL     1       8.901  25.775   1.706  1.00  0.00     0.089 C 
ENDBRANCH  34  35
ENDBRANCH  33  34
ENDBRANCH   1  33
BRANCH  10  37
HETATM   37  C14 UNL     1      17.775  20.352   6.727  1.00  0.00     0.037 C 
BRANCH  37  38
HETATM   38  C15 UNL     1      18.081  19.144   7.476  1.00  0.00    -0.012 C 
HETATM   39  C16 UNL     1      19.240  18.289   7.079  1.00  0.00     0.005 C 
HETATM   40  C17 UNL     1      19.013  16.942   7.758  1.00  0.00     0.000 C 
HETATM   41  C18 UNL     1      19.157  17.218   9.248  1.00  0.00     0.000 C 
HETATM   42  C19 UNL     1      18.250  18.285   9.755  1.00  0.00     0.000 C 
HETATM   43  C20 UNL     1      18.383  19.543   8.941  1.00  0.00     0.005 C 
ENDBRANCH  37  38
ENDBRANCH  10  37
BRANCH  17  44
HETATM   44  C26 UNL     1      12.940  25.412   7.173  1.00  0.00     0.060 C 
BRANCH  44  45
HETATM   45  C27 UNL     1      11.769  25.207   8.031  1.00  0.00    -0.017 C 
HETATM   46  C28 UNL     1      10.497  25.452   7.267  1.00  0.00     0.010 C 
HETATM   47  C29 UNL     1      11.808  26.306   9.113  1.00  0.00     0.010 C 
ENDBRANCH  44  45
ENDBRANCH  17  44
TORSDOF 13
ENDMDL
MODEL 4
REMARK VINA RESULT: -7.761377425      3.048      8.289
REMARK  13 active torsions:
REMARK  status: ('A' for Active; 'I' for Inactive)
REMARK    1  A    between atoms: S1_2  and  C2_3 
REMARK    2  A    between atoms: C2_3  and  C3_4 
REMARK    3  A    between atoms: C3_4  and  C4_5 
REMARK    4  A    between atoms: C6_10  and  C7_11 
REMARK    5  A    between atoms: C7_11  and  C8_12 
REMARK    6  A    between atoms: C8_12  and  C9_13 
REMARK    7  A    between atoms: C9_13  and  C10_14 
REMARK    8  A    between atoms: C10_14  and  N2_15 
REMARK    9  A    between atoms: C12_22  and  O2_23 
REMARK   10  A    between atoms: C13_25  and  C14_26 
REMARK   11  A    between atoms: C14_26  and  C15_27 
REMARK   12  A    between atoms: C25_39  and  C26_40 
REMARK   13  A    between atoms: C26_40  and  C27_41 
ROOT
HETATM    1  C4  UNL     1      11.689  25.406   7.984  1.00  0.00     0.177 C 
HETATM    2  N1  UNL     1      11.943  24.029   8.233  1.00  0.00    -0.346 N 
ATOM      3  H1  UNL     1      11.460  23.672   9.057  1.00  0.00     0.163 HD
HETATM    4  C5  UNL     1      12.725  23.058   7.578  1.00  0.00     0.241 C 
HETATM    5  O1  UNL     1      12.047  22.109   7.065  1.00  0.00    -0.271 OA
HETATM    6  C6  UNL     1      14.169  22.961   7.398  1.00  0.00     0.175 C 
HETATM    7  N5  UNL     1      14.704  22.960   6.067  1.00  0.00    -0.359 N 
ATOM      8  H5  UNL     1      15.617  22.509   6.014  1.00  0.00     0.162 HD
HETATM    9  C12 UNL     1      14.272  23.430   4.835  1.00  0.00     0.135 C 
HETATM   10  C13 UNL     1      13.354  22.863   3.826  1.00  0.00     0.152 C 
HETATM   11  N6  UNL     1      12.782  23.969   3.140  1.00  0.00    -0.405 N 
ATOM     12  H6  UNL     1      13.269  24.863   3.185  1.00  0.00     0.154 HD
HETATM   13  C21 UNL     1      11.609  23.906   2.418  1.00  0.00     0.085 A 
HETATM   14  C22 UNL     1      10.623  22.845   2.300  1.00  0.00     0.036 A 
HETATM   15  C23 UNL     1      10.317  24.224   2.989  1.00  0.00     0.034 A 
HETATM   16  C24 UNL     1       9.933  24.028   4.370  1.00  0.00     0.005 C 
HETATM   17  C25 UNL     1      10.042  25.079   5.397  1.00  0.00     0.009 C 
HETATM   18  N7  UNL     1      11.258  25.823   5.480  1.00  0.00    -0.329 N 
ATOM     19  H7  UNL     1      11.598  26.284   4.636  1.00  0.00     0.168 HD
HETATM   20  C30 UNL     1      12.030  25.959   6.682  1.00  0.00     0.244 C 
HETATM   21  O3  UNL     1      13.087  26.619   6.568  1.00  0.00    -0.271 OA
ENDROOT
BRANCH   6  22
HETATM   22  C7  UNL     1      14.725  21.715   8.108  1.00  0.00     0.035 C 
BRANCH  22  23
HETATM   23  C8  UNL     1      15.659  21.980   9.218  1.00  0.00     0.004 C 
BRANCH  23  24
HETATM   24  C9  UNL     1      15.438  20.855  10.254  1.00  0.00     0.020 C 
BRANCH  24  25
HETATM   25  C10 UNL     1      16.445  19.746  10.095  1.00  0.00     0.122 C 
BRANCH  25  26
HETATM   26  N2  UNL     1      15.912  18.463  10.488  1.00  0.00    -0.367 N 
HETATM   27  C11 UNL     1      16.613  17.463  10.861  1.00  0.00     0.196 C 
HETATM   28  N3  UNL     1      15.960  16.253  11.224  1.00  0.00    -0.067 NA
HETATM   29  N4  UNL     1      18.026  17.499  10.935  1.00  0.00    -0.067 NA
ATOM     30  H2  UNL     1      14.899  18.348  10.468  1.00  0.00     0.161 HD
ENDBRANCH  25  26
ENDBRANCH  24  25
ENDBRANCH  23  24
ENDBRANCH  22  23
ENDBRANCH   6  22
BRANCH   9  31
HETATM   31  O2  UNL     1      14.734  24.601   4.427  1.00  0.00    -0.348 OA
ATOM     32  H2  UNL     1      14.099  25.275   4.211  1.00  0.00     0.219 HD
ENDBRANCH   9  31
BRANCH   1  33
HETATM   33  C3  UNL     1      12.127  26.234   9.153  1.00  0.00     0.045 C 
BRANCH  33  34
HETATM   34  C2  UNL     1      11.318  27.404   9.520  1.00  0.00     0.076 C 
BRANCH  34  35
HETATM   35  S1  UNL     1       9.559  26.965   9.243  1.00  0.00    -0.173 SA
HETATM   36  C1  UNL     1       8.462  28.343   9.564  1.00  0.00     0.089 C 
ENDBRANCH  34  35
ENDBRANCH  33  34
ENDBRANCH   1  33
BRANCH  10  37
HETATM   37  C14 UNL     1      13.858  21.765   2.980  1.00  0.00     0.037 C 
BRANCH  37  38
HETATM   38  C15 UNL     1      14.886  20.827   3.402  1.00  0.00    -0.012 C 
HETATM   39  C16 UNL     1      14.685  19.992   4.624  1.00  0.00     0.005 C 
HETATM   40  C17 UNL     1      16.068  19.478   5.008  1.00  0.00     0.000 C 
HETATM   41  C18 UNL     1      16.466  18.530   3.885  1.00  0.00     0.000 C 
HETATM   42  C19 UNL     1      16.431  19.149   2.531  1.00  0.00     0.000 C 
HETATM   43  C20 UNL     1      15.100  19.798   2.265  1.00  0.00     0.005 C 
ENDBRANCH  37  38
ENDBRANCH  10  37
BRANCH  17  44
HETATM   44  C26 UNL     1       8.790  25.892   5.521  1.00  0.00     0.060 C 
BRANCH  44  45
HETATM   45  C27 UNL     1       8.833  27.318   5.181  1.00  0.00    -0.017 C 
HETATM   46  C28 UNL     1       7.812  28.087   5.972  1.00  0.00     0.010 C 
HETATM   47  C29 UNL     1       8.379  27.441   3.711  1.00  0.00     0.010 C 
ENDBRANCH  44  45
ENDBRANCH  17  44
TORSDOF 13
ENDMDL
MODEL 5
REMARK VINA RESULT: -7.672975511      2.862      6.238
REMARK  13 active torsions:
REMARK  status: ('A' for Active; 'I' for Inactive)
REMARK    1  A    between atoms: S1_2  and  C2_3 
REMARK    2  A    between atoms: C2_3  and  C3_4 
REMARK    3  A    between atoms: C3_4  and  C4_5 
REMARK    4  A    between atoms: C6_10  and  C7_11 
REMARK    5  A    between atoms: C7_11  and  C8_12 
REMARK    6  A    between atoms: C8_12  and  C9_13 
REMARK    7  A    between atoms: C9_13  and  C10_14 
REMARK    8  A    between atoms: C10_14  and  N2_15 
REMARK    9  A    between atoms: C12_22  and  O2_23 
REMARK   10  A    between atoms: C13_25  and  C14_26 
REMARK   11  A    between atoms: C14_26  and  C15_27 
REMARK   12  A    between atoms: C25_39  and  C26_40 
REMARK   13  A    between atoms: C26_40  and  C27_41 
ROOT
HETATM    1  C4  UNL     1      14.705  20.565   3.253  1.00  0.00     0.177 C 
HETATM    2  N1  UNL     1      13.366  20.587   3.734  1.00  0.00    -0.346 N 
ATOM      3  H1  UNL     1      12.853  19.726   3.541  1.00  0.00     0.163 HD
HETATM    4  C5  UNL     1      12.601  21.551   4.419  1.00  0.00     0.241 C 
HETATM    5  O1  UNL     1      12.268  21.204   5.598  1.00  0.00    -0.271 OA
HETATM    6  C6  UNL     1      12.132  22.867   4.001  1.00  0.00     0.175 C 
HETATM    7  N5  UNL     1      12.560  24.023   4.735  1.00  0.00    -0.359 N 
ATOM      8  H5  UNL     1      11.912  24.805   4.644  1.00  0.00     0.162 HD
HETATM    9  C12 UNL     1      13.649  24.327   5.540  1.00  0.00     0.135 C 
HETATM   10  C13 UNL     1      13.935  24.053   6.963  1.00  0.00     0.152 C 
HETATM   11  N6  UNL     1      15.349  23.980   7.080  1.00  0.00    -0.405 N 
ATOM     12  H6  UNL     1      15.913  24.411   6.347  1.00  0.00     0.154 HD
HETATM   13  C21 UNL     1      16.006  23.363   8.122  1.00  0.00     0.085 A 
HETATM   14  C22 UNL     1      15.501  22.540   9.209  1.00  0.00     0.036 A 
HETATM   15  C23 UNL     1      16.433  21.980   8.073  1.00  0.00     0.034 A 
HETATM   16  C24 UNL     1      15.770  20.917   7.350  1.00  0.00     0.005 C 
HETATM   17  C25 UNL     1      16.141  20.516   5.981  1.00  0.00     0.009 C 
HETATM   18  N7  UNL     1      16.325  21.538   5.001  1.00  0.00    -0.329 N 
ATOM     19  H7  UNL     1      16.979  22.292   5.210  1.00  0.00     0.168 HD
HETATM   20  C30 UNL     1      15.642  21.566   3.740  1.00  0.00     0.244 C 
HETATM   21  O3  UNL     1      15.896  22.553   3.014  1.00  0.00    -0.271 OA
ENDROOT
BRANCH   6  22
HETATM   22  C7  UNL     1      10.596  22.908   3.951  1.00  0.00     0.035 C 
BRANCH  22  23
HETATM   23  C8  UNL     1       9.991  22.539   2.658  1.00  0.00     0.004 C 
BRANCH  23  24
HETATM   24  C9  UNL     1       9.527  23.857   1.999  1.00  0.00     0.020 C 
BRANCH  24  25
HETATM   25  C10 UNL     1       9.168  24.898   3.027  1.00  0.00     0.122 C 
BRANCH  25  26
HETATM   26  N2  UNL     1       9.485  26.235   2.585  1.00  0.00    -0.367 N 
HETATM   27  C11 UNL     1       8.684  27.009   1.962  1.00  0.00     0.196 C 
HETATM   28  N3  UNL     1       9.124  28.307   1.582  1.00  0.00    -0.067 NA
HETATM   29  N4  UNL     1       7.359  26.637   1.627  1.00  0.00    -0.067 NA
ATOM     30  H2  UNL     1      10.421  26.588   2.786  1.00  0.00     0.161 HD
ENDBRANCH  25  26
ENDBRANCH  24  25
ENDBRANCH  23  24
ENDBRANCH  22  23
ENDBRANCH   6  22
BRANCH   9  31
HETATM   31  O2  UNL     1      14.655  24.987   4.990  1.00  0.00    -0.348 OA
ATOM     32  H2  UNL     1      14.447  25.738   4.446  1.00  0.00     0.219 HD
ENDBRANCH   9  31
BRANCH   1  33
HETATM   33  C3  UNL     1      14.719  20.358   1.770  1.00  0.00     0.045 C 
BRANCH  33  34
HETATM   34  C2  UNL     1      15.823  19.587   1.185  1.00  0.00     0.076 C 
BRANCH  34  35
HETATM   35  S1  UNL     1      16.138  18.155   2.288  1.00  0.00    -0.173 SA
HETATM   36  C1  UNL     1      17.481  17.130   1.695  1.00  0.00     0.089 C 
ENDBRANCH  34  35
ENDBRANCH  33  34
ENDBRANCH   1  33
BRANCH  10  37
HETATM   37  C14 UNL     1      13.242  24.878   7.972  1.00  0.00     0.037 C 
BRANCH  37  38
HETATM   38  C15 UNL     1      11.949  25.506   7.753  1.00  0.00    -0.012 C 
HETATM   39  C16 UNL     1      10.751  24.668   7.449  1.00  0.00     0.005 C 
HETATM   40  C17 UNL     1       9.715  25.622   6.863  1.00  0.00     0.000 C 
HETATM   41  C18 UNL     1       9.330  26.545   8.012  1.00  0.00     0.000 C 
HETATM   42  C19 UNL     1      10.486  27.250   8.633  1.00  0.00     0.000 C 
HETATM   43  C20 UNL     1      11.561  26.279   9.037  1.00  0.00     0.005 C 
ENDBRANCH  37  38
ENDBRANCH  10  37
BRANCH  17  44
HETATM   44  C26 UNL     1      17.168  19.426   5.961  1.00  0.00     0.060 C 
BRANCH  44  45
HETATM   45  C27 UNL     1      18.388  19.613   5.171  1.00  0.00    -0.017 C 
HETATM   46  C28 UNL     1      19.017  18.289   4.836  1.00  0.00     0.010 C 
HETATM   47  C29 UNL     1      19.409  20.324   6.085  1.00  0.00     0.010 C 
ENDBRANCH  44  45
ENDBRANCH  17  44
TORSDOF 13
ENDMDL
