MODEL 1
REMARK VINA RESULT: -8.821054007      0.000      0.000
REMARK  12 active torsions:
REMARK  status: ('A' for Active; 'I' for Inactive)
REMARK    1  A    between atoms: C2_2  and  C3_3 
REMARK    2  A    between atoms: C3_3  and  C4_4 
REMARK    3  A    between atoms: C4_4  and  C5_5 
REMARK    4  A    between atoms: C5_5  and  C6_6 
REMARK    5  A    between atoms: C6_6  and  C7_7 
REMARK    6  A    between atoms: C14_18  and  C15_19 
REMARK    7  A    between atoms: C15_19  and  C16_20 
REMARK    8  A    between atoms: C20_27  and  C21_28 
REMARK    9  A    between atoms: C25_35  and  C26_36 
REMARK   10  A    between atoms: C26_36  and  C27_37 
REMARK   11  A    between atoms: C27_37  and  C28_38 
REMARK   12  A    between atoms: C28_38  and  N4_39 
ROOT
HETATM    1  C7  UNL     1       7.533  28.461   7.206  1.00  0.00     0.176 C 
HETATM    2  N1  UNL     1       6.360  29.126   7.687  1.00  0.00    -0.348 N 
ATOM      3  H1  UNL     1       6.503  29.903   8.331  1.00  0.00     0.163 HD
HETATM    4  C8  UNL     1       5.019  28.807   7.355  1.00  0.00     0.218 C 
HETATM    5  O1  UNL     1       4.192  28.684   8.295  1.00  0.00    -0.274 OA
HETATM    6  C9  UNL     1       4.499  28.605   5.979  1.00  0.00     0.103 C 
HETATM    7  C10 UNL     1       3.178  27.886   5.967  1.00  0.00     0.010 C 
HETATM    8  C11 UNL     1       3.295  26.472   6.426  1.00  0.00     0.008 C 
HETATM    9  C12 UNL     1       3.857  25.553   5.374  1.00  0.00     0.085 C 
HETATM   10  C13 UNL     1       2.841  25.233   4.306  1.00  0.00     0.171 C 
HETATM   11  O2  UNL     1       1.675  25.501   4.657  1.00  0.00    -0.291 OA
HETATM   12  C14 UNL     1       3.189  24.666   2.990  1.00  0.00     0.058 C 
HETATM   13  N2  UNL     1       3.908  25.638   2.169  1.00  0.00    -0.326 N 
ATOM     14  H2  UNL     1       3.376  26.486   1.970  1.00  0.00     0.168 HD
HETATM   15  C19 UNL     1       5.173  25.624   1.612  1.00  0.00     0.245 C 
HETATM   16  O3  UNL     1       5.208  25.655   0.321  1.00  0.00    -0.271 OA
HETATM   17  C20 UNL     1       6.508  25.582   2.260  1.00  0.00     0.180 C 
HETATM   18  N3  UNL     1       6.897  26.843   2.836  1.00  0.00    -0.346 N 
ATOM     19  H3  UNL     1       6.194  27.575   2.733  1.00  0.00     0.163 HD
HETATM   20  C24 UNL     1       8.040  27.259   3.502  1.00  0.00     0.241 C 
HETATM   21  O4  UNL     1       8.726  28.224   2.990  1.00  0.00    -0.271 OA
HETATM   22  C25 UNL     1       8.673  26.798   4.753  1.00  0.00     0.176 C 
HETATM   23  N7  UNL     1       7.677  26.345   5.739  1.00  0.00    -0.346 N 
ATOM     24  H7  UNL     1       7.196  25.468   5.543  1.00  0.00     0.163 HD
HETATM   25  C30 UNL     1       7.335  27.007   6.913  1.00  0.00     0.241 C 
HETATM   26  O5  UNL     1       6.802  26.333   7.835  1.00  0.00    -0.271 OA
ENDROOT
BRANCH  22  27
HETATM   27  C26 UNL     1       9.656  25.670   4.607  1.00  0.00     0.036 C 
BRANCH  27  28
HETATM   28  C27 UNL     1      10.426  25.577   5.905  1.00  0.00     0.022 C 
BRANCH  28  29
HETATM   29  C28 UNL     1      10.706  24.151   6.331  1.00  0.00     0.122 C 
BRANCH  29  30
HETATM   30  N4  UNL     1      11.711  23.547   5.500  1.00  0.00    -0.367 N 
HETATM   31  C29 UNL     1      12.194  22.374   5.611  1.00  0.00     0.196 C 
HETATM   32  N5  UNL     1      13.188  21.976   4.674  1.00  0.00    -0.067 NA
HETATM   33  N6  UNL     1      11.810  21.449   6.599  1.00  0.00    -0.067 NA
ATOM     34  H4  UNL     1      12.076  24.120   4.738  1.00  0.00     0.161 HD
ENDBRANCH  29  30
ENDBRANCH  28  29
ENDBRANCH  27  28
ENDBRANCH  22  27
BRANCH  17  35
HETATM   35  C21 UNL     1       7.531  24.965   1.373  1.00  0.00     0.009 C 
HETATM   36  C22 UNL     1       8.224  23.788   2.012  1.00  0.00     0.012 C 
HETATM   37  C23 UNL     1       8.557  26.019   1.013  1.00  0.00     0.012 C 
ENDBRANCH  17  35
BRANCH   1  38
HETATM   38  C6  UNL     1       8.688  28.572   8.128  1.00  0.00     0.035 C 
BRANCH  38  39
HETATM   39  C5  UNL     1       8.470  28.565   9.582  1.00  0.00     0.002 C 
BRANCH  39  40
HETATM   40  C4  UNL     1       9.633  28.218  10.464  1.00  0.00     0.000 C 
BRANCH  40  41
HETATM   41  C3  UNL     1      10.303  26.921   9.976  1.00  0.00    -0.000 C 
BRANCH  41  42
HETATM   42  C2  UNL     1      11.726  27.292   9.601  1.00  0.00    -0.005 C 
HETATM   43  C1  UNL     1      12.426  26.207   8.843  1.00  0.00     0.005 C 
ENDBRANCH  41  42
ENDBRANCH  40  41
ENDBRANCH  39  40
ENDBRANCH  38  39
ENDBRANCH   1  38
BRANCH  12  44
HETATM   44  C15 UNL     1       3.711  23.296   2.917  1.00  0.00     0.065 C 
BRANCH  44  45
HETATM   45  C16 UNL     1       3.221  22.254   3.842  1.00  0.00    -0.017 C 
HETATM   46  C17 UNL     1       4.282  21.419   4.466  1.00  0.00     0.010 C 
HETATM   47  C18 UNL     1       2.308  21.328   3.005  1.00  0.00     0.010 C 
ENDBRANCH  44  45
ENDBRANCH  12  44
TORSDOF 12
ENDMDL
MODEL 2
REMARK VINA RESULT: -8.259773772      9.343     15.270
REMARK  12 active torsions:
REMARK  status: ('A' for Active; 'I' for Inactive)
REMARK    1  A    between atoms: C2_2  and  C3_3 
REMARK    2  A    between atoms: C3_3  and  C4_4 
REMARK    3  A    between atoms: C4_4  and  C5_5 
REMARK    4  A    between atoms: C5_5  and  C6_6 
REMARK    5  A    between atoms: C6_6  and  C7_7 
REMARK    6  A    between atoms: C14_18  and  C15_19 
REMARK    7  A    between atoms: C15_19  and  C16_20 
REMARK    8  A    between atoms: C20_27  and  C21_28 
REMARK    9  A    between atoms: C25_35  and  C26_36 
REMARK   10  A    between atoms: C26_36  and  C27_37 
REMARK   11  A    between atoms: C27_37  and  C28_38 
REMARK   12  A    between atoms: C28_38  and  N4_39 
ROOT
HETATM    1  C7  UNL     1      19.376  17.485   4.340  1.00  0.00     0.176 C 
HETATM    2  N1  UNL     1      20.350  16.440   4.434  1.00  0.00    -0.348 N 
ATOM      3  H1  UNL     1      20.910  16.256   3.602  1.00  0.00     0.163 HD
HETATM    4  C8  UNL     1      20.610  15.637   5.573  1.00  0.00     0.218 C 
HETATM    5  O1  UNL     1      20.664  14.389   5.414  1.00  0.00    -0.274 OA
HETATM    6  C9  UNL     1      20.829  16.143   6.951  1.00  0.00     0.103 C 
HETATM    7  C10 UNL     1      20.667  15.066   7.988  1.00  0.00     0.010 C 
HETATM    8  C11 UNL     1      19.260  14.584   8.094  1.00  0.00     0.008 C 
HETATM    9  C12 UNL     1      18.369  15.524   8.863  1.00  0.00     0.085 C 
HETATM   10  C13 UNL     1      18.618  15.445  10.349  1.00  0.00     0.171 C 
HETATM   11  O2  UNL     1      19.246  14.420  10.676  1.00  0.00    -0.291 OA
HETATM   12  C14 UNL     1      18.170  16.471  11.308  1.00  0.00     0.058 C 
HETATM   13  N2  UNL     1      18.915  17.717  11.138  1.00  0.00    -0.326 N 
ATOM     14  H2  UNL     1      19.920  17.622  11.288  1.00  0.00     0.168 HD
HETATM   15  C19 UNL     1      18.514  18.998  10.811  1.00  0.00     0.245 C 
HETATM   16  O3  UNL     1      18.726  19.892  11.720  1.00  0.00    -0.271 OA
HETATM   17  C20 UNL     1      17.877  19.520   9.575  1.00  0.00     0.180 C 
HETATM   18  N3  UNL     1      18.798  19.648   8.475  1.00  0.00    -0.346 N 
ATOM     19  H3  UNL     1      19.746  19.344   8.697  1.00  0.00     0.163 HD
HETATM   20  C24 UNL     1      18.649  20.104   7.174  1.00  0.00     0.241 C 
HETATM   21  O4  UNL     1      19.354  21.118   6.800  1.00  0.00    -0.271 OA
HETATM   22  C25 UNL     1      17.801  19.640   6.059  1.00  0.00     0.176 C 
HETATM   23  N7  UNL     1      17.609  18.180   6.084  1.00  0.00    -0.346 N 
ATOM     24  H7  UNL     1      17.016  17.803   6.823  1.00  0.00     0.163 HD
HETATM   25  C30 UNL     1      18.165  17.272   5.191  1.00  0.00     0.241 C 
HETATM   26  O5  UNL     1      17.607  16.146   5.072  1.00  0.00    -0.271 OA
ENDROOT
BRANCH  22  27
HETATM   27  C26 UNL     1      16.424  20.240   5.998  1.00  0.00     0.036 C 
BRANCH  27  28
HETATM   28  C27 UNL     1      16.424  21.246   4.868  1.00  0.00     0.022 C 
BRANCH  28  29
HETATM   29  C28 UNL     1      15.035  21.710   4.484  1.00  0.00     0.122 C 
BRANCH  29  30
HETATM   30  N4  UNL     1      14.078  21.393   5.508  1.00  0.00    -0.367 N 
HETATM   31  C29 UNL     1      12.842  21.698   5.522  1.00  0.00     0.196 C 
HETATM   32  N5  UNL     1      12.070  21.281   6.643  1.00  0.00    -0.067 NA
HETATM   33  N6  UNL     1      12.190  22.419   4.505  1.00  0.00    -0.067 NA
ATOM     34  H4  UNL     1      14.427  20.866   6.310  1.00  0.00     0.161 HD
ENDBRANCH  29  30
ENDBRANCH  28  29
ENDBRANCH  27  28
ENDBRANCH  22  27
BRANCH  17  35
HETATM   35  C21 UNL     1      17.066  20.738   9.846  1.00  0.00     0.009 C 
HETATM   36  C22 UNL     1      15.643  20.610   9.362  1.00  0.00     0.012 C 
HETATM   37  C23 UNL     1      17.725  21.920   9.167  1.00  0.00     0.012 C 
ENDBRANCH  17  35
BRANCH   1  38
HETATM   38  C6  UNL     1      18.906  17.723   2.954  1.00  0.00     0.035 C 
BRANCH  38  39
HETATM   39  C5  UNL     1      17.950  18.806   2.680  1.00  0.00     0.002 C 
BRANCH  39  40
HETATM   40  C4  UNL     1      17.052  18.663   1.486  1.00  0.00     0.000 C 
BRANCH  40  41
HETATM   41  C3  UNL     1      15.755  19.464   1.697  1.00  0.00    -0.000 C 
BRANCH  41  42
HETATM   42  C2  UNL     1      14.707  18.465   2.153  1.00  0.00    -0.005 C 
HETATM   43  C1  UNL     1      14.908  18.022   3.569  1.00  0.00     0.005 C 
ENDBRANCH  41  42
ENDBRANCH  40  41
ENDBRANCH  39  40
ENDBRANCH  38  39
ENDBRANCH   1  38
BRANCH  12  44
HETATM   44  C15 UNL     1      16.732  16.645  11.550  1.00  0.00     0.065 C 
BRANCH  44  45
HETATM   45  C16 UNL     1      15.933  15.556  12.147  1.00  0.00    -0.017 C 
HETATM   46  C17 UNL     1      14.460  15.765  12.113  1.00  0.00     0.010 C 
HETATM   47  C18 UNL     1      16.372  15.460  13.627  1.00  0.00     0.010 C 
ENDBRANCH  44  45
ENDBRANCH  12  44
TORSDOF 12
ENDMDL
MODEL 3
REMARK VINA RESULT: -8.154285009      3.259      7.777
REMARK  12 active torsions:
REMARK  status: ('A' for Active; 'I' for Inactive)
REMARK    1  A    between atoms: C2_2  and  C3_3 
REMARK    2  A    between atoms: C3_3  and  C4_4 
REMARK    3  A    between atoms: C4_4  and  C5_5 
REMARK    4  A    between atoms: C5_5  and  C6_6 
REMARK    5  A    between atoms: C6_6  and  C7_7 
REMARK    6  A    between atoms: C14_18  and  C15_19 
REMARK    7  A    between atoms: C15_19  and  C16_20 
REMARK    8  A    between atoms: C20_27  and  C21_28 
REMARK    9  A    between atoms: C25_35  and  C26_36 
REMARK   10  A    between atoms: C26_36  and  C27_37 
REMARK   11  A    between atoms: C27_37  and  C28_38 
REMARK   12  A    between atoms: C28_38  and  N4_39 
ROOT
HETATM    1  C7  UNL     1      13.195  22.417   4.609  1.00  0.00     0.176 C 
HETATM    2  N1  UNL     1      14.065  22.968   5.603  1.00  0.00    -0.348 N 
ATOM      3  H1  UNL     1      14.998  22.562   5.673  1.00  0.00     0.163 HD
HETATM    4  C8  UNL     1      13.754  24.022   6.498  1.00  0.00     0.218 C 
HETATM    5  O1  UNL     1      14.008  23.852   7.719  1.00  0.00    -0.274 OA
HETATM    6  C9  UNL     1      13.150  25.324   6.118  1.00  0.00     0.103 C 
HETATM    7  C10 UNL     1      12.567  26.050   7.298  1.00  0.00     0.010 C 
HETATM    8  C11 UNL     1      11.377  25.352   7.865  1.00  0.00     0.008 C 
HETATM    9  C12 UNL     1      10.125  25.565   7.056  1.00  0.00     0.085 C 
HETATM   10  C13 UNL     1       9.548  26.942   7.266  1.00  0.00     0.171 C 
HETATM   11  O2  UNL     1      10.001  27.503   8.282  1.00  0.00    -0.291 OA
HETATM   12  C14 UNL     1       8.557  27.560   6.365  1.00  0.00     0.058 C 
HETATM   13  N2  UNL     1       9.150  27.885   5.070  1.00  0.00    -0.326 N 
ATOM     14  H2  UNL     1       9.922  28.550   5.123  1.00  0.00     0.168 HD
HETATM   15  C19 UNL     1       8.861  27.461   3.786  1.00  0.00     0.245 C 
HETATM   16  O3  UNL     1       8.464  28.386   2.976  1.00  0.00    -0.271 OA
HETATM   17  C20 UNL     1       8.936  26.108   3.181  1.00  0.00     0.180 C 
HETATM   18  N3  UNL     1      10.284  25.690   2.896  1.00  0.00    -0.346 N 
ATOM     19  H3  UNL     1      10.991  26.372   3.168  1.00  0.00     0.163 HD
HETATM   20  C24 UNL     1      10.810  24.541   2.324  1.00  0.00     0.241 C 
HETATM   21  O4  UNL     1      11.500  24.662   1.240  1.00  0.00    -0.271 OA
HETATM   22  C25 UNL     1      10.740  23.122   2.722  1.00  0.00     0.176 C 
HETATM   23  N7  UNL     1      10.710  22.962   4.186  1.00  0.00    -0.346 N 
ATOM     24  H7  UNL     1       9.855  23.241   4.666  1.00  0.00     0.163 HD
HETATM   25  C30 UNL     1      11.744  22.465   4.971  1.00  0.00     0.241 C 
HETATM   26  O5  UNL     1      11.451  22.004   6.108  1.00  0.00    -0.271 OA
ENDROOT
BRANCH  22  27
HETATM   27  C26 UNL     1       9.557  22.357   2.196  1.00  0.00     0.036 C 
BRANCH  27  28
HETATM   28  C27 UNL     1       8.465  22.452   3.237  1.00  0.00     0.022 C 
BRANCH  28  29
HETATM   29  C28 UNL     1       7.212  23.132   2.727  1.00  0.00     0.122 C 
BRANCH  29  30
HETATM   30  N4  UNL     1       6.153  23.068   3.697  1.00  0.00    -0.367 N 
HETATM   31  C29 UNL     1       4.929  23.369   3.516  1.00  0.00     0.196 C 
HETATM   32  N5  UNL     1       4.044  23.231   4.622  1.00  0.00    -0.067 NA
HETATM   33  N6  UNL     1       4.397  23.828   2.297  1.00  0.00    -0.067 NA
ATOM     34  H4  UNL     1       6.410  22.746   4.631  1.00  0.00     0.161 HD
ENDBRANCH  29  30
ENDBRANCH  28  29
ENDBRANCH  27  28
ENDBRANCH  22  27
BRANCH  17  35
HETATM   35  C21 UNL     1       7.989  25.960   2.043  1.00  0.00     0.009 C 
HETATM   36  C22 UNL     1       8.469  26.653   0.792  1.00  0.00     0.012 C 
HETATM   37  C23 UNL     1       6.647  26.529   2.452  1.00  0.00     0.012 C 
ENDBRANCH  17  35
BRANCH   1  38
HETATM   38  C6  UNL     1      13.517  21.012   4.263  1.00  0.00     0.035 C 
BRANCH  38  39
HETATM   39  C5  UNL     1      14.886  20.650   3.867  1.00  0.00     0.002 C 
BRANCH  39  40
HETATM   40  C4  UNL     1      15.121  20.252   2.439  1.00  0.00     0.000 C 
BRANCH  40  41
HETATM   41  C3  UNL     1      15.154  18.718   2.313  1.00  0.00    -0.000 C 
BRANCH  41  42
HETATM   42  C2  UNL     1      16.209  18.399   1.270  1.00  0.00    -0.005 C 
HETATM   43  C1  UNL     1      17.325  17.560   1.813  1.00  0.00     0.005 C 
ENDBRANCH  41  42
ENDBRANCH  40  41
ENDBRANCH  39  40
ENDBRANCH  38  39
ENDBRANCH   1  38
BRANCH  12  44
HETATM   44  C15 UNL     1       7.204  26.993   6.295  1.00  0.00     0.065 C 
BRANCH  44  45
HETATM   45  C16 UNL     1       6.020  27.876   6.251  1.00  0.00    -0.017 C 
HETATM   46  C17 UNL     1       5.556  28.372   7.574  1.00  0.00     0.010 C 
HETATM   47  C18 UNL     1       4.882  27.039   5.622  1.00  0.00     0.010 C 
ENDBRANCH  44  45
ENDBRANCH  12  44
TORSDOF 12
ENDMDL
MODEL 4
REMARK VINA RESULT: -7.748020514      3.554      8.688
REMARK  12 active torsions:
REMARK  status: ('A' for Active; 'I' for Inactive)
REMARK    1  A    between atoms: C2_2  and  C3_3 
REMARK    2  A    between atoms: C3_3  and  C4_4 
REMARK    3  A    between atoms: C4_4  and  C5_5 
REMARK    4  A    between atoms: C5_5  and  C6_6 
REMARK    5  A    between atoms: C6_6  and  C7_7 
REMARK    6  A    between atoms: C14_18  and  C15_19 
REMARK    7  A    between atoms: C15_19  and  C16_20 
REMARK    8  A    between atoms: C20_27  and  C21_28 
REMARK    9  A    between atoms: C25_35  and  C26_36 
REMARK   10  A    between atoms: C26_36  and  C27_37 
REMARK   11  A    between atoms: C27_37  and  C28_38 
REMARK   12  A    between atoms: C28_38  and  N4_39 
ROOT
HETATM    1  C7  UNL     1      13.469  22.112   4.049  1.00  0.00     0.176 C 
HETATM    2  N1  UNL     1      14.608  22.475   4.837  1.00  0.00    -0.348 N 
ATOM      3  H1  UNL     1      15.501  22.059   4.574  1.00  0.00     0.163 HD
HETATM    4  C8  UNL     1      14.613  23.356   5.947  1.00  0.00     0.218 C 
HETATM    5  O1  UNL     1      15.183  22.972   7.001  1.00  0.00    -0.274 OA
HETATM    6  C9  UNL     1      14.000  24.708   5.976  1.00  0.00     0.103 C 
HETATM    7  C10 UNL     1      13.804  25.217   7.377  1.00  0.00     0.010 C 
HETATM    8  C11 UNL     1      12.780  24.437   8.129  1.00  0.00     0.008 C 
HETATM    9  C12 UNL     1      11.367  24.796   7.751  1.00  0.00     0.085 C 
HETATM   10  C13 UNL     1      10.946  26.117   8.342  1.00  0.00     0.171 C 
HETATM   11  O2  UNL     1      11.692  26.488   9.270  1.00  0.00    -0.291 OA
HETATM   12  C14 UNL     1       9.780  26.889   7.873  1.00  0.00     0.058 C 
HETATM   13  N2  UNL     1      10.011  27.435   6.537  1.00  0.00    -0.326 N 
ATOM     14  H2  UNL     1      10.803  28.076   6.483  1.00  0.00     0.168 HD
HETATM   15  C19 UNL     1       9.357  27.246   5.334  1.00  0.00     0.245 C 
HETATM   16  O3  UNL     1       8.804  28.301   4.835  1.00  0.00    -0.271 OA
HETATM   17  C20 UNL     1       9.189  26.020   4.514  1.00  0.00     0.180 C 
HETATM   18  N3  UNL     1      10.382  25.652   3.796  1.00  0.00    -0.346 N 
ATOM     19  H3  UNL     1      11.173  26.272   3.969  1.00  0.00     0.163 HD
HETATM   20  C24 UNL     1      10.666  24.619   2.915  1.00  0.00     0.241 C 
HETATM   21  O4  UNL     1      11.038  24.926   1.718  1.00  0.00    -0.271 OA
HETATM   22  C25 UNL     1      10.632  23.152   3.073  1.00  0.00     0.176 C 
HETATM   23  N7  UNL     1      10.997  22.737   4.438  1.00  0.00    -0.346 N 
ATOM     24  H7  UNL     1      10.324  22.932   5.178  1.00  0.00     0.163 HD
HETATM   25  C30 UNL     1      12.179  22.103   4.806  1.00  0.00     0.241 C 
HETATM   26  O5  UNL     1      12.185  21.451   5.885  1.00  0.00    -0.271 OA
ENDROOT
BRANCH  22  27
HETATM   27  C26 UNL     1       9.310  22.498   2.779  1.00  0.00     0.036 C 
BRANCH  27  28
HETATM   28  C27 UNL     1       8.610  23.350   1.743  1.00  0.00     0.022 C 
BRANCH  28  29
HETATM   29  C28 UNL     1       7.131  23.523   2.013  1.00  0.00     0.122 C 
BRANCH  29  30
HETATM   30  N4  UNL     1       6.545  24.477   1.111  1.00  0.00    -0.367 N 
HETATM   31  C29 UNL     1       5.392  25.008   1.202  1.00  0.00     0.196 C 
HETATM   32  N5  UNL     1       5.008  25.935   0.192  1.00  0.00    -0.067 NA
HETATM   33  N6  UNL     1       4.473  24.740   2.234  1.00  0.00    -0.067 NA
ATOM     34  H4  UNL     1       7.115  24.758   0.313  1.00  0.00     0.161 HD
ENDBRANCH  29  30
ENDBRANCH  28  29
ENDBRANCH  27  28
ENDBRANCH  22  27
BRANCH  17  35
HETATM   35  C21 UNL     1       7.959  26.080   3.679  1.00  0.00     0.009 C 
HETATM   36  C22 UNL     1       8.016  27.167   2.635  1.00  0.00     0.012 C 
HETATM   37  C23 UNL     1       6.769  26.314   4.586  1.00  0.00     0.012 C 
ENDBRANCH  17  35
BRANCH   1  38
HETATM   38  C6  UNL     1      13.607  20.789   3.395  1.00  0.00     0.035 C 
BRANCH  38  39
HETATM   39  C5  UNL     1      14.903  20.378   2.838  1.00  0.00     0.002 C 
BRANCH  39  40
HETATM   40  C4  UNL     1      14.923  19.212   1.894  1.00  0.00     0.000 C 
BRANCH  40  41
HETATM   41  C3  UNL     1      16.219  19.221   1.063  1.00  0.00    -0.000 C 
BRANCH  41  42
HETATM   42  C2  UNL     1      16.659  17.774   0.945  1.00  0.00    -0.005 C 
HETATM   43  C1  UNL     1      17.538  17.342   2.078  1.00  0.00     0.005 C 
ENDBRANCH  41  42
ENDBRANCH  40  41
ENDBRANCH  39  40
ENDBRANCH  38  39
ENDBRANCH   1  38
BRANCH  12  44
HETATM   44  C15 UNL     1       8.432  26.351   8.091  1.00  0.00     0.065 C 
BRANCH  44  45
HETATM   45  C16 UNL     1       7.380  27.185   8.708  1.00  0.00    -0.017 C 
HETATM   46  C17 UNL     1       6.431  27.811   7.749  1.00  0.00     0.010 C 
HETATM   47  C18 UNL     1       8.115  28.315   9.467  1.00  0.00     0.010 C 
ENDBRANCH  44  45
ENDBRANCH  12  44
TORSDOF 12
ENDMDL
MODEL 5
REMARK VINA RESULT: -7.670255673      3.009      7.481
REMARK  12 active torsions:
REMARK  status: ('A' for Active; 'I' for Inactive)
REMARK    1  A    between atoms: C2_2  and  C3_3 
REMARK    2  A    between atoms: C3_3  and  C4_4 
REMARK    3  A    between atoms: C4_4  and  C5_5 
REMARK    4  A    between atoms: C5_5  and  C6_6 
REMARK    5  A    between atoms: C6_6  and  C7_7 
REMARK    6  A    between atoms: C14_18  and  C15_19 
REMARK    7  A    between atoms: C15_19  and  C16_20 
REMARK    8  A    between atoms: C20_27  and  C21_28 
REMARK    9  A    between atoms: C25_35  and  C26_36 
REMARK   10  A    between atoms: C26_36  and  C27_37 
REMARK   11  A    between atoms: C27_37  and  C28_38 
REMARK   12  A    between atoms: C28_38  and  N4_39 
ROOT
HETATM    1  C7  UNL     1      13.195  22.469   4.565  1.00  0.00     0.176 C 
HETATM    2  N1  UNL     1      14.057  23.026   5.562  1.00  0.00    -0.348 N 
ATOM      3  H1  UNL     1      14.994  22.630   5.634  1.00  0.00     0.163 HD
HETATM    4  C8  UNL     1      13.735  24.077   6.458  1.00  0.00     0.218 C 
HETATM    5  O1  UNL     1      13.986  23.907   7.679  1.00  0.00    -0.274 OA
HETATM    6  C9  UNL     1      13.120  25.374   6.078  1.00  0.00     0.103 C 
HETATM    7  C10 UNL     1      12.526  26.092   7.257  1.00  0.00     0.010 C 
HETATM    8  C11 UNL     1      11.341  25.383   7.820  1.00  0.00     0.008 C 
HETATM    9  C12 UNL     1      10.090  25.586   7.008  1.00  0.00     0.085 C 
HETATM   10  C13 UNL     1       9.500  26.958   7.218  1.00  0.00     0.171 C 
HETATM   11  O2  UNL     1       9.945  27.521   8.236  1.00  0.00    -0.291 OA
HETATM   12  C14 UNL     1       8.505  27.567   6.315  1.00  0.00     0.058 C 
HETATM   13  N2  UNL     1       9.099  27.900   5.022  1.00  0.00    -0.326 N 
ATOM     14  H2  UNL     1       9.865  28.572   5.078  1.00  0.00     0.168 HD
HETATM   15  C19 UNL     1       8.818  27.475   3.737  1.00  0.00     0.245 C 
HETATM   16  O3  UNL     1       8.415  28.398   2.927  1.00  0.00    -0.271 OA
HETATM   17  C20 UNL     1       8.906  26.123   3.131  1.00  0.00     0.180 C 
HETATM   18  N3  UNL     1      10.259  25.718   2.848  1.00  0.00    -0.346 N 
ATOM     19  H3  UNL     1      10.959  26.407   3.123  1.00  0.00     0.163 HD
HETATM   20  C24 UNL     1      10.797  24.575   2.276  1.00  0.00     0.241 C 
HETATM   21  O4  UNL     1      11.489  24.704   1.195  1.00  0.00    -0.271 OA
HETATM   22  C25 UNL     1      10.739  23.155   2.672  1.00  0.00     0.176 C 
HETATM   23  N7  UNL     1      10.707  22.992   4.136  1.00  0.00    -0.346 N 
ATOM     24  H7  UNL     1       9.847  23.263   4.614  1.00  0.00     0.163 HD
HETATM   25  C30 UNL     1      11.743  22.503   4.922  1.00  0.00     0.241 C 
HETATM   26  O5  UNL     1      11.451  22.038   6.058  1.00  0.00    -0.271 OA
ENDROOT
BRANCH  22  27
HETATM   27  C26 UNL     1       9.565  22.380   2.141  1.00  0.00     0.036 C 
BRANCH  27  28
HETATM   28  C27 UNL     1       8.486  22.421   3.201  1.00  0.00     0.022 C 
BRANCH  28  29
HETATM   29  C28 UNL     1       7.239  23.153   2.754  1.00  0.00     0.122 C 
BRANCH  29  30
HETATM   30  N4  UNL     1       6.176  23.002   3.710  1.00  0.00    -0.367 N 
HETATM   31  C29 UNL     1       4.946  23.283   3.539  1.00  0.00     0.196 C 
HETATM   32  N5  UNL     1       4.057  23.054   4.626  1.00  0.00    -0.067 NA
HETATM   33  N6  UNL     1       4.410  23.805   2.347  1.00  0.00    -0.067 NA
ATOM     34  H4  UNL     1       6.435  22.628   4.624  1.00  0.00     0.161 HD
ENDBRANCH  29  30
ENDBRANCH  28  29
ENDBRANCH  27  28
ENDBRANCH  22  27
BRANCH  17  35
HETATM   35  C21 UNL     1       7.964  25.969   1.989  1.00  0.00     0.009 C 
HETATM   36  C22 UNL     1       8.428  26.689   0.748  1.00  0.00     0.012 C 
HETATM   37  C23 UNL     1       6.609  26.501   2.405  1.00  0.00     0.012 C 
ENDBRANCH  17  35
BRANCH   1  38
HETATM   38  C6  UNL     1      13.531  21.068   4.217  1.00  0.00     0.035 C 
BRANCH  38  39
HETATM   39  C5  UNL     1      14.543  20.790   3.188  1.00  0.00     0.002 C 
BRANCH  39  40
HETATM   40  C4  UNL     1      15.131  19.411   3.136  1.00  0.00     0.000 C 
BRANCH  40  41
HETATM   41  C3  UNL     1      15.723  19.033   4.506  1.00  0.00    -0.000 C 
BRANCH  41  42
HETATM   42  C2  UNL     1      16.923  19.939   4.715  1.00  0.00    -0.005 C 
HETATM   43  C1  UNL     1      16.995  20.492   6.105  1.00  0.00     0.005 C 
ENDBRANCH  41  42
ENDBRANCH  40  41
ENDBRANCH  39  40
ENDBRANCH  38  39
ENDBRANCH   1  38
BRANCH  12  44
HETATM   44  C15 UNL     1       7.158  26.989   6.241  1.00  0.00     0.065 C 
BRANCH  44  45
HETATM   45  C16 UNL     1       6.001  27.824   5.859  1.00  0.00    -0.017 C 
HETATM   46  C17 UNL     1       5.606  28.847   6.865  1.00  0.00     0.010 C 
HETATM   47  C18 UNL     1       4.813  26.853   5.666  1.00  0.00     0.010 C 
ENDBRANCH  44  45
ENDBRANCH  12  44
TORSDOF 12
ENDMDL
