MODEL 1
REMARK VINA RESULT: -4.062498699      0.000      0.000
REMARK  0 active torsions:
REMARK  status: ('A' for Active; 'I' for Inactive)
ROOT
HETATM    1  C1  UNL     1       9.629  22.775  13.787  1.00  0.00     0.204 A 
HETATM    2  N1  UNL     1       9.599  23.449  12.724  1.00  0.00    -0.296 N 
ATOM      3  H1  UNL     1       9.950  24.405  12.778  1.00  0.00     0.187 HD
HETATM    4  N2  UNL     1       9.152  23.039  11.531  1.00  0.00    -0.303 N 
ATOM      5  H2  UNL     1       9.215  23.742  10.794  1.00  0.00     0.186 HD
HETATM    6  C2  UNL     1       8.668  21.941  11.159  1.00  0.00     0.174 A 
HETATM    7  S1  UNL     1       8.534  20.671  12.408  1.00  0.00    -0.007 SA
HETATM    8  N3  UNL     1       9.173  21.445  13.850  1.00  0.00    -0.321 N 
ATOM      9  H3  UNL     1       9.215  20.931  14.730  1.00  0.00     0.175 HD
ENDROOT
TORSDOF 0
ENDMDL
MODEL 2
REMARK VINA RESULT: -3.837046322      1.059      2.123
REMARK  0 active torsions:
REMARK  status: ('A' for Active; 'I' for Inactive)
ROOT
HETATM    1  C1  UNL     1       8.622  21.708  11.424  1.00  0.00     0.204 A 
HETATM    2  N1  UNL     1       9.174  22.832  11.553  1.00  0.00    -0.296 N 
ATOM      3  H1  UNL     1       9.360  23.352  10.695  1.00  0.00     0.187 HD
HETATM    4  N2  UNL     1       9.543  23.415  12.700  1.00  0.00    -0.303 N 
ATOM      5  H2  UNL     1       9.976  24.331  12.587  1.00  0.00     0.186 HD
HETATM    6  C2  UNL     1       9.449  23.031  13.893  1.00  0.00     0.174 A 
HETATM    7  S1  UNL     1       8.698  21.431  14.153  1.00  0.00    -0.007 SA
HETATM    8  N3  UNL     1       8.312  20.890  12.527  1.00  0.00    -0.321 N 
ATOM      9  H3  UNL     1       7.863  19.986  12.382  1.00  0.00     0.175 HD
ENDROOT
TORSDOF 0
ENDMDL
MODEL 3
REMARK VINA RESULT: -3.720915746      1.168      2.051
REMARK  0 active torsions:
REMARK  status: ('A' for Active; 'I' for Inactive)
ROOT
HETATM    1  C1  UNL     1       9.784  23.089  13.362  1.00  0.00     0.204 A 
HETATM    2  N1  UNL     1       9.566  21.978  13.913  1.00  0.00    -0.296 N 
ATOM      3  H1  UNL     1       9.841  21.890  14.891  1.00  0.00     0.187 HD
HETATM    4  N2  UNL     1       9.010  20.900  13.346  1.00  0.00    -0.303 N 
ATOM      5  H2  UNL     1       8.921  20.096  13.967  1.00  0.00     0.186 HD
HETATM    6  C2  UNL     1       8.578  20.706  12.181  1.00  0.00     0.174 A 
HETATM    7  S1  UNL     1       8.708  22.080  11.048  1.00  0.00    -0.007 SA
HETATM    8  N3  UNL     1       9.453  23.341  12.017  1.00  0.00    -0.321 N 
ATOM      9  H3  UNL     1       9.645  24.255  11.607  1.00  0.00     0.175 HD
ENDROOT
TORSDOF 0
ENDMDL
MODEL 4
REMARK VINA RESULT: -3.450502024      1.804      2.115
REMARK  0 active torsions:
REMARK  status: ('A' for Active; 'I' for Inactive)
ROOT
HETATM    1  C1  UNL     1       9.607  23.047  13.535  1.00  0.00     0.204 A 
HETATM    2  N1  UNL     1       8.679  23.680  14.104  1.00  0.00    -0.296 N 
ATOM      3  H1  UNL     1       8.909  24.609  14.456  1.00  0.00     0.187 HD
HETATM    4  N2  UNL     1       7.423  23.259  14.293  1.00  0.00    -0.303 N 
ATOM      5  H2  UNL     1       6.823  23.927  14.777  1.00  0.00     0.186 HD
HETATM    6  C2  UNL     1       6.852  22.184  13.978  1.00  0.00     0.174 A 
HETATM    7  S1  UNL     1       7.855  20.975  13.127  1.00  0.00    -0.007 SA
HETATM    8  N3  UNL     1       9.423  21.755  13.005  1.00  0.00    -0.321 N 
ATOM      9  H3  UNL     1      10.200  21.274  12.551  1.00  0.00     0.175 HD
ENDROOT
TORSDOF 0
ENDMDL
MODEL 5
REMARK VINA RESULT: -3.439678340      1.713      2.758
REMARK  0 active torsions:
REMARK  status: ('A' for Active; 'I' for Inactive)
ROOT
HETATM    1  C1  UNL     1       8.852  22.246  11.154  1.00  0.00     0.204 A 
HETATM    2  N1  UNL     1       8.377  21.154  11.564  1.00  0.00    -0.296 N 
ATOM      3  H1  UNL     1       8.003  20.523  10.855  1.00  0.00     0.187 HD
HETATM    4  N2  UNL     1       8.311  20.737  12.834  1.00  0.00    -0.303 N 
ATOM      5  H2  UNL     1       7.888  19.818  12.954  1.00  0.00     0.186 HD
HETATM    6  C2  UNL     1       8.681  21.281  13.905  1.00  0.00     0.174 A 
HETATM    7  S1  UNL     1       9.431  22.895  13.756  1.00  0.00    -0.007 SA
HETATM    8  N3  UNL     1       9.399  23.205  12.028  1.00  0.00    -0.321 N 
ATOM      9  H3  UNL     1       9.775  24.077  11.657  1.00  0.00     0.175 HD
ENDROOT
TORSDOF 0
ENDMDL
