MODEL 1
REMARK VINA RESULT: -5.049548334      0.000      0.000
REMARK  0 active torsions:
REMARK  status: ('A' for Active; 'I' for Inactive)
ROOT
HETATM    1  C1  UNL     1       8.481  21.324   9.180  1.00  0.00     0.147 C 
HETATM    2  N1  UNL     1       8.420  20.765  10.495  1.00  0.00    -0.379 N 
ATOM      3  H1  UNL     1       8.082  19.808  10.604  1.00  0.00     0.160 HD
HETATM    4  C2  UNL     1       8.776  21.428  11.558  1.00  0.00     0.131 A 
HETATM    5  C3  UNL     1       8.707  20.865  12.813  1.00  0.00     0.138 A 
HETATM    6  N2  UNL     1       9.088  21.590  13.877  1.00  0.00    -0.357 N 
ATOM      7  H2  UNL     1       9.036  21.168  14.804  1.00  0.00     0.166 HD
HETATM    8  C4  UNL     1       9.538  22.858  13.763  1.00  0.00     0.197 A 
HETATM    9  N3  UNL     1       9.594  23.379  12.524  1.00  0.00    -0.295 N 
ATOM     10  H3  UNL     1       9.929  24.334  12.403  1.00  0.00     0.187 HD
HETATM   11  N4  UNL     1       9.227  22.690  11.459  1.00  0.00    -0.284 N 
ATOM     12  H4  UNL     1       9.287  23.126  10.539  1.00  0.00     0.188 HD
ENDROOT
TORSDOF 0
ENDMDL
MODEL 2
REMARK VINA RESULT: -4.409009336      1.064      3.270
REMARK  0 active torsions:
REMARK  status: ('A' for Active; 'I' for Inactive)
ROOT
HETATM    1  C1  UNL     1       8.783  22.450  15.453  1.00  0.00     0.147 C 
HETATM    2  N1  UNL     1       8.502  21.380  14.547  1.00  0.00    -0.379 N 
ATOM      3  H1  UNL     1       8.225  20.476  14.928  1.00  0.00     0.160 HD
HETATM    4  C2  UNL     1       8.586  21.515  13.254  1.00  0.00     0.131 A 
HETATM    5  C3  UNL     1       8.311  20.467  12.403  1.00  0.00     0.138 A 
HETATM    6  N2  UNL     1       8.411  20.658  11.078  1.00  0.00    -0.357 N 
ATOM      7  H2  UNL     1       8.205  19.879  10.452  1.00  0.00     0.166 HD
HETATM    8  C4  UNL     1       8.775  21.844  10.544  1.00  0.00     0.197 A 
HETATM    9  N3  UNL     1       9.038  22.846  11.401  1.00  0.00    -0.295 N 
ATOM     10  H3  UNL     1       9.316  23.755  11.031  1.00  0.00     0.187 HD
HETATM   11  N4  UNL     1       8.947  22.689  12.709  1.00  0.00    -0.284 N 
ATOM     12  H4  UNL     1       9.155  23.478  13.321  1.00  0.00     0.188 HD
ENDROOT
TORSDOF 0
ENDMDL
MODEL 3
REMARK VINA RESULT: -4.105391386      1.548      3.846
REMARK  0 active torsions:
REMARK  status: ('A' for Active; 'I' for Inactive)
ROOT
HETATM    1  C1  UNL     1       8.750  20.977  16.291  1.00  0.00     0.147 C 
HETATM    2  N1  UNL     1       9.197  22.046  15.452  1.00  0.00    -0.379 N 
ATOM      3  H1  UNL     1       9.641  22.855  15.885  1.00  0.00     0.160 HD
HETATM    4  C2  UNL     1       9.059  22.027  14.157  1.00  0.00     0.131 A 
HETATM    5  C3  UNL     1       9.498  23.070  13.372  1.00  0.00     0.138 A 
HETATM    6  N2  UNL     1       9.333  23.001  12.041  1.00  0.00    -0.357 N 
ATOM      7  H2  UNL     1       9.661  23.776  11.464  1.00  0.00     0.166 HD
HETATM    8  C4  UNL     1       8.749  21.943  11.439  1.00  0.00     0.197 A 
HETATM    9  N3  UNL     1       8.330  20.941  12.234  1.00  0.00    -0.295 N 
ATOM     10  H3  UNL     1       7.884  20.127  11.810  1.00  0.00     0.187 HD
HETATM   11  N4  UNL     1       8.479  20.980  13.545  1.00  0.00    -0.284 N 
ATOM     12  H4  UNL     1       8.147  20.197  14.107  1.00  0.00     0.188 HD
ENDROOT
TORSDOF 0
ENDMDL
MODEL 4
REMARK VINA RESULT: -4.071760856      1.792      2.236
REMARK  0 active torsions:
REMARK  status: ('A' for Active; 'I' for Inactive)
ROOT
HETATM    1  C1  UNL     1       8.573  20.925  11.216  1.00  0.00     0.147 C 
HETATM    2  N1  UNL     1       9.113  20.857  12.539  1.00  0.00    -0.379 N 
ATOM      3  H1  UNL     1       9.816  20.147  12.744  1.00  0.00     0.160 HD
HETATM    4  C2  UNL     1       8.743  21.664  13.491  1.00  0.00     0.131 A 
HETATM    5  C3  UNL     1       9.279  21.576  14.757  1.00  0.00     0.138 A 
HETATM    6  N2  UNL     1       8.865  22.434  15.703  1.00  0.00    -0.357 N 
ATOM      7  H2  UNL     1       9.266  22.365  16.639  1.00  0.00     0.166 HD
HETATM    8  C4  UNL     1       7.935  23.383  15.461  1.00  0.00     0.197 A 
HETATM    9  N3  UNL     1       7.431  23.442  14.216  1.00  0.00    -0.295 N 
ATOM     10  H3  UNL     1       6.727  24.148  14.000  1.00  0.00     0.187 HD
HETATM   11  N4  UNL     1       7.820  22.614  13.264  1.00  0.00    -0.284 N 
ATOM     12  H4  UNL     1       7.410  22.697  12.334  1.00  0.00     0.188 HD
ENDROOT
TORSDOF 0
ENDMDL
MODEL 5
REMARK VINA RESULT: -4.041225228      1.442      1.992
REMARK  0 active torsions:
REMARK  status: ('A' for Active; 'I' for Inactive)
ROOT
HETATM    1  C1  UNL     1       8.571  20.976  10.180  1.00  0.00     0.147 C 
HETATM    2  N1  UNL     1       9.228  21.940  11.008  1.00  0.00    -0.379 N 
ATOM      3  H1  UNL     1      10.044  22.427  10.638  1.00  0.00     0.160 HD
HETATM    4  C2  UNL     1       8.826  22.219  12.215  1.00  0.00     0.131 A 
HETATM    5  C3  UNL     1       9.477  23.152  12.992  1.00  0.00     0.138 A 
HETATM    6  N2  UNL     1       9.022  23.405  14.229  1.00  0.00    -0.357 N 
ATOM      7  H2  UNL     1       9.507  24.097  14.800  1.00  0.00     0.166 HD
HETATM    8  C4  UNL     1       7.945  22.775  14.745  1.00  0.00     0.197 A 
HETATM    9  N3  UNL     1       7.332  21.869  13.962  1.00  0.00    -0.295 N 
ATOM     10  H3  UNL     1       6.515  21.376  14.322  1.00  0.00     0.187 HD
HETATM   11  N4  UNL     1       7.755  21.600  12.741  1.00  0.00    -0.284 N 
ATOM     12  H4  UNL     1       7.258  20.907  12.183  1.00  0.00     0.188 HD
ENDROOT
TORSDOF 0
ENDMDL
