MODEL 1
REMARK VINA RESULT: -4.713033944      0.000      0.000
REMARK  1 active torsions:
REMARK  status: ('A' for Active; 'I' for Inactive)
REMARK    1  A    between atoms: N3_7  and  O1_8 
ROOT
HETATM    1  C1  UNL     1       8.736  21.442  14.253  1.00  0.00     0.095 C 
HETATM    2  C2  UNL     1       8.685  21.370  12.763  1.00  0.00     0.142 A 
HETATM    3  N1  UNL     1       8.235  20.480  11.862  1.00  0.00    -0.268 N 
ATOM      4  H1  UNL     1       7.784  19.567  11.925  1.00  0.00     0.190 HD
HETATM    5  N2  UNL     1       8.608  21.258  10.858  1.00  0.00    -0.209 N 
HETATM    6  C3  UNL     1       8.574  21.222   9.399  1.00  0.00     0.203 C 
HETATM    7  N3  UNL     1       9.055  22.142  11.729  1.00  0.00    -0.133 N 
ENDROOT
BRANCH   7   8
HETATM    8  O1  UNL     1       9.672  23.389  11.700  1.00  0.00    -0.265 OA
ATOM      9  H1  UNL     1       9.614  24.096  11.067  1.00  0.00     0.247 HD
ENDBRANCH   7   8
TORSDOF 1
ENDMDL
MODEL 2
REMARK VINA RESULT: -4.701148767      0.819      2.796
REMARK  1 active torsions:
REMARK  status: ('A' for Active; 'I' for Inactive)
REMARK    1  A    between atoms: N3_7  and  O1_8 
ROOT
HETATM    1  C1  UNL     1       8.597  21.200   9.509  1.00  0.00     0.095 C 
HETATM    2  C2  UNL     1       8.654  21.318  10.996  1.00  0.00     0.142 A 
HETATM    3  N1  UNL     1       8.271  20.553  12.033  1.00  0.00    -0.268 N 
ATOM      4  H1  UNL     1       7.818  19.643  12.118  1.00  0.00     0.190 HD
HETATM    5  N2  UNL     1       8.717  21.448  12.900  1.00  0.00    -0.209 N 
HETATM    6  C3  UNL     1       8.789  21.597  14.351  1.00  0.00     0.203 C 
HETATM    7  N3  UNL     1       9.098  22.211  11.894  1.00  0.00    -0.133 N 
ENDROOT
BRANCH   7   8
HETATM    8  O1  UNL     1       9.713  23.447  11.721  1.00  0.00    -0.265 OA
ATOM      9  H1  UNL     1      10.629  23.696  11.762  1.00  0.00     0.247 HD
ENDBRANCH   7   8
TORSDOF 1
ENDMDL
MODEL 3
REMARK VINA RESULT: -4.415354802      1.442      3.068
REMARK  1 active torsions:
REMARK  status: ('A' for Active; 'I' for Inactive)
REMARK    1  A    between atoms: N3_7  and  O1_8 
ROOT
HETATM    1  C1  UNL     1       8.549  22.115  10.509  1.00  0.00     0.095 C 
HETATM    2  C2  UNL     1       8.809  21.990  11.974  1.00  0.00     0.142 A 
HETATM    3  N1  UNL     1       8.565  21.061  12.915  1.00  0.00    -0.268 N 
ATOM      4  H1  UNL     1       8.120  20.144  12.911  1.00  0.00     0.190 HD
HETATM    5  N2  UNL     1       9.132  21.809  13.847  1.00  0.00    -0.209 N 
HETATM    6  C3  UNL     1       9.402  21.721  15.279  1.00  0.00     0.203 C 
HETATM    7  N3  UNL     1       9.379  22.731  12.937  1.00  0.00    -0.133 N 
ENDROOT
BRANCH   7   8
HETATM    8  O1  UNL     1       9.975  23.988  12.885  1.00  0.00    -0.265 OA
ATOM      9  H1  UNL     1       9.670  24.833  13.195  1.00  0.00     0.247 HD
ENDBRANCH   7   8
TORSDOF 1
ENDMDL
MODEL 4
REMARK VINA RESULT: -4.371094725      1.164      1.318
REMARK  1 active torsions:
REMARK  status: ('A' for Active; 'I' for Inactive)
REMARK    1  A    between atoms: N3_7  and  O1_8 
ROOT
HETATM    1  C1  UNL     1       9.382  21.714  15.302  1.00  0.00     0.095 C 
HETATM    2  C2  UNL     1       9.126  21.834  13.837  1.00  0.00     0.142 A 
HETATM    3  N1  UNL     1       8.531  21.072  12.902  1.00  0.00    -0.268 N 
ATOM      4  H1  UNL     1       8.067  20.164  12.913  1.00  0.00     0.190 HD
HETATM    5  N2  UNL     1       8.786  21.968  11.962  1.00  0.00    -0.209 N 
HETATM    6  C3  UNL     1       8.553  22.119  10.529  1.00  0.00     0.203 C 
HETATM    7  N3  UNL     1       9.374  22.728  12.866  1.00  0.00    -0.133 N 
ENDROOT
BRANCH   7   8
HETATM    8  O1  UNL     1      10.017  23.961  12.908  1.00  0.00    -0.265 OA
ATOM      9  H1  UNL     1      10.771  24.285  12.429  1.00  0.00     0.247 HD
ENDBRANCH   7   8
TORSDOF 1
ENDMDL
MODEL 5
REMARK VINA RESULT: -4.362537859      2.019      3.273
REMARK  1 active torsions:
REMARK  status: ('A' for Active; 'I' for Inactive)
REMARK    1  A    between atoms: N3_7  and  O1_8 
ROOT
HETATM    1  C1  UNL     1       8.706  20.552  11.874  1.00  0.00     0.095 C 
HETATM    2  C2  UNL     1       8.506  21.591  12.927  1.00  0.00     0.142 A 
HETATM    3  N1  UNL     1       7.569  21.843  13.858  1.00  0.00    -0.268 N 
ATOM      4  H1  UNL     1       6.696  21.393  14.130  1.00  0.00     0.190 HD
HETATM    5  N2  UNL     1       8.231  22.909  14.281  1.00  0.00    -0.209 N 
HETATM    6  C3  UNL     1       8.068  23.941  15.301  1.00  0.00     0.203 C 
HETATM    7  N3  UNL     1       9.159  22.675  13.373  1.00  0.00    -0.133 N 
ENDROOT
BRANCH   7   8
HETATM    8  O1  UNL     1      10.357  23.250  12.960  1.00  0.00    -0.265 OA
ATOM      9  H1  UNL     1      10.663  24.148  13.006  1.00  0.00     0.247 HD
ENDBRANCH   7   8
TORSDOF 1
ENDMDL
