MODEL 1
REMARK VINA RESULT: -4.092159243      0.000      0.000
REMARK  1 active torsions:
REMARK  status: ('A' for Active; 'I' for Inactive)
REMARK    1  A    between atoms: N2_5  and  O1_6 
ROOT
HETATM    1  C1  UNL     1       9.482  21.387  16.065  1.00  0.00     0.150 C 
HETATM    2  N1  UNL     1       8.970  21.759  14.754  1.00  0.00    -0.375 N 
HETATM    3  C2  UNL     1       8.251  20.966  13.814  1.00  0.00     0.106 C 
HETATM    4  C3  UNL     1       8.334  21.508  12.598  1.00  0.00     0.135 C 
HETATM    5  N2  UNL     1       9.119  22.690  12.694  1.00  0.00    -0.253 N 
HETATM    6  C4  UNL     1       9.084  23.065  14.099  1.00  0.00     0.278 C 
ENDROOT
BRANCH   5   7
HETATM    7  O1  UNL     1       9.748  23.303  11.665  1.00  0.00    -0.286 OA
ATOM      8  H1  UNL     1      10.633  23.649  11.685  1.00  0.00     0.244 HD
ENDBRANCH   5   7
TORSDOF 1
ENDMDL
MODEL 2
REMARK VINA RESULT: -3.876750692      1.410      1.444
REMARK  1 active torsions:
REMARK  status: ('A' for Active; 'I' for Inactive)
REMARK    1  A    between atoms: N2_5  and  O1_6 
ROOT
HETATM    1  C1  UNL     1       8.519  22.500  17.319  1.00  0.00     0.150 C 
HETATM    2  N1  UNL     1       8.546  22.480  15.864  1.00  0.00    -0.375 N 
HETATM    3  C2  UNL     1       8.679  21.368  14.985  1.00  0.00     0.106 C 
HETATM    4  C3  UNL     1       9.084  21.778  13.782  1.00  0.00     0.135 C 
HETATM    5  N2  UNL     1       9.233  23.192  13.827  1.00  0.00    -0.253 N 
HETATM    6  C4  UNL     1       8.438  23.630  14.963  1.00  0.00     0.278 C 
ENDROOT
BRANCH   5   7
HETATM    7  O1  UNL     1       9.971  23.933  12.968  1.00  0.00    -0.286 OA
ATOM      8  H1  UNL     1      10.418  24.744  13.181  1.00  0.00     0.244 HD
ENDBRANCH   5   7
TORSDOF 1
ENDMDL
MODEL 3
REMARK VINA RESULT: -3.875158684      1.267      1.267
REMARK  1 active torsions:
REMARK  status: ('A' for Active; 'I' for Inactive)
REMARK    1  A    between atoms: N2_5  and  O1_6 
ROOT
HETATM    1  C1  UNL     1       7.507  22.127  16.388  1.00  0.00     0.150 C 
HETATM    2  N1  UNL     1       7.978  22.363  15.031  1.00  0.00    -0.375 N 
HETATM    3  C2  UNL     1       7.851  21.533  13.881  1.00  0.00     0.106 C 
HETATM    4  C3  UNL     1       8.755  21.879  12.963  1.00  0.00     0.135 C 
HETATM    5  N2  UNL     1       9.518  22.961  13.481  1.00  0.00    -0.253 N 
HETATM    6  C4  UNL     1       8.704  23.538  14.540  1.00  0.00     0.278 C 
ENDROOT
BRANCH   5   7
HETATM    7  O1  UNL     1      10.742  23.340  13.047  1.00  0.00    -0.286 OA
ATOM      8  H1  UNL     1      11.339  22.803  12.538  1.00  0.00     0.244 HD
ENDBRANCH   5   7
TORSDOF 1
ENDMDL
MODEL 4
REMARK VINA RESULT: -3.859642905      1.648      2.265
REMARK  1 active torsions:
REMARK  status: ('A' for Active; 'I' for Inactive)
REMARK    1  A    between atoms: N2_5  and  O1_6 
ROOT
HETATM    1  C1  UNL     1       5.886  22.461  14.135  1.00  0.00     0.150 C 
HETATM    2  N1  UNL     1       7.311  22.167  14.087  1.00  0.00    -0.375 N 
HETATM    3  C2  UNL     1       8.183  21.782  15.144  1.00  0.00     0.106 C 
HETATM    4  C3  UNL     1       9.450  22.020  14.805  1.00  0.00     0.135 C 
HETATM    5  N2  UNL     1       9.459  22.577  13.496  1.00  0.00    -0.253 N 
HETATM    6  C4  UNL     1       8.182  22.205  12.908  1.00  0.00     0.278 C 
ENDROOT
BRANCH   5   7
HETATM    7  O1  UNL     1      10.469  23.295  12.953  1.00  0.00    -0.286 OA
ATOM      8  H1  UNL     1      11.344  23.380  13.315  1.00  0.00     0.244 HD
ENDBRANCH   5   7
TORSDOF 1
ENDMDL
MODEL 5
REMARK VINA RESULT: -3.723132002      1.914      2.440
REMARK  1 active torsions:
REMARK  status: ('A' for Active; 'I' for Inactive)
REMARK    1  A    between atoms: N2_5  and  O1_6 
ROOT
HETATM    1  C1  UNL     1       8.451  22.636  18.376  1.00  0.00     0.150 C 
HETATM    2  N1  UNL     1       8.585  22.408  16.945  1.00  0.00    -0.375 N 
HETATM    3  C2  UNL     1       9.244  21.345  16.264  1.00  0.00     0.106 C 
HETATM    4  C3  UNL     1       9.515  21.702  15.008  1.00  0.00     0.135 C 
HETATM    5  N2  UNL     1       9.040  23.029  14.814  1.00  0.00    -0.253 N 
HETATM    6  C4  UNL     1       8.056  23.245  15.864  1.00  0.00     0.278 C 
ENDROOT
BRANCH   5   7
HETATM    7  O1  UNL     1       9.446  23.877  13.841  1.00  0.00    -0.286 OA
ATOM      8  H1  UNL     1      10.089  23.679  13.169  1.00  0.00     0.244 HD
ENDBRANCH   5   7
TORSDOF 1
ENDMDL
