MODEL 1
REMARK VINA RESULT: -4.327874539      0.000      0.000
REMARK  2 active torsions:
REMARK  status: ('A' for Active; 'I' for Inactive)
REMARK    1  A    between atoms: N1_2  and  C3_4 
REMARK    2  A    between atoms: C3_4  and  O1_5 
ROOT
HETATM    1  C3  UNL     1       8.889  22.577  12.354  1.00  0.00     0.325 C 
HETATM    2  C4  UNL     1       9.289  22.553  13.759  1.00  0.00     0.113 C 
HETATM    3  N2  UNL     1       9.587  22.544  14.885  1.00  0.00    -0.193 NA
ENDROOT
BRANCH   1   4
HETATM    4  N1  UNL     1       8.645  21.300  11.843  1.00  0.00    -0.385 N 
HETATM    5  C1  UNL     1       8.698  21.085  10.457  1.00  0.00     0.146 C 
HETATM    6  C2  UNL     1       8.005  20.353  12.654  1.00  0.00     0.146 C 
ENDBRANCH   1   4
BRANCH   1   7
HETATM    7  O1  UNL     1       9.705  23.385  11.566  1.00  0.00    -0.364 OA
ATOM      8  H1  UNL     1      10.576  23.043  11.402  1.00  0.00     0.213 HD
ENDBRANCH   1   7
TORSDOF 2
ENDMDL
MODEL 2
REMARK VINA RESULT: -4.266558189      1.089      1.143
REMARK  2 active torsions:
REMARK  status: ('A' for Active; 'I' for Inactive)
REMARK    1  A    between atoms: N1_2  and  C3_4 
REMARK    2  A    between atoms: C3_4  and  O1_5 
ROOT
HETATM    1  C3  UNL     1       9.364  22.774  13.368  1.00  0.00     0.325 C 
HETATM    2  C4  UNL     1       9.450  22.227  14.720  1.00  0.00     0.113 C 
HETATM    3  N2  UNL     1       9.503  21.808  15.805  1.00  0.00    -0.193 NA
ENDROOT
BRANCH   1   4
HETATM    4  N1  UNL     1       8.779  21.884  12.464  1.00  0.00    -0.385 N 
HETATM    5  C1  UNL     1       8.715  22.219  11.103  1.00  0.00     0.146 C 
HETATM    6  C2  UNL     1       7.954  20.862  12.953  1.00  0.00     0.146 C 
ENDBRANCH   1   4
BRANCH   1   7
HETATM    7  O1  UNL     1      10.553  23.361  12.938  1.00  0.00    -0.364 OA
ATOM      8  H1  UNL     1      11.021  22.880  12.266  1.00  0.00     0.213 HD
ENDBRANCH   1   7
TORSDOF 2
ENDMDL
MODEL 3
REMARK VINA RESULT: -4.255921707      1.130      1.705
REMARK  2 active torsions:
REMARK  status: ('A' for Active; 'I' for Inactive)
REMARK    1  A    between atoms: N1_2  and  C3_4 
REMARK    2  A    between atoms: C3_4  and  O1_5 
ROOT
HETATM    1  C3  UNL     1       9.375  22.873  13.370  1.00  0.00     0.325 C 
HETATM    2  C4  UNL     1       9.422  22.304  14.715  1.00  0.00     0.113 C 
HETATM    3  N2  UNL     1       9.445  21.868  15.794  1.00  0.00    -0.193 NA
ENDROOT
BRANCH   1   4
HETATM    4  N1  UNL     1       8.688  22.059  12.465  1.00  0.00    -0.385 N 
HETATM    5  C1  UNL     1       8.280  20.775  12.858  1.00  0.00     0.146 C 
HETATM    6  C2  UNL     1       8.733  22.371  11.100  1.00  0.00     0.146 C 
ENDBRANCH   1   4
BRANCH   1   7
HETATM    7  O1  UNL     1      10.612  23.337  12.928  1.00  0.00    -0.364 OA
ATOM      8  H1  UNL     1      10.845  24.210  13.222  1.00  0.00     0.213 HD
ENDBRANCH   1   7
TORSDOF 2
ENDMDL
MODEL 4
REMARK VINA RESULT: -4.113672252      1.441      2.975
REMARK  2 active torsions:
REMARK  status: ('A' for Active; 'I' for Inactive)
REMARK    1  A    between atoms: N1_2  and  C3_4 
REMARK    2  A    between atoms: C3_4  and  O1_5 
ROOT
HETATM    1  C3  UNL     1       9.363  22.769  12.793  1.00  0.00     0.325 C 
HETATM    2  C4  UNL     1       8.960  22.442  11.427  1.00  0.00     0.113 C 
HETATM    3  N2  UNL     1       8.655  22.164  10.338  1.00  0.00    -0.193 NA
ENDROOT
BRANCH   1   4
HETATM    4  N1  UNL     1       8.348  22.534  13.724  1.00  0.00    -0.385 N 
HETATM    5  C1  UNL     1       8.273  23.321  14.883  1.00  0.00     0.146 C 
HETATM    6  C2  UNL     1       7.657  21.315  13.683  1.00  0.00     0.146 C 
ENDBRANCH   1   4
BRANCH   1   7
HETATM    7  O1  UNL     1       9.988  24.010  12.897  1.00  0.00    -0.364 OA
ATOM      8  H1  UNL     1       9.829  24.476  13.710  1.00  0.00     0.213 HD
ENDBRANCH   1   7
TORSDOF 2
ENDMDL
MODEL 5
REMARK VINA RESULT: -4.031185431      1.651      3.060
REMARK  2 active torsions:
REMARK  status: ('A' for Active; 'I' for Inactive)
REMARK    1  A    between atoms: N1_2  and  C3_4 
REMARK    2  A    between atoms: C3_4  and  O1_5 
ROOT
HETATM    1  C3  UNL     1       9.418  22.522  13.058  1.00  0.00     0.325 C 
HETATM    2  C4  UNL     1       8.948  22.644  11.680  1.00  0.00     0.113 C 
HETATM    3  N2  UNL     1       8.579  22.717  10.578  1.00  0.00    -0.193 NA
ENDROOT
BRANCH   1   4
HETATM    4  N1  UNL     1       8.384  22.632  13.991  1.00  0.00    -0.385 N 
HETATM    5  C1  UNL     1       7.182  21.939  13.780  1.00  0.00     0.146 C 
HETATM    6  C2  UNL     1       8.408  23.689  14.911  1.00  0.00     0.146 C 
ENDBRANCH   1   4
BRANCH   1   7
HETATM    7  O1  UNL     1      10.542  23.302  13.324  1.00  0.00    -0.364 OA
ATOM      8  H1  UNL     1      11.244  22.857  13.785  1.00  0.00     0.213 HD
ENDBRANCH   1   7
TORSDOF 2
ENDMDL
