MODEL 1
REMARK VINA RESULT: -8.056916918      0.000      0.000
REMARK  7 active torsions:
REMARK  status: ('A' for Active; 'I' for Inactive)
REMARK    1  A    between atoms: C3_4  and  O2_5 
REMARK    2  A    between atoms: C4_7  and  C5_8 
REMARK    3  A    between atoms: C5_8  and  C6_10 
REMARK    4  A    between atoms: C6_10  and  C8_12 
REMARK    5  A    between atoms: C9_13  and  C10_14 
REMARK    6  A    between atoms: C10_14  and  C11_16 
REMARK    7  A    between atoms: C19_24  and  O5_25 
ROOT
HETATM    1  C6  UNL     1      17.606  -1.652   9.332  1.00  0.00     0.079 C 
HETATM    2  C7  UNL     1      16.961  -0.585   8.512  1.00  0.00     0.022 C 
ENDROOT
BRANCH   1   3
HETATM    3  C5  UNL     1      19.042  -1.487   9.587  1.00  0.00     0.174 C 
HETATM    4  O3  UNL     1      19.308  -0.708  10.592  1.00  0.00    -0.291 OA
BRANCH   3   5
HETATM    5  C4  UNL     1      20.160  -2.052   8.897  1.00  0.00     0.104 A 
HETATM    6  C3  UNL     1      20.931  -1.478   7.932  1.00  0.00     0.200 A 
HETATM    7  O1  UNL     1      21.880  -2.332   7.545  1.00  0.00    -0.289 OA
HETATM    8  C2  UNL     1      21.796  -3.438   8.185  1.00  0.00     0.086 A 
HETATM    9  C1  UNL     1      22.689  -4.609   8.011  1.00  0.00     0.079 C 
HETATM   10  C19 UNL     1      20.708  -3.324   9.072  1.00  0.00     0.114 A 
BRANCH   6  11
HETATM   11  O2  UNL     1      20.895  -0.229   7.321  1.00  0.00    -0.340 OA
ATOM     12  H2  UNL     1      20.058   0.083   6.999  1.00  0.00     0.220 HD
ENDBRANCH   6  11
BRANCH  10  13
HETATM   13  O5  UNL     1      20.329  -4.320   9.913  1.00  0.00    -0.357 OA
ATOM     14  H5  UNL     1      19.511  -4.309  10.396  1.00  0.00     0.217 HD
ENDBRANCH  10  13
ENDBRANCH   3   5
ENDBRANCH   1   3
BRANCH   1  15
HETATM   15  C8  UNL     1      16.906  -1.967  10.587  1.00  0.00    -0.011 C 
HETATM   16  C9  UNL     1      15.832  -2.780  10.608  1.00  0.00     0.047 C 
BRANCH  16  17
HETATM   17  C10 UNL     1      15.119  -3.112  11.817  1.00  0.00     0.153 C 
HETATM   18  O4  UNL     1      15.420  -4.194  12.383  1.00  0.00    -0.293 OA
BRANCH  17  19
HETATM   19  C11 UNL     1      14.077  -2.266  12.410  1.00  0.00     0.067 C 
HETATM   20  C12 UNL     1      13.427  -1.411  11.343  1.00  0.00    -0.007 C 
HETATM   21  C13 UNL     1      12.595  -0.356  12.036  1.00  0.00     0.011 C 
HETATM   22  C14 UNL     1      12.640  -2.182  10.345  1.00  0.00     0.005 C 
HETATM   23  C15 UNL     1      11.864  -3.343  10.861  1.00  0.00     0.001 C 
HETATM   24  C16 UNL     1      12.413  -4.005  12.085  1.00  0.00     0.005 C 
HETATM   25  C17 UNL     1      12.957  -3.025  13.077  1.00  0.00    -0.007 C 
HETATM   26  C18 UNL     1      13.283  -3.633  14.385  1.00  0.00     0.011 C 
ENDBRANCH  17  19
ENDBRANCH  16  17
ENDBRANCH   1  15
TORSDOF 7
ENDMDL
MODEL 2
REMARK VINA RESULT: -8.018535518      2.384      7.544
REMARK  7 active torsions:
REMARK  status: ('A' for Active; 'I' for Inactive)
REMARK    1  A    between atoms: C3_4  and  O2_5 
REMARK    2  A    between atoms: C4_7  and  C5_8 
REMARK    3  A    between atoms: C5_8  and  C6_10 
REMARK    4  A    between atoms: C6_10  and  C8_12 
REMARK    5  A    between atoms: C9_13  and  C10_14 
REMARK    6  A    between atoms: C10_14  and  C11_16 
REMARK    7  A    between atoms: C19_24  and  O5_25 
ROOT
HETATM    1  C6  UNL     1      12.989  -1.092  10.446  1.00  0.00     0.079 C 
HETATM    2  C7  UNL     1      12.563  -2.355   9.775  1.00  0.00     0.022 C 
ENDROOT
BRANCH   1   3
HETATM    3  C5  UNL     1      12.783  -1.034  11.898  1.00  0.00     0.174 C 
HETATM    4  O3  UNL     1      12.682   0.175  12.364  1.00  0.00    -0.291 OA
BRANCH   3   5
HETATM    5  C4  UNL     1      12.681  -2.100  12.846  1.00  0.00     0.104 A 
HETATM    6  C3  UNL     1      11.583  -2.507  13.540  1.00  0.00     0.200 A 
HETATM    7  O1  UNL     1      11.900  -3.542  14.320  1.00  0.00    -0.289 OA
HETATM    8  C2  UNL     1      13.136  -3.855  14.194  1.00  0.00     0.086 A 
HETATM    9  C1  UNL     1      13.828  -4.954  14.909  1.00  0.00     0.079 C 
HETATM   10  C19 UNL     1      13.697  -2.964  13.259  1.00  0.00     0.114 A 
BRANCH   6  11
HETATM   11  O2  UNL     1      10.269  -2.051  13.571  1.00  0.00    -0.340 OA
ATOM     12  H2  UNL     1       9.927  -1.634  12.790  1.00  0.00     0.220 HD
ENDBRANCH   6  11
BRANCH  10  13
HETATM   13  O5  UNL     1      15.001  -3.009  12.883  1.00  0.00    -0.357 OA
ATOM     14  H5  UNL     1      15.281  -2.957  11.977  1.00  0.00     0.217 HD
ENDBRANCH  10  13
ENDBRANCH   3   5
ENDBRANCH   1   3
BRANCH   1  15
HETATM   15  C8  UNL     1      14.355  -0.655  10.116  1.00  0.00    -0.011 C 
HETATM   16  C9  UNL     1      15.306  -1.536   9.749  1.00  0.00     0.047 C 
BRANCH  16  17
HETATM   17  C10 UNL     1      16.655  -1.148   9.419  1.00  0.00     0.153 C 
HETATM   18  O4  UNL     1      16.914   0.082   9.409  1.00  0.00    -0.293 OA
BRANCH  17  19
HETATM   19  C11 UNL     1      17.724  -2.100   9.098  1.00  0.00     0.067 C 
HETATM   20  C12 UNL     1      19.067  -1.403   9.111  1.00  0.00    -0.007 C 
HETATM   21  C13 UNL     1      20.081  -2.334   8.483  1.00  0.00     0.011 C 
HETATM   22  C14 UNL     1      19.493  -0.933  10.455  1.00  0.00     0.005 C 
HETATM   23  C15 UNL     1      19.171  -1.821  11.605  1.00  0.00     0.001 C 
HETATM   24  C16 UNL     1      17.966  -2.691  11.441  1.00  0.00     0.005 C 
HETATM   25  C17 UNL     1      17.844  -3.256  10.060  1.00  0.00    -0.007 C 
HETATM   26  C18 UNL     1      16.804  -4.301   9.941  1.00  0.00     0.011 C 
ENDBRANCH  17  19
ENDBRANCH  16  17
ENDBRANCH   1  15
TORSDOF 7
ENDMDL
MODEL 3
REMARK VINA RESULT: -8.016769636      0.630      1.696
REMARK  7 active torsions:
REMARK  status: ('A' for Active; 'I' for Inactive)
REMARK    1  A    between atoms: C3_4  and  O2_5 
REMARK    2  A    between atoms: C4_7  and  C5_8 
REMARK    3  A    between atoms: C5_8  and  C6_10 
REMARK    4  A    between atoms: C6_10  and  C8_12 
REMARK    5  A    between atoms: C9_13  and  C10_14 
REMARK    6  A    between atoms: C10_14  and  C11_16 
REMARK    7  A    between atoms: C19_24  and  O5_25 
ROOT
HETATM    1  C6  UNL     1      17.633  -1.672   9.331  1.00  0.00     0.079 C 
HETATM    2  C7  UNL     1      17.013  -0.586   8.516  1.00  0.00     0.022 C 
ENDROOT
BRANCH   1   3
HETATM    3  C5  UNL     1      19.069  -1.532   9.603  1.00  0.00     0.174 C 
HETATM    4  O3  UNL     1      19.334  -0.805  10.646  1.00  0.00    -0.291 OA
BRANCH   3   5
HETATM    5  C4  UNL     1      20.186  -2.072   8.892  1.00  0.00     0.104 A 
HETATM    6  C3  UNL     1      20.775  -3.289   9.050  1.00  0.00     0.200 A 
HETATM    7  O1  UNL     1      21.787  -3.417   8.190  1.00  0.00    -0.289 OA
HETATM    8  C2  UNL     1      21.914  -2.367   7.467  1.00  0.00     0.086 A 
HETATM    9  C1  UNL     1      22.933  -2.163   6.409  1.00  0.00     0.079 C 
HETATM   10  C19 UNL     1      20.914  -1.461   7.870  1.00  0.00     0.114 A 
BRANCH   6  11
HETATM   11  O2  UNL     1      20.515  -4.355   9.906  1.00  0.00    -0.340 OA
ATOM     12  H2  UNL     1      21.257  -4.822  10.270  1.00  0.00     0.220 HD
ENDBRANCH   6  11
BRANCH  10  13
HETATM   13  O5  UNL     1      20.756  -0.235   7.309  1.00  0.00    -0.357 OA
ATOM     14  H5  UNL     1      19.905   0.134   7.100  1.00  0.00     0.217 HD
ENDBRANCH  10  13
ENDBRANCH   3   5
ENDBRANCH   1   3
BRANCH   1  15
HETATM   15  C8  UNL     1      16.915  -1.990  10.575  1.00  0.00    -0.011 C 
HETATM   16  C9  UNL     1      15.813  -2.764  10.572  1.00  0.00     0.047 C 
BRANCH  16  17
HETATM   17  C10 UNL     1      15.082  -3.098  11.770  1.00  0.00     0.153 C 
HETATM   18  O4  UNL     1      15.362  -4.188  12.330  1.00  0.00    -0.293 OA
BRANCH  17  19
HETATM   19  C11 UNL     1      14.043  -2.245  12.358  1.00  0.00     0.067 C 
HETATM   20  C12 UNL     1      13.422  -1.367  11.293  1.00  0.00    -0.007 C 
HETATM   21  C13 UNL     1      12.595  -0.308  11.986  1.00  0.00     0.011 C 
HETATM   22  C14 UNL     1      12.639  -2.114  10.274  1.00  0.00     0.005 C 
HETATM   23  C15 UNL     1      11.838  -3.269  10.763  1.00  0.00     0.001 C 
HETATM   24  C16 UNL     1      12.359  -3.954  11.986  1.00  0.00     0.005 C 
HETATM   25  C17 UNL     1      12.902  -2.995  12.998  1.00  0.00    -0.007 C 
HETATM   26  C18 UNL     1      13.200  -3.624  14.304  1.00  0.00     0.011 C 
ENDBRANCH  17  19
ENDBRANCH  16  17
ENDBRANCH   1  15
TORSDOF 7
ENDMDL
MODEL 4
REMARK VINA RESULT: -7.899552302      2.834      5.086
REMARK  7 active torsions:
REMARK  status: ('A' for Active; 'I' for Inactive)
REMARK    1  A    between atoms: C3_4  and  O2_5 
REMARK    2  A    between atoms: C4_7  and  C5_8 
REMARK    3  A    between atoms: C5_8  and  C6_10 
REMARK    4  A    between atoms: C6_10  and  C8_12 
REMARK    5  A    between atoms: C9_13  and  C10_14 
REMARK    6  A    between atoms: C10_14  and  C11_16 
REMARK    7  A    between atoms: C19_24  and  O5_25 
ROOT
HETATM    1  C6  UNL     1      13.697  -2.870  10.958  1.00  0.00     0.079 C 
HETATM    2  C7  UNL     1      12.250  -3.225  10.873  1.00  0.00     0.022 C 
ENDROOT
BRANCH   1   3
HETATM    3  C5  UNL     1      14.114  -1.683  10.201  1.00  0.00     0.174 C 
HETATM    4  O3  UNL     1      13.137  -0.877   9.913  1.00  0.00    -0.291 OA
BRANCH   3   5
HETATM    5  C4  UNL     1      15.416  -1.306   9.747  1.00  0.00     0.104 A 
HETATM    6  C3  UNL     1      15.873  -0.060   9.444  1.00  0.00     0.200 A 
HETATM    7  O1  UNL     1      17.150  -0.128   9.062  1.00  0.00    -0.289 OA
HETATM    8  C2  UNL     1      17.578  -1.335   9.090  1.00  0.00     0.086 A 
HETATM    9  C1  UNL     1      18.946  -1.777   8.730  1.00  0.00     0.079 C 
HETATM   10  C19 UNL     1      16.509  -2.145   9.522  1.00  0.00     0.114 A 
BRANCH   6  11
HETATM   11  O2  UNL     1      15.269   1.193   9.463  1.00  0.00    -0.340 OA
ATOM     12  H2  UNL     1      15.297   1.711   8.668  1.00  0.00     0.220 HD
ENDBRANCH   6  11
BRANCH  10  13
HETATM   13  O5  UNL     1      16.612  -3.490   9.667  1.00  0.00    -0.357 OA
ATOM     14  H5  UNL     1      17.259  -4.014   9.209  1.00  0.00     0.217 HD
ENDBRANCH  10  13
ENDBRANCH   3   5
ENDBRANCH   1   3
BRANCH   1  15
HETATM   15  C8  UNL     1      14.231  -2.803  12.328  1.00  0.00    -0.011 C 
HETATM   16  C9  UNL     1      15.240  -3.601  12.728  1.00  0.00     0.047 C 
BRANCH  16  17
HETATM   17  C10 UNL     1      15.791  -3.567  14.060  1.00  0.00     0.153 C 
HETATM   18  O4  UNL     1      15.595  -2.526  14.737  1.00  0.00    -0.293 OA
BRANCH  17  19
HETATM   19  C11 UNL     1      16.558  -4.667  14.656  1.00  0.00     0.067 C 
HETATM   20  C12 UNL     1      15.975  -5.042  16.001  1.00  0.00    -0.007 C 
HETATM   21  C13 UNL     1      16.964  -5.948  16.700  1.00  0.00     0.011 C 
HETATM   22  C14 UNL     1      14.617  -5.643  15.927  1.00  0.00     0.005 C 
HETATM   23  C15 UNL     1      14.357  -6.563  14.787  1.00  0.00     0.001 C 
HETATM   24  C16 UNL     1      15.154  -6.309  13.547  1.00  0.00     0.005 C 
HETATM   25  C17 UNL     1      16.574  -5.935  13.839  1.00  0.00    -0.007 C 
HETATM   26  C18 UNL     1      17.436  -5.914  12.637  1.00  0.00     0.011 C 
ENDBRANCH  17  19
ENDBRANCH  16  17
ENDBRANCH   1  15
TORSDOF 7
ENDMDL
MODEL 5
REMARK VINA RESULT: -7.821284987      3.493      7.811
REMARK  7 active torsions:
REMARK  status: ('A' for Active; 'I' for Inactive)
REMARK    1  A    between atoms: C3_4  and  O2_5 
REMARK    2  A    between atoms: C4_7  and  C5_8 
REMARK    3  A    between atoms: C5_8  and  C6_10 
REMARK    4  A    between atoms: C6_10  and  C8_12 
REMARK    5  A    between atoms: C9_13  and  C10_14 
REMARK    6  A    between atoms: C10_14  and  C11_16 
REMARK    7  A    between atoms: C19_24  and  O5_25 
ROOT
HETATM    1  C6  UNL     1      14.779  -7.189  13.514  1.00  0.00     0.079 C 
HETATM    2  C7  UNL     1      14.686  -8.654  13.783  1.00  0.00     0.022 C 
ENDROOT
BRANCH   1   3
HETATM    3  C5  UNL     1      14.275  -6.307  14.574  1.00  0.00     0.174 C 
HETATM    4  O3  UNL     1      14.148  -6.893  15.725  1.00  0.00    -0.291 OA
BRANCH   3   5
HETATM    5  C4  UNL     1      13.912  -4.925  14.510  1.00  0.00     0.104 A 
HETATM    6  C3  UNL     1      14.409  -3.890  15.242  1.00  0.00     0.200 A 
HETATM    7  O1  UNL     1      13.813  -2.753  14.879  1.00  0.00    -0.289 OA
HETATM    8  C2  UNL     1      12.951  -2.957  13.954  1.00  0.00     0.086 A 
HETATM    9  C1  UNL     1      12.107  -1.921  13.313  1.00  0.00     0.079 C 
HETATM   10  C19 UNL     1      12.965  -4.337  13.670  1.00  0.00     0.114 A 
BRANCH   6  11
HETATM   11  O2  UNL     1      15.373  -3.825  16.244  1.00  0.00    -0.340 OA
ATOM     12  H2  UNL     1      15.389  -4.522  16.888  1.00  0.00     0.220 HD
ENDBRANCH   6  11
BRANCH  10  13
HETATM   13  O5  UNL     1      12.168  -4.908  12.731  1.00  0.00    -0.357 OA
ATOM     14  H5  UNL     1      11.937  -5.829  12.738  1.00  0.00     0.217 HD
ENDBRANCH  10  13
ENDBRANCH   3   5
ENDBRANCH   1   3
BRANCH   1  15
HETATM   15  C8  UNL     1      16.106  -6.731  13.070  1.00  0.00    -0.011 C 
HETATM   16  C9  UNL     1      16.339  -6.394  11.787  1.00  0.00     0.047 C 
BRANCH  16  17
HETATM   17  C10 UNL     1      17.624  -5.941  11.312  1.00  0.00     0.153 C 
HETATM   18  O4  UNL     1      18.614  -6.683  11.536  1.00  0.00    -0.293 OA
BRANCH  17  19
HETATM   19  C11 UNL     1      17.831  -4.679  10.593  1.00  0.00     0.067 C 
HETATM   20  C12 UNL     1      16.500  -4.022  10.297  1.00  0.00    -0.007 C 
HETATM   21  C13 UNL     1      16.742  -2.907   9.304  1.00  0.00     0.011 C 
HETATM   22  C14 UNL     1      15.774  -3.551  11.505  1.00  0.00     0.005 C 
HETATM   23  C15 UNL     1      16.602  -2.962  12.593  1.00  0.00     0.001 C 
HETATM   24  C16 UNL     1      18.009  -3.461  12.687  1.00  0.00     0.005 C 
HETATM   25  C17 UNL     1      18.644  -3.655  11.345  1.00  0.00    -0.007 C 
HETATM   26  C18 UNL     1      20.098  -3.915  11.415  1.00  0.00     0.011 C 
ENDBRANCH  17  19
ENDBRANCH  16  17
ENDBRANCH   1  15
TORSDOF 7
ENDMDL
