MODEL 1
REMARK VINA RESULT: -7.644101030      0.000      0.000
REMARK  6 active torsions:
REMARK  status: ('A' for Active; 'I' for Inactive)
REMARK    1  A    between atoms: C4_4  and  C5_5 
REMARK    2  A    between atoms: C13_15  and  O3_16 
REMARK    3  A    between atoms: O3_16  and  C14_17 
REMARK    4  A    between atoms: C14_17  and  C15_18 
REMARK    5  A    between atoms: C16_19  and  C17_20 
REMARK    6  A    between atoms: C17_20  and  O4_21 
ROOT
HETATM    1  C5  UNL     1      17.246  -3.525  10.923  1.00  0.00     0.013 C 
HETATM    2  C6  UNL     1      17.870  -4.851  10.723  1.00  0.00     0.038 C 
HETATM    3  C7  UNL     1      16.925  -6.024  10.832  1.00  0.00     0.210 C 
HETATM    4  O1  UNL     1      16.447  -6.005  12.162  1.00  0.00    -0.240 OA
HETATM    5  O2  UNL     1      15.257  -5.501  12.099  1.00  0.00    -0.230 OA
HETATM    6  C8  UNL     1      15.234  -4.113  12.375  1.00  0.00     0.099 C 
HETATM    7  C9  UNL     1      15.943  -3.761  13.626  1.00  0.00     0.041 C 
HETATM    8  C10 UNL     1      15.156  -2.881  14.579  1.00  0.00     0.003 C 
HETATM    9  C11 UNL     1      14.349  -3.770  15.465  1.00  0.00     0.002 C 
HETATM   10  C12 UNL     1      13.644  -4.802  14.670  1.00  0.00     0.032 C 
HETATM   11  C13 UNL     1      12.947  -4.331  13.449  1.00  0.00     0.124 C 
HETATM   12  C18 UNL     1      13.771  -3.740  12.378  1.00  0.00     0.073 C 
HETATM   13  C19 UNL     1      15.798  -3.469  11.128  1.00  0.00     0.050 C 
ENDROOT
BRANCH  11  14
HETATM   14  O3  UNL     1      11.888  -3.475  13.678  1.00  0.00    -0.382 OA
BRANCH  14  15
HETATM   15  C14 UNL     1      11.738  -2.436  12.813  1.00  0.00     0.195 C 
BRANCH  15  16
HETATM   16  C15 UNL     1      10.835  -1.442  13.435  1.00  0.00    -0.003 C 
HETATM   17  C16 UNL     1       9.535  -1.649  13.504  1.00  0.00    -0.003 C 
BRANCH  17  18
HETATM   18  C17 UNL     1       8.582  -0.691  14.114  1.00  0.00     0.191 C 
BRANCH  18  19
HETATM   19  O4  UNL     1       7.583  -1.337  14.815  1.00  0.00    -0.397 OA
ATOM     20  H4  UNL     1       7.161  -0.760  15.441  1.00  0.00     0.209 HD
ENDBRANCH  18  19
ENDBRANCH  17  18
ENDBRANCH  15  16
ENDBRANCH  14  15
ENDBRANCH  11  14
BRANCH   1  21
HETATM   21  C4  UNL     1      17.512  -2.724   9.665  1.00  0.00    -0.020 C 
HETATM   22  C2  UNL     1      18.282  -1.672   9.615  1.00  0.00    -0.091 C 
HETATM   23  C1  UNL     1      19.008  -1.113  10.790  1.00  0.00     0.042 C 
HETATM   24  C3  UNL     1      18.459  -0.974   8.311  1.00  0.00     0.042 C 
ENDBRANCH   1  21
TORSDOF 6
ENDMDL
MODEL 2
REMARK VINA RESULT: -7.191940654      1.428      1.552
REMARK  6 active torsions:
REMARK  status: ('A' for Active; 'I' for Inactive)
REMARK    1  A    between atoms: C4_4  and  C5_5 
REMARK    2  A    between atoms: C13_15  and  O3_16 
REMARK    3  A    between atoms: O3_16  and  C14_17 
REMARK    4  A    between atoms: C14_17  and  C15_18 
REMARK    5  A    between atoms: C16_19  and  C17_20 
REMARK    6  A    between atoms: C17_20  and  O4_21 
ROOT
HETATM    1  C5  UNL     1      18.160  -3.552  11.343  1.00  0.00     0.013 C 
HETATM    2  C6  UNL     1      19.157  -4.613  11.601  1.00  0.00     0.038 C 
HETATM    3  C7  UNL     1      18.578  -5.980  11.879  1.00  0.00     0.210 C 
HETATM    4  O1  UNL     1      17.828  -5.840  13.070  1.00  0.00    -0.240 OA
HETATM    5  O2  UNL     1      16.591  -5.775  12.698  1.00  0.00    -0.230 OA
HETATM    6  C8  UNL     1      16.121  -4.445  12.586  1.00  0.00     0.099 C 
HETATM    7  C9  UNL     1      16.404  -3.629  13.787  1.00  0.00     0.041 C 
HETATM    8  C10 UNL     1      15.211  -2.874  14.342  1.00  0.00     0.003 C 
HETATM    9  C11 UNL     1      14.507  -3.771  15.304  1.00  0.00     0.002 C 
HETATM   10  C12 UNL     1      14.314  -5.118  14.720  1.00  0.00     0.032 C 
HETATM   11  C13 UNL     1      13.805  -5.166  13.328  1.00  0.00     0.124 C 
HETATM   12  C18 UNL     1      14.649  -4.577  12.272  1.00  0.00     0.073 C 
HETATM   13  C19 UNL     1      16.747  -3.929  11.310  1.00  0.00     0.050 C 
ENDROOT
BRANCH  11  14
HETATM   14  O3  UNL     1      12.526  -4.674  13.160  1.00  0.00    -0.382 OA
BRANCH  14  15
HETATM   15  C14 UNL     1      12.328  -3.817  12.122  1.00  0.00     0.195 C 
BRANCH  15  16
HETATM   16  C15 UNL     1      11.630  -2.618  12.638  1.00  0.00    -0.003 C 
HETATM   17  C16 UNL     1      12.156  -1.415  12.513  1.00  0.00    -0.003 C 
BRANCH  17  18
HETATM   18  C17 UNL     1      11.504  -0.179  13.010  1.00  0.00     0.191 C 
BRANCH  18  19
HETATM   19  O4  UNL     1      10.347  -0.455  13.711  1.00  0.00    -0.397 OA
ATOM     20  H4  UNL     1       9.575  -0.377  13.163  1.00  0.00     0.209 HD
ENDBRANCH  18  19
ENDBRANCH  17  18
ENDBRANCH  15  16
ENDBRANCH  14  15
ENDBRANCH  11  14
BRANCH   1  21
HETATM   21  C4  UNL     1      18.467  -2.990   9.971  1.00  0.00    -0.020 C 
HETATM   22  C2  UNL     1      18.819  -1.754   9.746  1.00  0.00    -0.091 C 
HETATM   23  C1  UNL     1      18.969  -0.723  10.812  1.00  0.00     0.042 C 
HETATM   24  C3  UNL     1      19.093  -1.328   8.346  1.00  0.00     0.042 C 
ENDBRANCH   1  21
TORSDOF 6
ENDMDL
MODEL 3
REMARK VINA RESULT: -7.116766231      2.419      5.498
REMARK  6 active torsions:
REMARK  status: ('A' for Active; 'I' for Inactive)
REMARK    1  A    between atoms: C4_4  and  C5_5 
REMARK    2  A    between atoms: C13_15  and  O3_16 
REMARK    3  A    between atoms: O3_16  and  C14_17 
REMARK    4  A    between atoms: C14_17  and  C15_18 
REMARK    5  A    between atoms: C16_19  and  C17_20 
REMARK    6  A    between atoms: C17_20  and  O4_21 
ROOT
HETATM    1  C5  UNL     1      14.044  -1.747  10.607  1.00  0.00     0.013 C 
HETATM    2  C6  UNL     1      12.907  -0.808  10.718  1.00  0.00     0.038 C 
HETATM    3  C7  UNL     1      12.510  -0.449  12.131  1.00  0.00     0.210 C 
HETATM    4  O1  UNL     1      12.087  -1.661  12.725  1.00  0.00    -0.240 OA
HETATM    5  O2  UNL     1      13.071  -2.047  13.471  1.00  0.00    -0.230 OA
HETATM    6  C8  UNL     1      13.909  -2.990  12.829  1.00  0.00     0.099 C 
HETATM    7  C9  UNL     1      13.159  -4.118  12.236  1.00  0.00     0.041 C 
HETATM    8  C10 UNL     1      13.683  -5.495  12.600  1.00  0.00     0.003 C 
HETATM    9  C11 UNL     1      13.019  -5.919  13.868  1.00  0.00     0.002 C 
HETATM   10  C12 UNL     1      13.061  -4.830  14.870  1.00  0.00     0.032 C 
HETATM   11  C13 UNL     1      14.363  -4.142  15.042  1.00  0.00     0.124 C 
HETATM   12  C18 UNL     1      14.906  -3.408  13.884  1.00  0.00     0.073 C 
HETATM   13  C19 UNL     1      14.708  -2.173  11.839  1.00  0.00     0.050 C 
ENDROOT
BRANCH  11  14
HETATM   14  O3  UNL     1      15.377  -4.934  15.543  1.00  0.00    -0.382 OA
BRANCH  14  15
HETATM   15  C14 UNL     1      16.488  -5.074  14.771  1.00  0.00     0.195 C 
BRANCH  15  16
HETATM   16  C15 UNL     1      16.713  -6.518  14.538  1.00  0.00    -0.003 C 
HETATM   17  C16 UNL     1      16.704  -7.024  13.321  1.00  0.00    -0.003 C 
BRANCH  17  18
HETATM   18  C17 UNL     1      16.923  -8.461  13.028  1.00  0.00     0.191 C 
BRANCH  18  19
HETATM   19  O4  UNL     1      15.870  -9.006  12.319  1.00  0.00    -0.397 OA
ATOM     20  H4  UNL     1      15.780  -8.608  11.461  1.00  0.00     0.209 HD
ENDBRANCH  18  19
ENDBRANCH  17  18
ENDBRANCH  15  16
ENDBRANCH  14  15
ENDBRANCH  11  14
BRANCH   1  21
HETATM   21  C4  UNL     1      15.109  -1.047   9.788  1.00  0.00    -0.020 C 
HETATM   22  C2  UNL     1      16.168  -1.636   9.305  1.00  0.00    -0.091 C 
HETATM   23  C1  UNL     1      16.476  -3.082   9.493  1.00  0.00     0.042 C 
HETATM   24  C3  UNL     1      17.140  -0.831   8.515  1.00  0.00     0.042 C 
ENDBRANCH   1  21
TORSDOF 6
ENDMDL
MODEL 4
REMARK VINA RESULT: -7.021394176      2.902      6.333
REMARK  6 active torsions:
REMARK  status: ('A' for Active; 'I' for Inactive)
REMARK    1  A    between atoms: C4_4  and  C5_5 
REMARK    2  A    between atoms: C13_15  and  O3_16 
REMARK    3  A    between atoms: O3_16  and  C14_17 
REMARK    4  A    between atoms: C14_17  and  C15_18 
REMARK    5  A    between atoms: C16_19  and  C17_20 
REMARK    6  A    between atoms: C17_20  and  O4_21 
ROOT
HETATM    1  C5  UNL     1      12.036  -1.789  13.015  1.00  0.00     0.013 C 
HETATM    2  C6  UNL     1      12.167  -0.930  11.818  1.00  0.00     0.038 C 
HETATM    3  C7  UNL     1      12.898  -1.560  10.656  1.00  0.00     0.210 C 
HETATM    4  O1  UNL     1      14.212  -1.801  11.120  1.00  0.00    -0.240 OA
HETATM    5  O2  UNL     1      14.262  -3.066  11.386  1.00  0.00    -0.230 OA
HETATM    6  C8  UNL     1      14.036  -3.348  12.755  1.00  0.00     0.099 C 
HETATM    7  C9  UNL     1      14.879  -2.536  13.659  1.00  0.00     0.041 C 
HETATM    8  C10 UNL     1      15.625  -3.326  14.717  1.00  0.00     0.003 C 
HETATM    9  C11 UNL     1      16.931  -3.757  14.136  1.00  0.00     0.002 C 
HETATM   10  C12 UNL     1      16.736  -4.339  12.788  1.00  0.00     0.032 C 
HETATM   11  C13 UNL     1      15.631  -5.317  12.646  1.00  0.00     0.124 C 
HETATM   12  C18 UNL     1      14.258  -4.836  12.887  1.00  0.00     0.073 C 
HETATM   13  C19 UNL     1      12.548  -3.158  12.939  1.00  0.00     0.050 C 
ENDROOT
BRANCH  11  14
HETATM   14  O3  UNL     1      15.794  -6.486  13.363  1.00  0.00    -0.382 OA
BRANCH  14  15
HETATM   15  C14 UNL     1      14.664  -7.084  13.829  1.00  0.00     0.195 C 
BRANCH  15  16
HETATM   16  C15 UNL     1      14.887  -7.457  15.244  1.00  0.00    -0.003 C 
HETATM   17  C16 UNL     1      14.949  -6.541  16.190  1.00  0.00    -0.003 C 
BRANCH  17  18
HETATM   18  C17 UNL     1      15.170  -6.853  17.623  1.00  0.00     0.191 C 
BRANCH  18  19
HETATM   19  O4  UNL     1      14.087  -6.493  18.400  1.00  0.00    -0.397 OA
ATOM     20  H4  UNL     1      13.420  -7.169  18.411  1.00  0.00     0.209 HD
ENDBRANCH  18  19
ENDBRANCH  17  18
ENDBRANCH  15  16
ENDBRANCH  14  15
ENDBRANCH  11  14
BRANCH   1  21
HETATM   21  C4  UNL     1      10.553  -1.921  13.296  1.00  0.00    -0.020 C 
HETATM   22  C2  UNL     1       9.773  -0.922  13.604  1.00  0.00    -0.091 C 
HETATM   23  C1  UNL     1      10.234   0.490  13.719  1.00  0.00     0.042 C 
HETATM   24  C3  UNL     1       8.330  -1.189  13.857  1.00  0.00     0.042 C 
ENDBRANCH   1  21
TORSDOF 6
ENDMDL
MODEL 5
REMARK VINA RESULT: -6.995120803      2.013      2.405
REMARK  6 active torsions:
REMARK  status: ('A' for Active; 'I' for Inactive)
REMARK    1  A    between atoms: C4_4  and  C5_5 
REMARK    2  A    between atoms: C13_15  and  O3_16 
REMARK    3  A    between atoms: O3_16  and  C14_17 
REMARK    4  A    between atoms: C14_17  and  C15_18 
REMARK    5  A    between atoms: C16_19  and  C17_20 
REMARK    6  A    between atoms: C17_20  and  O4_21 
ROOT
HETATM    1  C5  UNL     1      18.325  -3.736  11.369  1.00  0.00     0.013 C 
HETATM    2  C6  UNL     1      19.224  -4.885  11.614  1.00  0.00     0.038 C 
HETATM    3  C7  UNL     1      18.526  -6.200  11.868  1.00  0.00     0.210 C 
HETATM    4  O1  UNL     1      17.785  -6.013  13.058  1.00  0.00    -0.240 OA
HETATM    5  O2  UNL     1      16.560  -5.834  12.682  1.00  0.00    -0.230 OA
HETATM    6  C8  UNL     1      16.208  -4.466  12.590  1.00  0.00     0.099 C 
HETATM    7  C9  UNL     1      16.556  -3.697  13.804  1.00  0.00     0.041 C 
HETATM    8  C10 UNL     1      15.431  -2.849  14.367  1.00  0.00     0.003 C 
HETATM    9  C11 UNL     1      14.646  -3.696  15.313  1.00  0.00     0.002 C 
HETATM   10  C12 UNL     1      14.339  -5.012  14.706  1.00  0.00     0.032 C 
HETATM   11  C13 UNL     1      13.835  -4.993  13.312  1.00  0.00     0.124 C 
HETATM   12  C18 UNL     1      14.733  -4.464  12.268  1.00  0.00     0.073 C 
HETATM   13  C19 UNL     1      16.884  -3.988  11.324  1.00  0.00     0.050 C 
ENDROOT
BRANCH  11  14
HETATM   14  O3  UNL     1      12.605  -4.388  13.147  1.00  0.00    -0.382 OA
BRANCH  14  15
HETATM   15  C14 UNL     1      12.329  -3.879  11.915  1.00  0.00     0.195 C 
BRANCH  15  16
HETATM   16  C15 UNL     1      12.253  -2.406  12.029  1.00  0.00    -0.003 C 
HETATM   17  C16 UNL     1      12.851  -1.621  11.155  1.00  0.00    -0.003 C 
BRANCH  17  18
HETATM   18  C17 UNL     1      12.810  -0.140  11.218  1.00  0.00     0.191 C 
BRANCH  18  19
HETATM   19  O4  UNL     1      13.237   0.436  10.038  1.00  0.00    -0.397 OA
ATOM     20  H4  UNL     1      12.610   0.308   9.336  1.00  0.00     0.209 HD
ENDBRANCH  18  19
ENDBRANCH  17  18
ENDBRANCH  15  16
ENDBRANCH  14  15
ENDBRANCH  11  14
BRANCH   1  21
HETATM   21  C4  UNL     1      18.687  -3.182  10.006  1.00  0.00    -0.020 C 
HETATM   22  C2  UNL     1      18.954  -1.927   9.773  1.00  0.00    -0.091 C 
HETATM   23  C1  UNL     1      18.942  -0.864  10.817  1.00  0.00     0.042 C 
HETATM   24  C3  UNL     1      19.296  -1.512   8.384  1.00  0.00     0.042 C 
ENDBRANCH   1  21
TORSDOF 6
ENDMDL
