MODEL 1
REMARK VINA RESULT: -8.350142681      0.000      0.000
REMARK  7 active torsions:
REMARK  status: ('A' for Active; 'I' for Inactive)
REMARK    1  A    between atoms: C2_2  and  C3_3 
REMARK    2  A    between atoms: C3_3  and  C4_4 
REMARK    3  A    between atoms: C5_11  and  O1_12 
REMARK    4  A    between atoms: C6_14  and  C7_15 
REMARK    5  A    between atoms: C7_15  and  C8_16 
REMARK    6  A    between atoms: C8_16  and  O2_18 
REMARK    7  A    between atoms: C8_16  and  C10_20 
ROOT
HETATM    1  C7  UNL     1       6.248  -5.254  17.550  1.00  0.00     0.066 C 
ENDROOT
BRANCH   1   2
HETATM    2  C6  UNL     1       7.402  -6.107  17.226  1.00  0.00    -0.017 C 
HETATM    3  C2  UNL     1       8.174  -6.011  16.018  1.00  0.00    -0.063 C 
HETATM    4  C1  UNL     1       9.390  -5.142  15.864  1.00  0.00     0.048 C 
BRANCH   3   5
HETATM    5  C3  UNL     1       7.900  -6.785  14.983  1.00  0.00     0.041 C 
BRANCH   5   6
HETATM    6  C4  UNL     1       6.782  -6.574  14.085  1.00  0.00     0.102 A 
HETATM    7  N1  UNL     1       6.064  -5.481  13.840  1.00  0.00    -0.282 N 
HETATM    8  N2  UNL     1       5.132  -5.734  12.942  1.00  0.00    -0.240 N 
ATOM      9  H1  UNL     1       6.213  -4.575  14.283  1.00  0.00     0.188 HD
HETATM   10  N3  UNL     1       5.208  -7.007  12.566  1.00  0.00    -0.264 N 
ATOM     11  H2  UNL     1       4.456  -5.056  12.589  1.00  0.00     0.208 HD
HETATM   12  C5  UNL     1       6.220  -7.547  13.258  1.00  0.00     0.184 A 
ATOM     13  H3  UNL     1       4.613  -7.479  11.886  1.00  0.00     0.190 HD
BRANCH  12  14
HETATM   14  O1  UNL     1       6.635  -8.871  13.162  1.00  0.00    -0.343 OA
ATOM     15  H1  UNL     1       6.419  -9.567  13.771  1.00  0.00     0.219 HD
ENDBRANCH  12  14
ENDBRANCH   5   6
ENDBRANCH   3   5
ENDBRANCH   1   2
BRANCH   1  16
HETATM   16  C8  UNL     1       4.878  -5.747  17.387  1.00  0.00     0.065 C 
HETATM   17  C9  UNL     1       4.738  -7.231  17.440  1.00  0.00     0.047 C 
BRANCH  16  18
HETATM   18  O2  UNL     1       4.399  -5.374  16.090  1.00  0.00    -0.389 OA
ATOM     19  H2  UNL     1       3.867  -6.080  15.741  1.00  0.00     0.210 HD
ENDBRANCH  16  18
BRANCH  16  20
HETATM   20  C10 UNL     1       3.875  -5.096  18.321  1.00  0.00    -0.008 C 
HETATM   21  C11 UNL     1       2.565  -4.992  17.589  1.00  0.00     0.017 C 
HETATM   22  C12 UNL     1       1.533  -4.160  18.360  1.00  0.00    -0.013 C 
HETATM   23  C13 UNL     1       1.252  -5.012  19.606  1.00  0.00     0.009 C 
HETATM   24  C17 UNL     1       2.130  -2.835  18.691  1.00  0.00     0.009 C 
HETATM   25  C14 UNL     1       2.541  -5.182  20.358  1.00  0.00    -0.013 C 
HETATM   26  C15 UNL     1       2.960  -3.796  20.820  1.00  0.00     0.009 C 
HETATM   27  C19 UNL     1       3.625  -5.880  19.583  1.00  0.00     0.017 C 
HETATM   28  C16 UNL     1       3.319  -3.016  19.571  1.00  0.00    -0.013 C 
HETATM   29  C18 UNL     1       4.399  -3.743  18.794  1.00  0.00     0.017 C 
ENDBRANCH  16  20
ENDBRANCH   1  16
TORSDOF 7
ENDMDL
MODEL 2
REMARK VINA RESULT: -8.183985674      1.902      4.227
REMARK  7 active torsions:
REMARK  status: ('A' for Active; 'I' for Inactive)
REMARK    1  A    between atoms: C2_2  and  C3_3 
REMARK    2  A    between atoms: C3_3  and  C4_4 
REMARK    3  A    between atoms: C5_11  and  O1_12 
REMARK    4  A    between atoms: C6_14  and  C7_15 
REMARK    5  A    between atoms: C7_15  and  C8_16 
REMARK    6  A    between atoms: C8_16  and  O2_18 
REMARK    7  A    between atoms: C8_16  and  C10_20 
ROOT
HETATM    1  C7  UNL     1       4.567  -7.440  17.205  1.00  0.00     0.066 C 
ENDROOT
BRANCH   1   2
HETATM    2  C6  UNL     1       4.561  -8.332  16.035  1.00  0.00    -0.017 C 
HETATM    3  C2  UNL     1       5.728  -8.702  15.284  1.00  0.00    -0.063 C 
HETATM    4  C1  UNL     1       6.577  -9.903  15.587  1.00  0.00     0.048 C 
BRANCH   3   5
HETATM    5  C3  UNL     1       6.063  -8.036  14.193  1.00  0.00     0.041 C 
BRANCH   5   6
HETATM    6  C4  UNL     1       5.366  -8.147  12.928  1.00  0.00     0.102 A 
HETATM    7  N1  UNL     1       4.300  -7.497  12.466  1.00  0.00    -0.282 N 
HETATM    8  N2  UNL     1       3.996  -7.914  11.253  1.00  0.00    -0.240 N 
ATOM      9  H1  UNL     1       3.790  -6.778  12.979  1.00  0.00     0.188 HD
HETATM   10  N3  UNL     1       4.855  -8.855  10.876  1.00  0.00    -0.264 N 
ATOM     11  H2  UNL     1       3.219  -7.567  10.689  1.00  0.00     0.208 HD
HETATM   12  C5  UNL     1       5.712  -9.018  11.893  1.00  0.00     0.184 A 
ATOM     13  H3  UNL     1       4.861  -9.356   9.987  1.00  0.00     0.190 HD
BRANCH  12  14
HETATM   14  O1  UNL     1       6.773  -9.915  11.906  1.00  0.00    -0.343 OA
ATOM     15  H1  UNL     1       6.937 -10.572  12.573  1.00  0.00     0.219 HD
ENDBRANCH  12  14
ENDBRANCH   5   6
ENDBRANCH   3   5
ENDBRANCH   1   2
BRANCH   1  16
HETATM   16  C8  UNL     1       4.597  -5.984  17.042  1.00  0.00     0.065 C 
HETATM   17  C9  UNL     1       3.620  -5.240  17.890  1.00  0.00     0.047 C 
BRANCH  16  18
HETATM   18  O2  UNL     1       4.241  -5.658  15.693  1.00  0.00    -0.389 OA
ATOM     19  H2  UNL     1       4.553  -4.783  15.493  1.00  0.00     0.210 HD
ENDBRANCH  16  18
BRANCH  16  20
HETATM   20  C10 UNL     1       5.980  -5.377  17.185  1.00  0.00    -0.008 C 
HETATM   21  C11 UNL     1       6.924  -6.477  17.589  1.00  0.00     0.017 C 
HETATM   22  C12 UNL     1       8.310  -5.942  17.967  1.00  0.00    -0.013 C 
HETATM   23  C13 UNL     1       8.850  -5.391  16.639  1.00  0.00     0.009 C 
HETATM   24  C17 UNL     1       8.155  -4.888  19.008  1.00  0.00     0.009 C 
HETATM   25  C14 UNL     1       7.919  -4.311  16.168  1.00  0.00    -0.013 C 
HETATM   26  C15 UNL     1       7.986  -3.199  17.201  1.00  0.00     0.009 C 
HETATM   27  C19 UNL     1       6.511  -4.772  15.911  1.00  0.00     0.017 C 
HETATM   28  C16 UNL     1       7.359  -3.750  18.467  1.00  0.00    -0.013 C 
HETATM   29  C18 UNL     1       5.948  -4.226  18.186  1.00  0.00     0.017 C 
ENDBRANCH  16  20
ENDBRANCH   1  16
TORSDOF 7
ENDMDL
MODEL 3
REMARK VINA RESULT: -8.167826380      1.782      4.657
REMARK  7 active torsions:
REMARK  status: ('A' for Active; 'I' for Inactive)
REMARK    1  A    between atoms: C2_2  and  C3_3 
REMARK    2  A    between atoms: C3_3  and  C4_4 
REMARK    3  A    between atoms: C5_11  and  O1_12 
REMARK    4  A    between atoms: C6_14  and  C7_15 
REMARK    5  A    between atoms: C7_15  and  C8_16 
REMARK    6  A    between atoms: C8_16  and  O2_18 
REMARK    7  A    between atoms: C8_16  and  C10_20 
ROOT
HETATM    1  C7  UNL     1       4.026  -7.439  17.078  1.00  0.00     0.066 C 
ENDROOT
BRANCH   1   2
HETATM    2  C6  UNL     1       2.974  -8.058  16.256  1.00  0.00    -0.017 C 
HETATM    3  C2  UNL     1       3.119  -9.293  15.537  1.00  0.00    -0.063 C 
HETATM    4  C1  UNL     1       2.790 -10.643  16.109  1.00  0.00     0.048 C 
BRANCH   3   5
HETATM    5  C3  UNL     1       3.468  -9.291  14.263  1.00  0.00     0.041 C 
BRANCH   5   6
HETATM    6  C4  UNL     1       4.299  -8.274  13.650  1.00  0.00     0.102 A 
HETATM    7  N1  UNL     1       3.974  -7.107  13.100  1.00  0.00    -0.282 N 
HETATM    8  N2  UNL     1       5.052  -6.489  12.659  1.00  0.00    -0.240 N 
ATOM      9  H1  UNL     1       3.024  -6.741  13.030  1.00  0.00     0.188 HD
HETATM   10  N3  UNL     1       6.125  -7.233  12.906  1.00  0.00    -0.264 N 
ATOM     11  H2  UNL     1       5.061  -5.578  12.199  1.00  0.00     0.208 HD
HETATM   12  C5  UNL     1       5.687  -8.341  13.518  1.00  0.00     0.184 A 
ATOM     13  H3  UNL     1       7.092  -7.005  12.675  1.00  0.00     0.190 HD
BRANCH  12  14
HETATM   14  O1  UNL     1       6.494  -9.388  13.948  1.00  0.00    -0.343 OA
ATOM     15  H1  UNL     1       6.465 -10.281  13.626  1.00  0.00     0.219 HD
ENDBRANCH  12  14
ENDBRANCH   5   6
ENDBRANCH   3   5
ENDBRANCH   1   2
BRANCH   1  16
HETATM   16  C8  UNL     1       4.386  -6.029  16.905  1.00  0.00     0.065 C 
HETATM   17  C9  UNL     1       3.676  -5.088  17.818  1.00  0.00     0.047 C 
BRANCH  16  18
HETATM   18  O2  UNL     1       4.019  -5.613  15.583  1.00  0.00    -0.389 OA
ATOM     19  H2  UNL     1       4.368  -4.743  15.425  1.00  0.00     0.210 HD
ENDBRANCH  16  18
BRANCH  16  20
HETATM   20  C10 UNL     1       5.879  -5.767  16.943  1.00  0.00    -0.008 C 
HETATM   21  C11 UNL     1       6.206  -5.166  18.284  1.00  0.00     0.017 C 
HETATM   22  C12 UNL     1       7.653  -4.666  18.358  1.00  0.00    -0.013 C 
HETATM   23  C13 UNL     1       8.478  -5.957  18.264  1.00  0.00     0.009 C 
HETATM   24  C17 UNL     1       7.903  -3.738  17.220  1.00  0.00     0.009 C 
HETATM   25  C14 UNL     1       8.160  -6.622  16.955  1.00  0.00    -0.013 C 
HETATM   26  C15 UNL     1       8.635  -5.679  15.862  1.00  0.00     0.009 C 
HETATM   27  C19 UNL     1       6.717  -7.011  16.791  1.00  0.00     0.017 C 
HETATM   28  C16 UNL     1       7.737  -4.459  15.926  1.00  0.00    -0.013 C 
HETATM   29  C18 UNL     1       6.286  -4.871  15.777  1.00  0.00     0.017 C 
ENDBRANCH  16  20
ENDBRANCH   1  16
TORSDOF 7
ENDMDL
MODEL 4
REMARK VINA RESULT: -8.149163137      1.947      4.183
REMARK  7 active torsions:
REMARK  status: ('A' for Active; 'I' for Inactive)
REMARK    1  A    between atoms: C2_2  and  C3_3 
REMARK    2  A    between atoms: C3_3  and  C4_4 
REMARK    3  A    between atoms: C5_11  and  O1_12 
REMARK    4  A    between atoms: C6_14  and  C7_15 
REMARK    5  A    between atoms: C7_15  and  C8_16 
REMARK    6  A    between atoms: C8_16  and  O2_18 
REMARK    7  A    between atoms: C8_16  and  C10_20 
ROOT
HETATM    1  C7  UNL     1       4.480  -7.402  17.159  1.00  0.00     0.066 C 
ENDROOT
BRANCH   1   2
HETATM    2  C6  UNL     1       4.484  -8.307  15.999  1.00  0.00    -0.017 C 
HETATM    3  C2  UNL     1       5.660  -8.697  15.271  1.00  0.00    -0.063 C 
HETATM    4  C1  UNL     1       6.492  -9.902  15.602  1.00  0.00     0.048 C 
BRANCH   3   5
HETATM    5  C3  UNL     1       6.019  -8.046  14.179  1.00  0.00     0.041 C 
BRANCH   5   6
HETATM    6  C4  UNL     1       5.346  -8.169  12.902  1.00  0.00     0.102 A 
HETATM    7  N1  UNL     1       4.281  -7.534  12.420  1.00  0.00    -0.282 N 
HETATM    8  N2  UNL     1       4.003  -7.958  11.202  1.00  0.00    -0.240 N 
ATOM      9  H1  UNL     1       3.753  -6.819  12.921  1.00  0.00     0.188 HD
HETATM   10  N3  UNL     1       4.880  -8.890  10.843  1.00  0.00    -0.264 N 
ATOM     11  H2  UNL     1       3.232  -7.622  10.624  1.00  0.00     0.208 HD
HETATM   12  C5  UNL     1       5.720  -9.039  11.876  1.00  0.00     0.184 A 
ATOM     13  H3  UNL     1       4.907  -9.393   9.957  1.00  0.00     0.190 HD
BRANCH  12  14
HETATM   14  O1  UNL     1       6.792  -9.924  11.911  1.00  0.00    -0.343 OA
ATOM     15  H1  UNL     1       6.832 -10.729  12.413  1.00  0.00     0.219 HD
ENDBRANCH  12  14
ENDBRANCH   5   6
ENDBRANCH   3   5
ENDBRANCH   1   2
BRANCH   1  16
HETATM   16  C8  UNL     1       4.651  -5.956  16.987  1.00  0.00     0.065 C 
HETATM   17  C9  UNL     1       3.704  -5.118  17.777  1.00  0.00     0.047 C 
BRANCH  16  18
HETATM   18  O2  UNL     1       4.397  -5.616  15.619  1.00  0.00    -0.389 OA
ATOM     19  H2  UNL     1       4.392  -4.670  15.531  1.00  0.00     0.210 HD
ENDBRANCH  16  18
BRANCH  16  20
HETATM   20  C10 UNL     1       6.075  -5.477  17.200  1.00  0.00    -0.008 C 
HETATM   21  C11 UNL     1       6.071  -4.534  18.373  1.00  0.00     0.017 C 
HETATM   22  C12 UNL     1       7.419  -3.823  18.550  1.00  0.00    -0.013 C 
HETATM   23  C13 UNL     1       8.372  -4.965  18.931  1.00  0.00     0.009 C 
HETATM   24  C17 UNL     1       7.791  -3.166  17.266  1.00  0.00     0.009 C 
HETATM   25  C14 UNL     1       8.383  -5.961  17.807  1.00  0.00    -0.013 C 
HETATM   26  C15 UNL     1       8.965  -5.245  16.599  1.00  0.00     0.009 C 
HETATM   27  C19 UNL     1       7.046  -6.584  17.516  1.00  0.00     0.017 C 
HETATM   28  C16 UNL     1       7.954  -4.190  16.195  1.00  0.00    -0.013 C 
HETATM   29  C18 UNL     1       6.609  -4.834  15.923  1.00  0.00     0.017 C 
ENDBRANCH  16  20
ENDBRANCH   1  16
TORSDOF 7
ENDMDL
MODEL 5
REMARK VINA RESULT: -8.134548040      1.737      2.937
REMARK  7 active torsions:
REMARK  status: ('A' for Active; 'I' for Inactive)
REMARK    1  A    between atoms: C2_2  and  C3_3 
REMARK    2  A    between atoms: C3_3  and  C4_4 
REMARK    3  A    between atoms: C5_11  and  O1_12 
REMARK    4  A    between atoms: C6_14  and  C7_15 
REMARK    5  A    between atoms: C7_15  and  C8_16 
REMARK    6  A    between atoms: C8_16  and  O2_18 
REMARK    7  A    between atoms: C8_16  and  C10_20 
ROOT
HETATM    1  C7  UNL     1       5.026  -3.848  19.162  1.00  0.00     0.066 C 
ENDROOT
BRANCH   1   2
HETATM    2  C6  UNL     1       6.183  -4.662  18.757  1.00  0.00    -0.017 C 
HETATM    3  C2  UNL     1       6.643  -4.810  17.404  1.00  0.00    -0.063 C 
HETATM    4  C1  UNL     1       7.662  -3.914  16.760  1.00  0.00     0.048 C 
BRANCH   3   5
HETATM    5  C3  UNL     1       6.252  -5.837  16.671  1.00  0.00     0.041 C 
BRANCH   5   6
HETATM    6  C4  UNL     1       5.886  -5.743  15.272  1.00  0.00     0.102 A 
HETATM    7  N1  UNL     1       4.883  -5.099  14.681  1.00  0.00    -0.282 N 
HETATM    8  N2  UNL     1       4.923  -5.283  13.376  1.00  0.00    -0.240 N 
ATOM      9  H1  UNL     1       4.182  -4.541  15.169  1.00  0.00     0.188 HD
HETATM   10  N3  UNL     1       5.957  -6.057  13.065  1.00  0.00    -0.264 N 
ATOM     11  H2  UNL     1       4.260  -4.890  12.706  1.00  0.00     0.208 HD
HETATM   12  C5  UNL     1       6.569  -6.355  14.220  1.00  0.00     0.184 A 
ATOM     13  H3  UNL     1       6.232  -6.364  12.132  1.00  0.00     0.190 HD
BRANCH  12  14
HETATM   14  O1  UNL     1       7.703  -7.150  14.340  1.00  0.00    -0.343 OA
ATOM     15  H1  UNL     1       7.724  -8.099  14.293  1.00  0.00     0.219 HD
ENDBRANCH  12  14
ENDBRANCH   5   6
ENDBRANCH   3   5
ENDBRANCH   1   2
BRANCH   1  16
HETATM   16  C8  UNL     1       3.941  -4.426  19.961  1.00  0.00     0.065 C 
HETATM   17  C9  UNL     1       3.194  -3.446  20.801  1.00  0.00     0.047 C 
BRANCH  16  18
HETATM   18  O2  UNL     1       4.495  -5.366  20.889  1.00  0.00    -0.389 OA
ATOM     19  H2  UNL     1       4.084  -6.212  20.755  1.00  0.00     0.210 HD
ENDBRANCH  16  18
BRANCH  16  20
HETATM   20  C10 UNL     1       2.970  -5.271  19.158  1.00  0.00    -0.008 C 
HETATM   21  C11 UNL     1       3.447  -6.697  19.214  1.00  0.00     0.017 C 
HETATM   22  C12 UNL     1       2.661  -7.610  18.265  1.00  0.00    -0.013 C 
HETATM   23  C13 UNL     1       1.250  -7.614  18.869  1.00  0.00     0.009 C 
HETATM   24  C17 UNL     1       2.700  -7.029  16.894  1.00  0.00     0.009 C 
HETATM   25  C14 UNL     1       0.738  -6.202  18.874  1.00  0.00    -0.013 C 
HETATM   26  C15 UNL     1       0.626  -5.776  17.420  1.00  0.00     0.009 C 
HETATM   27  C19 UNL     1       1.561  -5.246  19.692  1.00  0.00     0.017 C 
HETATM   28  C16 UNL     1       2.043  -5.691  16.887  1.00  0.00    -0.013 C 
HETATM   29  C18 UNL     1       2.863  -4.737  17.733  1.00  0.00     0.017 C 
ENDBRANCH  16  20
ENDBRANCH   1  16
TORSDOF 7
ENDMDL
