MODEL 1
REMARK VINA RESULT: -7.718291447      0.000      0.000
REMARK  5 active torsions:
REMARK  status: ('A' for Active; 'I' for Inactive)
REMARK    1  A    between atoms: N1_1  and  C1_5 
REMARK    2  A    between atoms: C1_5  and  C2_6 
REMARK    3  A    between atoms: C1_5  and  C17_24 
REMARK    4  A    between atoms: C2_6  and  C3_7 
REMARK    5  A    between atoms: C11_15  and  N2_16 
ROOT
HETATM    1  C3  UNL     1       3.138  -5.493  20.004  1.00  0.00    -0.012 C 
HETATM    2  C4  UNL     1       3.699  -6.602  19.248  1.00  0.00     0.005 C 
HETATM    3  C5  UNL     1       3.002  -7.885  19.118  1.00  0.00     0.000 C 
HETATM    4  C6  UNL     1       2.825  -8.310  17.649  1.00  0.00     0.000 C 
HETATM    5  C7  UNL     1       4.141  -8.773  17.069  1.00  0.00     0.000 C 
HETATM    6  C8  UNL     1       4.473  -7.948  15.869  1.00  0.00     0.000 C 
HETATM    7  C9  UNL     1       5.953  -7.813  15.610  1.00  0.00     0.002 C 
HETATM    8  C10 UNL     1       6.663  -6.958  16.614  1.00  0.00     0.032 C 
HETATM    9  C11 UNL     1       6.548  -5.491  16.277  1.00  0.00     0.155 C 
HETATM   10  C12 UNL     1       7.370  -4.607  17.145  1.00  0.00     0.032 C 
HETATM   11  C13 UNL     1       7.112  -4.692  18.607  1.00  0.00     0.002 C 
HETATM   12  C14 UNL     1       6.266  -3.567  19.158  1.00  0.00     0.000 C 
HETATM   13  C15 UNL     1       4.806  -3.843  19.204  1.00  0.00     0.000 C 
HETATM   14  C16 UNL     1       4.326  -4.591  20.407  1.00  0.00     0.005 C 
ENDROOT
BRANCH   1  15
HETATM   15  C2  UNL     1       2.143  -4.594  19.416  1.00  0.00     0.048 C 
BRANCH  15  16
HETATM   16  C1  UNL     1       0.707  -4.790  19.752  1.00  0.00     0.283 C 
BRANCH  16  17
HETATM   17  N1  UNL     1       0.036  -3.630  20.274  1.00  0.00    -0.065 N 
ATOM     18  H13 UNL     1       0.436  -3.370  21.176  1.00  0.00     0.275 HD
ATOM     19  H12 UNL     1       0.283  -2.806  19.725  1.00  0.00     0.275 HD
ATOM     20  H11 UNL     1      -0.977  -3.711  20.350  1.00  0.00     0.275 HD
ENDBRANCH  16  17
BRANCH  16  21
HETATM   21  C17 UNL     1       0.004  -5.130  18.460  1.00  0.00     0.204 C 
HETATM   22  O3  UNL     1      -1.017  -5.842  18.406  1.00  0.00    -0.646 OA
HETATM   23  O4  UNL     1       0.505  -4.633  17.258  1.00  0.00    -0.646 OA
ENDBRANCH  16  21
ENDBRANCH  15  16
ENDBRANCH   1  15
BRANCH   9  24
HETATM   24  N2  UNL     1       7.039  -5.343  14.913  1.00  0.00    -0.151 N 
HETATM   25  O1  UNL     1       8.241  -5.206  14.633  1.00  0.00    -0.536 OA
HETATM   26  O2  UNL     1       6.133  -5.355  13.885  1.00  0.00    -0.536 OA
ENDBRANCH   9  24
TORSDOF 5
ENDMDL
MODEL 2
REMARK VINA RESULT: -7.717967363      1.113      1.410
REMARK  5 active torsions:
REMARK  status: ('A' for Active; 'I' for Inactive)
REMARK    1  A    between atoms: N1_1  and  C1_5 
REMARK    2  A    between atoms: C1_5  and  C2_6 
REMARK    3  A    between atoms: C1_5  and  C17_24 
REMARK    4  A    between atoms: C2_6  and  C3_7 
REMARK    5  A    between atoms: C11_15  and  N2_16 
ROOT
HETATM    1  C3  UNL     1       3.179  -5.925  19.360  1.00  0.00    -0.012 C 
HETATM    2  C4  UNL     1       3.894  -6.980  18.659  1.00  0.00     0.005 C 
HETATM    3  C5  UNL     1       3.274  -8.274  18.361  1.00  0.00     0.000 C 
HETATM    4  C6  UNL     1       3.352  -8.632  16.866  1.00  0.00     0.000 C 
HETATM    5  C7  UNL     1       4.761  -9.029  16.491  1.00  0.00     0.000 C 
HETATM    6  C8  UNL     1       5.254  -8.138  15.397  1.00  0.00     0.000 C 
HETATM    7  C9  UNL     1       6.751  -7.950  15.391  1.00  0.00     0.002 C 
HETATM    8  C10 UNL     1       7.257  -7.125  16.534  1.00  0.00     0.032 C 
HETATM    9  C11 UNL     1       7.147  -5.647  16.246  1.00  0.00     0.155 C 
HETATM   10  C12 UNL     1       7.785  -4.784  17.274  1.00  0.00     0.032 C 
HETATM   11  C13 UNL     1       7.297  -4.947  18.670  1.00  0.00     0.002 C 
HETATM   12  C14 UNL     1       6.333  -3.873  19.123  1.00  0.00     0.000 C 
HETATM   13  C15 UNL     1       4.896  -4.192  18.917  1.00  0.00     0.000 C 
HETATM   14  C16 UNL     1       4.253  -5.011  19.991  1.00  0.00     0.005 C 
ENDROOT
BRANCH   1  15
HETATM   15  C2  UNL     1       2.262  -5.026  18.656  1.00  0.00     0.048 C 
BRANCH  15  16
HETATM   16  C1  UNL     1       1.620  -3.916  19.411  1.00  0.00     0.283 C 
BRANCH  16  17
HETATM   17  N1  UNL     1       1.475  -2.684  18.684  1.00  0.00    -0.065 N 
ATOM     18  H13 UNL     1       2.172  -2.008  18.998  1.00  0.00     0.275 HD
ATOM     19  H12 UNL     1       1.772  -2.811  17.717  1.00  0.00     0.275 HD
ATOM     20  H11 UNL     1       0.545  -2.268  18.714  1.00  0.00     0.275 HD
ENDBRANCH  16  17
BRANCH  16  21
HETATM   21  C17 UNL     1       0.218  -4.372  19.739  1.00  0.00     0.204 C 
HETATM   22  O3  UNL     1      -0.391  -5.234  19.078  1.00  0.00    -0.646 OA
HETATM   23  O4  UNL     1      -0.444  -3.812  20.830  1.00  0.00    -0.646 OA
ENDBRANCH  16  21
ENDBRANCH  15  16
ENDBRANCH   1  15
BRANCH   9  24
HETATM   24  N2  UNL     1       7.847  -5.419  14.989  1.00  0.00    -0.151 N 
HETATM   25  O1  UNL     1       7.264  -5.191  13.916  1.00  0.00    -0.536 OA
HETATM   26  O2  UNL     1       9.217  -5.457  14.984  1.00  0.00    -0.536 OA
ENDBRANCH   9  24
TORSDOF 5
ENDMDL
MODEL 3
REMARK VINA RESULT: -7.701742664      1.259      1.563
REMARK  5 active torsions:
REMARK  status: ('A' for Active; 'I' for Inactive)
REMARK    1  A    between atoms: N1_1  and  C1_5 
REMARK    2  A    between atoms: C1_5  and  C2_6 
REMARK    3  A    between atoms: C1_5  and  C17_24 
REMARK    4  A    between atoms: C2_6  and  C3_7 
REMARK    5  A    between atoms: C11_15  and  N2_16 
ROOT
HETATM    1  C3  UNL     1       3.199  -4.997  19.601  1.00  0.00    -0.012 C 
HETATM    2  C4  UNL     1       3.781  -6.158  18.946  1.00  0.00     0.005 C 
HETATM    3  C5  UNL     1       3.017  -7.386  18.716  1.00  0.00     0.000 C 
HETATM    4  C6  UNL     1       3.035  -7.821  17.240  1.00  0.00     0.000 C 
HETATM    5  C7  UNL     1       4.385  -8.391  16.873  1.00  0.00     0.000 C 
HETATM    6  C8  UNL     1       4.959  -7.613  15.734  1.00  0.00     0.000 C 
HETATM    7  C9  UNL     1       6.468  -7.595  15.706  1.00  0.00     0.002 C 
HETATM    8  C10 UNL     1       7.079  -6.779  16.804  1.00  0.00     0.032 C 
HETATM    9  C11 UNL     1       7.130  -5.313  16.446  1.00  0.00     0.155 C 
HETATM   10  C12 UNL     1       7.875  -4.480  17.426  1.00  0.00     0.032 C 
HETATM   11  C13 UNL     1       7.390  -4.521  18.832  1.00  0.00     0.002 C 
HETATM   12  C14 UNL     1       6.558  -3.326  19.240  1.00  0.00     0.000 C 
HETATM   13  C15 UNL     1       5.092  -3.491  19.061  1.00  0.00     0.000 C 
HETATM   14  C16 UNL     1       4.376  -4.181  20.179  1.00  0.00     0.005 C 
ENDROOT
BRANCH   1  15
HETATM   15  C2  UNL     1       2.378  -4.035  18.863  1.00  0.00     0.048 C 
BRANCH  15  16
HETATM   16  C1  UNL     1       0.903  -4.228  18.821  1.00  0.00     0.283 C 
BRANCH  16  17
HETATM   17  N1  UNL     1       0.441  -5.215  17.883  1.00  0.00    -0.065 N 
ATOM     18  H13 UNL     1      -0.293  -4.823  17.293  1.00  0.00     0.275 HD
ATOM     19  H12 UNL     1       1.158  -5.393  17.180  1.00  0.00     0.275 HD
ATOM     20  H11 UNL     1       0.128  -6.094  18.295  1.00  0.00     0.275 HD
ENDBRANCH  16  17
BRANCH  16  21
HETATM   21  C17 UNL     1       0.494  -4.729  20.185  1.00  0.00     0.204 C 
HETATM   22  O3  UNL     1       0.539  -4.025  21.212  1.00  0.00    -0.646 OA
HETATM   23  O4  UNL     1       0.041  -6.039  20.325  1.00  0.00    -0.646 OA
ENDBRANCH  16  21
ENDBRANCH  15  16
ENDBRANCH   1  15
BRANCH   9  24
HETATM   24  N2  UNL     1       7.835  -5.225  15.173  1.00  0.00    -0.151 N 
HETATM   25  O1  UNL     1       7.255  -5.109  14.081  1.00  0.00    -0.536 OA
HETATM   26  O2  UNL     1       9.205  -5.272  15.177  1.00  0.00    -0.536 OA
ENDBRANCH   9  24
TORSDOF 5
ENDMDL
MODEL 4
REMARK VINA RESULT: -7.585171011      1.834      7.079
REMARK  5 active torsions:
REMARK  status: ('A' for Active; 'I' for Inactive)
REMARK    1  A    between atoms: N1_1  and  C1_5 
REMARK    2  A    between atoms: C1_5  and  C2_6 
REMARK    3  A    between atoms: C1_5  and  C17_24 
REMARK    4  A    between atoms: C2_6  and  C3_7 
REMARK    5  A    between atoms: C11_15  and  N2_16 
ROOT
HETATM    1  C3  UNL     1       5.089  -6.524  16.747  1.00  0.00    -0.012 C 
HETATM    2  C4  UNL     1       4.396  -6.128  17.963  1.00  0.00     0.005 C 
HETATM    3  C5  UNL     1       4.939  -5.115  18.873  1.00  0.00     0.000 C 
HETATM    4  C6  UNL     1       3.938  -3.979  19.150  1.00  0.00     0.000 C 
HETATM    5  C7  UNL     1       2.836  -4.457  20.068  1.00  0.00     0.000 C 
HETATM    6  C8  UNL     1       1.515  -4.266  19.398  1.00  0.00     0.000 C 
HETATM    7  C9  UNL     1       0.460  -5.251  19.838  1.00  0.00     0.002 C 
HETATM    8  C10 UNL     1       0.703  -6.648  19.355  1.00  0.00     0.032 C 
HETATM    9  C11 UNL     1       0.194  -6.847  17.948  1.00  0.00     0.155 C 
HETATM   10  C12 UNL     1       0.259  -8.256  17.478  1.00  0.00     0.032 C 
HETATM   11  C13 UNL     1       1.600  -8.899  17.502  1.00  0.00     0.002 C 
HETATM   12  C14 UNL     1       2.283  -8.969  16.154  1.00  0.00     0.000 C 
HETATM   13  C15 UNL     1       3.183  -7.828  15.846  1.00  0.00     0.000 C 
HETATM   14  C16 UNL     1       4.574  -7.935  16.387  1.00  0.00     0.005 C 
ENDROOT
BRANCH   1  15
HETATM   15  C2  UNL     1       4.981  -5.739  15.516  1.00  0.00     0.048 C 
BRANCH  15  16
HETATM   16  C1  UNL     1       5.626  -6.250  14.276  1.00  0.00     0.283 C 
BRANCH  16  17
HETATM   17  N1  UNL     1       5.281  -5.546  13.071  1.00  0.00    -0.065 N 
ATOM     18  H13 UNL     1       5.786  -4.661  13.025  1.00  0.00     0.275 HD
ATOM     19  H12 UNL     1       5.678  -6.022  12.261  1.00  0.00     0.275 HD
ATOM     20  H11 UNL     1       4.283  -5.388  12.931  1.00  0.00     0.275 HD
ENDBRANCH  16  17
BRANCH  16  21
HETATM   21  C17 UNL     1       7.113  -6.063  14.455  1.00  0.00     0.204 C 
HETATM   22  O3  UNL     1       7.648  -4.947  14.599  1.00  0.00    -0.646 OA
HETATM   23  O4  UNL     1       7.947  -7.179  14.462  1.00  0.00    -0.646 OA
ENDBRANCH  16  21
ENDBRANCH  15  16
ENDBRANCH   1  15
BRANCH   9  24
HETATM   24  N2  UNL     1      -1.210  -6.455  17.959  1.00  0.00    -0.151 N 
HETATM   25  O1  UNL     1      -1.677  -5.579  17.214  1.00  0.00    -0.536 OA
HETATM   26  O2  UNL     1      -2.060  -7.083  18.832  1.00  0.00    -0.536 OA
ENDBRANCH   9  24
TORSDOF 5
ENDMDL
MODEL 5
REMARK VINA RESULT: -7.550932477      1.577      6.846
REMARK  5 active torsions:
REMARK  status: ('A' for Active; 'I' for Inactive)
REMARK    1  A    between atoms: N1_1  and  C1_5 
REMARK    2  A    between atoms: C1_5  and  C2_6 
REMARK    3  A    between atoms: C1_5  and  C17_24 
REMARK    4  A    between atoms: C2_6  and  C3_7 
REMARK    5  A    between atoms: C11_15  and  N2_16 
ROOT
HETATM    1  C3  UNL     1       5.397  -7.164  16.223  1.00  0.00    -0.012 C 
HETATM    2  C4  UNL     1       5.551  -6.426  17.466  1.00  0.00     0.005 C 
HETATM    3  C5  UNL     1       6.793  -5.728  17.808  1.00  0.00     0.000 C 
HETATM    4  C6  UNL     1       6.559  -4.245  18.148  1.00  0.00     0.000 C 
HETATM    5  C7  UNL     1       5.910  -4.111  19.506  1.00  0.00     0.000 C 
HETATM    6  C8  UNL     1       4.620  -3.370  19.370  1.00  0.00     0.000 C 
HETATM    7  C9  UNL     1       3.595  -3.733  20.415  1.00  0.00     0.002 C 
HETATM    8  C10 UNL     1       3.028  -5.109  20.249  1.00  0.00     0.032 C 
HETATM    9  C11 UNL     1       1.900  -5.130  19.246  1.00  0.00     0.155 C 
HETATM   10  C12 UNL     1       1.192  -6.434  19.163  1.00  0.00     0.032 C 
HETATM   11  C13 UNL     1       2.027  -7.620  18.835  1.00  0.00     0.002 C 
HETATM   12  C14 UNL     1       1.931  -8.072  17.395  1.00  0.00     0.000 C 
HETATM   13  C15 UNL     1       2.954  -7.492  16.485  1.00  0.00     0.000 C 
HETATM   14  C16 UNL     1       4.273  -8.198  16.460  1.00  0.00     0.005 C 
ENDROOT
BRANCH   1  15
HETATM   15  C2  UNL     1       5.052  -6.488  14.971  1.00  0.00     0.048 C 
BRANCH  15  16
HETATM   16  C1  UNL     1       5.972  -6.610  13.808  1.00  0.00     0.283 C 
BRANCH  16  17
HETATM   17  N1  UNL     1       5.735  -5.677  12.740  1.00  0.00    -0.065 N 
ATOM     18  H13 UNL     1       5.361  -4.804  13.112  1.00  0.00     0.275 HD
ATOM     19  H12 UNL     1       6.622  -5.345  12.362  1.00  0.00     0.275 HD
ATOM     20  H11 UNL     1       5.139  -6.021  11.987  1.00  0.00     0.275 HD
ENDBRANCH  16  17
BRANCH  16  21
HETATM   21  C17 UNL     1       7.359  -6.309  14.322  1.00  0.00     0.204 C 
HETATM   22  O3  UNL     1       8.214  -7.191  14.535  1.00  0.00    -0.646 OA
HETATM   23  O4  UNL     1       7.722  -4.988  14.577  1.00  0.00    -0.646 OA
ENDBRANCH  16  21
ENDBRANCH  15  16
ENDBRANCH   1  15
BRANCH   9  24
HETATM   24  N2  UNL     1       0.933  -4.135  19.694  1.00  0.00    -0.151 N 
HETATM   25  O1  UNL     1       0.637  -3.128  19.030  1.00  0.00    -0.536 OA
HETATM   26  O2  UNL     1       0.318  -4.317  20.905  1.00  0.00    -0.536 OA
ENDBRANCH   9  24
TORSDOF 5
ENDMDL
