MODEL 1
REMARK VINA RESULT: -8.118347606      0.000      0.000
REMARK  6 active torsions:
REMARK  status: ('A' for Active; 'I' for Inactive)
REMARK    1  A    between atoms: C2_2  and  C3_3 
REMARK    2  A    between atoms: C4_4  and  C5_5 
REMARK    3  A    between atoms: C5_5  and  C6_6 
REMARK    4  A    between atoms: C10_13  and  O1_14 
REMARK    5  A    between atoms: N2_16  and  C11_17 
REMARK    6  A    between atoms: C16_22  and  O2_23 
ROOT
HETATM    1  C6  UNL     1       7.716  -4.685  16.120  1.00  0.00     0.199 C 
HETATM    2  N1  UNL     1       8.047  -5.736  17.062  1.00  0.00    -0.061 N 
ATOM      3  H11 UNL     1       8.513  -5.401  17.905  1.00  0.00     0.278 HD
ATOM      4  H12 UNL     1       8.799  -6.349  16.746  1.00  0.00     0.278 HD
HETATM    5  C7  UNL     1       6.804  -6.424  17.318  1.00  0.00     0.232 C 
HETATM    6  C8  UNL     1       6.240  -6.983  16.037  1.00  0.00     0.035 A 
HETATM    7  C9  UNL     1       5.876  -5.918  15.245  1.00  0.00     0.013 A 
HETATM    8  C10 UNL     1       5.355  -6.409  14.073  1.00  0.00     0.152 A 
HETATM    9  N2  UNL     1       5.396  -7.751  14.130  1.00  0.00    -0.303 N 
HETATM   10  C16 UNL     1       5.928  -8.110  15.312  1.00  0.00     0.153 A 
HETATM   11  C17 UNL     1       6.224  -4.685  16.045  1.00  0.00     0.065 C 
HETATM   12  C18 UNL     1       5.858  -5.211  17.440  1.00  0.00    -0.005 C 
HETATM   13  C19 UNL     1       6.216  -4.297  18.546  1.00  0.00     0.018 C 
HETATM   14  C20 UNL     1       4.441  -5.688  17.500  1.00  0.00     0.018 C 
ENDROOT
BRANCH   1  15
HETATM   15  C5  UNL     1       8.362  -3.380  16.411  1.00  0.00     0.060 C 
BRANCH  15  16
HETATM   16  C4  UNL     1       9.736  -3.306  15.845  1.00  0.00    -0.029 C 
HETATM   17  C3  UNL     1      10.382  -2.173  15.628  1.00  0.00    -0.031 C 
BRANCH  17  18
HETATM   18  C2  UNL     1      11.751  -2.191  15.059  1.00  0.00     0.022 C 
HETATM   19  C1  UNL     1      12.268  -3.609  14.937  1.00  0.00     0.009 C 
ENDBRANCH  17  18
ENDBRANCH  15  16
ENDBRANCH   1  15
BRANCH   8  20
HETATM   20  O1  UNL     1       4.874  -5.641  13.012  1.00  0.00    -0.345 OA
ATOM     21  H1  UNL     1       4.051  -5.779  12.558  1.00  0.00     0.219 HD
ENDBRANCH   8  20
BRANCH  10  22
HETATM   22  O2  UNL     1       6.143  -9.430  15.762  1.00  0.00    -0.345 OA
ATOM     23  H2  UNL     1       5.452 -10.023  16.033  1.00  0.00     0.219 HD
ENDBRANCH  10  22
BRANCH   9  24
HETATM   24  C11 UNL     1       4.968  -8.711  13.151  1.00  0.00     0.094 C 
HETATM   25  C12 UNL     1       5.869  -8.837  11.973  1.00  0.00     0.026 C 
HETATM   26  C13 UNL     1       5.026  -9.594  10.971  1.00  0.00     0.002 C 
HETATM   27  C14 UNL     1       3.589  -9.469  11.430  1.00  0.00     0.002 C 
HETATM   28  C15 UNL     1       3.636  -8.406  12.540  1.00  0.00     0.026 C 
ENDBRANCH   9  24
TORSDOF 6
ENDMDL
MODEL 2
REMARK VINA RESULT: -7.818010795      2.632      4.576
REMARK  6 active torsions:
REMARK  status: ('A' for Active; 'I' for Inactive)
REMARK    1  A    between atoms: C2_2  and  C3_3 
REMARK    2  A    between atoms: C4_4  and  C5_5 
REMARK    3  A    between atoms: C5_5  and  C6_6 
REMARK    4  A    between atoms: C10_13  and  O1_14 
REMARK    5  A    between atoms: N2_16  and  C11_17 
REMARK    6  A    between atoms: C16_22  and  O2_23 
ROOT
HETATM    1  C6  UNL     1       4.175  -6.596  17.368  1.00  0.00     0.199 C 
HETATM    2  N1  UNL     1       4.404  -5.261  16.854  1.00  0.00    -0.061 N 
ATOM      3  H11 UNL     1       4.535  -4.557  17.580  1.00  0.00     0.278 HD
ATOM      4  H12 UNL     1       3.580  -4.838  16.426  1.00  0.00     0.278 HD
HETATM    5  C7  UNL     1       5.527  -5.385  15.955  1.00  0.00     0.232 C 
HETATM    6  C8  UNL     1       5.209  -6.359  14.850  1.00  0.00     0.035 A 
HETATM    7  C9  UNL     1       5.094  -7.608  15.417  1.00  0.00     0.013 A 
HETATM    8  C10 UNL     1       4.807  -8.510  14.422  1.00  0.00     0.152 A 
HETATM    9  N2  UNL     1       4.741  -7.840  13.259  1.00  0.00    -0.303 N 
HETATM   10  C16 UNL     1       4.983  -6.540  13.504  1.00  0.00     0.153 A 
HETATM   11  C17 UNL     1       5.340  -7.401  16.893  1.00  0.00     0.065 C 
HETATM   12  C18 UNL     1       6.425  -6.320  16.792  1.00  0.00    -0.005 C 
HETATM   13  C19 UNL     1       6.826  -5.740  18.091  1.00  0.00     0.018 C 
HETATM   14  C20 UNL     1       7.585  -6.772  15.962  1.00  0.00     0.018 C 
ENDROOT
BRANCH   1  15
HETATM   15  C5  UNL     1       3.885  -6.648  18.823  1.00  0.00     0.060 C 
BRANCH  15  16
HETATM   16  C4  UNL     1       3.558  -5.304  19.370  1.00  0.00    -0.029 C 
HETATM   17  C3  UNL     1       4.091  -4.809  20.474  1.00  0.00    -0.031 C 
BRANCH  17  18
HETATM   18  C2  UNL     1       3.708  -3.458  20.948  1.00  0.00     0.022 C 
HETATM   19  C1  UNL     1       4.451  -2.384  20.181  1.00  0.00     0.009 C 
ENDBRANCH  17  18
ENDBRANCH  15  16
ENDBRANCH   1  15
BRANCH   8  20
HETATM   20  O1  UNL     1       4.616  -9.881  14.598  1.00  0.00    -0.345 OA
ATOM     21  H1  UNL     1       4.337 -10.491  13.926  1.00  0.00     0.219 HD
ENDBRANCH   8  20
BRANCH  10  22
HETATM   22  O2  UNL     1       5.006  -5.503  12.547  1.00  0.00    -0.345 OA
ATOM     23  H2  UNL     1       4.364  -5.399  11.855  1.00  0.00     0.219 HD
ENDBRANCH  10  22
BRANCH   9  24
HETATM   24  C11 UNL     1       4.470  -8.341  11.941  1.00  0.00     0.094 C 
HETATM   25  C12 UNL     1       3.164  -9.045  11.804  1.00  0.00     0.026 C 
HETATM   26  C13 UNL     1       3.298  -9.769  10.483  1.00  0.00     0.002 C 
HETATM   27  C14 UNL     1       4.777  -9.816  10.161  1.00  0.00     0.002 C 
HETATM   28  C15 UNL     1       5.463  -9.351  11.456  1.00  0.00     0.026 C 
ENDBRANCH   9  24
TORSDOF 6
ENDMDL
MODEL 3
REMARK VINA RESULT: -7.724902157      2.688      4.419
REMARK  6 active torsions:
REMARK  status: ('A' for Active; 'I' for Inactive)
REMARK    1  A    between atoms: C2_2  and  C3_3 
REMARK    2  A    between atoms: C4_4  and  C5_5 
REMARK    3  A    between atoms: C5_5  and  C6_6 
REMARK    4  A    between atoms: C10_13  and  O1_14 
REMARK    5  A    between atoms: N2_16  and  C11_17 
REMARK    6  A    between atoms: C16_22  and  O2_23 
ROOT
HETATM    1  C6  UNL     1       6.691  -4.640  16.981  1.00  0.00     0.199 C 
HETATM    2  N1  UNL     1       6.637  -4.659  15.533  1.00  0.00    -0.061 N 
ATOM      3  H11 UNL     1       7.533  -4.471  15.085  1.00  0.00     0.278 HD
ATOM      4  H12 UNL     1       6.134  -3.868  15.130  1.00  0.00     0.278 HD
HETATM    5  C7  UNL     1       6.072  -5.943  15.189  1.00  0.00     0.232 C 
HETATM    6  C8  UNL     1       4.703  -6.094  15.799  1.00  0.00     0.035 A 
HETATM    7  C9  UNL     1       4.861  -6.153  17.165  1.00  0.00     0.013 A 
HETATM    8  C10 UNL     1       3.621  -6.295  17.738  1.00  0.00     0.152 A 
HETATM    9  N2  UNL     1       2.708  -6.322  16.753  1.00  0.00    -0.303 N 
HETATM   10  C16 UNL     1       3.349  -6.202  15.576  1.00  0.00     0.153 A 
HETATM   11  C17 UNL     1       6.348  -6.031  17.402  1.00  0.00     0.065 C 
HETATM   12  C18 UNL     1       6.836  -6.836  16.189  1.00  0.00    -0.005 C 
HETATM   13  C19 UNL     1       8.302  -6.813  15.996  1.00  0.00     0.018 C 
HETATM   14  C20 UNL     1       6.258  -8.216  16.169  1.00  0.00     0.018 C 
ENDROOT
BRANCH   1  15
HETATM   15  C5  UNL     1       7.946  -4.072  17.536  1.00  0.00     0.060 C 
BRANCH  15  16
HETATM   16  C4  UNL     1       8.573  -3.098  16.603  1.00  0.00    -0.029 C 
HETATM   17  C3  UNL     1       9.840  -3.147  16.231  1.00  0.00    -0.031 C 
BRANCH  17  18
HETATM   18  C2  UNL     1      10.383  -2.133  15.295  1.00  0.00     0.022 C 
HETATM   19  C1  UNL     1      11.864  -2.349  15.064  1.00  0.00     0.009 C 
ENDBRANCH  17  18
ENDBRANCH  15  16
ENDBRANCH   1  15
BRANCH   8  20
HETATM   20  O1  UNL     1       3.364  -6.391  19.106  1.00  0.00    -0.345 OA
ATOM     21  H1  UNL     1       3.866  -6.902  19.729  1.00  0.00     0.219 HD
ENDBRANCH   8  20
BRANCH  10  22
HETATM   22  O2  UNL     1       2.749  -6.186  14.299  1.00  0.00    -0.345 OA
ATOM     23  H2  UNL     1       2.442  -6.960  13.842  1.00  0.00     0.219 HD
ENDBRANCH  10  22
BRANCH   9  24
HETATM   24  C11 UNL     1       1.281  -6.454  16.846  1.00  0.00     0.094 C 
HETATM   25  C12 UNL     1       0.596  -5.310  17.509  1.00  0.00     0.026 C 
HETATM   26  C13 UNL     1      -0.783  -5.855  17.803  1.00  0.00     0.002 C 
HETATM   27  C14 UNL     1      -0.682  -7.364  17.716  1.00  0.00     0.002 C 
HETATM   28  C15 UNL     1       0.829  -7.639  17.640  1.00  0.00     0.026 C 
ENDBRANCH   9  24
TORSDOF 6
ENDMDL
MODEL 4
REMARK VINA RESULT: -7.623274913      3.191      7.081
REMARK  6 active torsions:
REMARK  status: ('A' for Active; 'I' for Inactive)
REMARK    1  A    between atoms: C2_2  and  C3_3 
REMARK    2  A    between atoms: C4_4  and  C5_5 
REMARK    3  A    between atoms: C5_5  and  C6_6 
REMARK    4  A    between atoms: C10_13  and  O1_14 
REMARK    5  A    between atoms: N2_16  and  C11_17 
REMARK    6  A    between atoms: C16_22  and  O2_23 
ROOT
HETATM    1  C6  UNL     1       2.345  -5.253  17.696  1.00  0.00     0.199 C 
HETATM    2  N1  UNL     1       2.939  -5.542  18.986  1.00  0.00    -0.061 N 
ATOM      3  H11 UNL     1       2.267  -5.846  19.690  1.00  0.00     0.278 HD
ATOM      4  H12 UNL     1       3.267  -4.714  19.483  1.00  0.00     0.278 HD
HETATM    5  C7  UNL     1       3.978  -6.509  18.719  1.00  0.00     0.232 C 
HETATM    6  C8  UNL     1       4.989  -5.941  17.756  1.00  0.00     0.035 A 
HETATM    7  C9  UNL     1       4.361  -5.781  16.542  1.00  0.00     0.013 A 
HETATM    8  C10 UNL     1       5.269  -5.266  15.650  1.00  0.00     0.152 A 
HETATM    9  N2  UNL     1       6.438  -5.106  16.293  1.00  0.00    -0.303 N 
HETATM   10  C16 UNL     1       6.282  -5.511  17.566  1.00  0.00     0.153 A 
HETATM   11  C17 UNL     1       2.942  -6.251  16.760  1.00  0.00     0.065 C 
HETATM   12  C18 UNL     1       3.234  -7.416  17.716  1.00  0.00    -0.005 C 
HETATM   13  C19 UNL     1       2.027  -8.053  18.284  1.00  0.00     0.018 C 
HETATM   14  C20 UNL     1       4.196  -8.395  17.121  1.00  0.00     0.018 C 
ENDROOT
BRANCH   1  15
HETATM   15  C5  UNL     1       0.863  -5.167  17.714  1.00  0.00     0.060 C 
BRANCH  15  16
HETATM   16  C4  UNL     1       0.346  -4.805  19.061  1.00  0.00    -0.029 C 
HETATM   17  C3  UNL     1      -0.394  -5.609  19.805  1.00  0.00    -0.031 C 
BRANCH  17  18
HETATM   18  C2  UNL     1      -0.868  -5.167  21.138  1.00  0.00     0.022 C 
HETATM   19  C1  UNL     1      -0.143  -3.913  21.582  1.00  0.00     0.009 C 
ENDBRANCH  17  18
ENDBRANCH  15  16
ENDBRANCH   1  15
BRANCH   8  20
HETATM   20  O1  UNL     1       5.013  -4.963  14.312  1.00  0.00    -0.345 OA
ATOM     21  H1  UNL     1       5.436  -4.278  13.809  1.00  0.00     0.219 HD
ENDBRANCH   8  20
BRANCH  10  22
HETATM   22  O2  UNL     1       7.275  -5.505  18.569  1.00  0.00    -0.345 OA
ATOM     23  H2  UNL     1       7.124  -5.243  19.469  1.00  0.00     0.219 HD
ENDBRANCH  10  22
BRANCH   9  24
HETATM   24  C11 UNL     1       7.686  -4.602  15.789  1.00  0.00     0.094 C 
HETATM   25  C12 UNL     1       8.806  -5.582  15.819  1.00  0.00     0.026 C 
HETATM   26  C13 UNL     1      10.028  -4.718  15.605  1.00  0.00     0.002 C 
HETATM   27  C14 UNL     1       9.612  -3.294  15.907  1.00  0.00     0.002 C 
HETATM   28  C15 UNL     1       8.224  -3.433  16.553  1.00  0.00     0.026 C 
ENDBRANCH   9  24
TORSDOF 6
ENDMDL
MODEL 5
REMARK VINA RESULT: -7.534094564      2.423      3.768
REMARK  6 active torsions:
REMARK  status: ('A' for Active; 'I' for Inactive)
REMARK    1  A    between atoms: C2_2  and  C3_3 
REMARK    2  A    between atoms: C4_4  and  C5_5 
REMARK    3  A    between atoms: C5_5  and  C6_6 
REMARK    4  A    between atoms: C10_13  and  O1_14 
REMARK    5  A    between atoms: N2_16  and  C11_17 
REMARK    6  A    between atoms: C16_22  and  O2_23 
ROOT
HETATM    1  C6  UNL     1       4.118  -5.014  19.101  1.00  0.00     0.199 C 
HETATM    2  N1  UNL     1       3.657  -6.171  19.842  1.00  0.00    -0.061 N 
ATOM      3  H11 UNL     1       3.351  -5.957  20.790  1.00  0.00     0.278 HD
ATOM      4  H12 UNL     1       4.403  -6.817  20.101  1.00  0.00     0.278 HD
HETATM    5  C7  UNL     1       2.631  -6.766  19.019  1.00  0.00     0.232 C 
HETATM    6  C8  UNL     1       3.194  -7.154  17.676  1.00  0.00     0.035 A 
HETATM    7  C9  UNL     1       3.523  -5.994  17.013  1.00  0.00     0.013 A 
HETATM    8  C10 UNL     1       4.036  -6.329  15.784  1.00  0.00     0.152 A 
HETATM    9  N2  UNL     1       4.030  -7.668  15.682  1.00  0.00    -0.303 N 
HETATM   10  C16 UNL     1       3.523  -8.179  16.818  1.00  0.00     0.153 A 
HETATM   11  C17 UNL     1       3.163  -4.875  17.962  1.00  0.00     0.065 C 
HETATM   12  C18 UNL     1       1.892  -5.490  18.565  1.00  0.00    -0.005 C 
HETATM   13  C19 UNL     1       1.316  -4.716  19.684  1.00  0.00     0.018 C 
HETATM   14  C20 UNL     1       0.891  -5.842  17.510  1.00  0.00     0.018 C 
ENDROOT
BRANCH   1  15
HETATM   15  C5  UNL     1       4.334  -3.803  19.933  1.00  0.00     0.060 C 
BRANCH  15  16
HETATM   16  C4  UNL     1       5.512  -3.019  19.474  1.00  0.00    -0.029 C 
HETATM   17  C3  UNL     1       6.549  -3.547  18.846  1.00  0.00    -0.031 C 
BRANCH  17  18
HETATM   18  C2  UNL     1       7.681  -2.690  18.423  1.00  0.00     0.022 C 
HETATM   19  C1  UNL     1       8.078  -2.985  16.991  1.00  0.00     0.009 C 
ENDBRANCH  17  18
ENDBRANCH  15  16
ENDBRANCH   1  15
BRANCH   8  20
HETATM   20  O1  UNL     1       4.484  -5.428  14.817  1.00  0.00    -0.345 OA
ATOM     21  H1  UNL     1       4.227  -5.424  13.903  1.00  0.00     0.219 HD
ENDBRANCH   8  20
BRANCH  10  22
HETATM   22  O2  UNL     1       3.346  -9.548  17.109  1.00  0.00    -0.345 OA
ATOM     23  H2  UNL     1       2.519  -9.940  17.361  1.00  0.00     0.219 HD
ENDBRANCH  10  22
BRANCH   9  24
HETATM   24  C11 UNL     1       4.465  -8.494  14.590  1.00  0.00     0.094 C 
HETATM   25  C12 UNL     1       5.895  -8.317  14.212  1.00  0.00     0.026 C 
HETATM   26  C13 UNL     1       5.982  -8.986  12.860  1.00  0.00     0.002 C 
HETATM   27  C14 UNL     1       4.564  -9.106  12.342  1.00  0.00     0.002 C 
HETATM   28  C15 UNL     1       3.733  -8.246  13.308  1.00  0.00     0.026 C 
ENDBRANCH   9  24
TORSDOF 6
ENDMDL
