MODEL 1
REMARK VINA RESULT: -5.285292344      0.000      0.000
REMARK  13 active torsions:
REMARK  status: ('A' for Active; 'I' for Inactive)
REMARK    1  A    between atoms: O1_2  and  C2_3 
REMARK    2  A    between atoms: C2_3  and  N1_4 
REMARK    3  A    between atoms: C5_10  and  N3_11 
REMARK    4  A    between atoms: C7_13  and  O3_14 
REMARK    5  A    between atoms: C7_13  and  C8_16 
REMARK    6  A    between atoms: C8_16  and  O4_17 
REMARK    7  A    between atoms: C9_19  and  O5_20 
REMARK    8  A    between atoms: C10_22  and  O6_23 
REMARK    9  A    between atoms: C13_34  and  O7_35 
REMARK   10  A    between atoms: C14_37  and  O8_38 
REMARK   11  A    between atoms: C15_40  and  N7_41 
REMARK   12  A    between atoms: C16_45  and  O9_46 
REMARK   13  A    between atoms: O9_46  and  C17_47 
ROOT
HETATM    1  N1  UNL     1      20.952  -1.521  39.644  1.00  0.00    -0.244 N 
HETATM    2  C3  UNL     1      20.334  -2.047  40.707  1.00  0.00     0.331 A 
HETATM    3  O2  UNL     1      20.286  -1.592  41.866  1.00  0.00    -0.246 OA
HETATM    4  N2  UNL     1      19.717  -3.206  40.397  1.00  0.00    -0.302 N 
ATOM      5  H2  UNL     1      19.182  -3.788  41.041  1.00  0.00     0.171 HD
HETATM    6  C4  UNL     1      19.926  -3.459  39.104  1.00  0.00     0.126 A 
HETATM    7  C5  UNL     1      19.510  -4.516  38.306  1.00  0.00     0.152 A 
HETATM    8  N4  UNL     1      19.892  -4.487  37.026  1.00  0.00    -0.174 N 
ATOM      9  H4  UNL     1      19.608  -5.245  36.406  1.00  0.00     0.186 HD
HETATM   10  C11 UNL     1      20.634  -3.493  36.537  1.00  0.00     0.679 A 
HETATM   11  N5  UNL     1      21.003  -3.470  35.283  1.00  0.00    -0.234 N 
ATOM     12  H51 UNL     1      21.570  -2.709  34.908  1.00  0.00     0.174 HD
ATOM     13  H52 UNL     1      20.706  -4.239  34.682  1.00  0.00     0.174 HD
HETATM   14  N6  UNL     1      21.029  -2.467  37.337  1.00  0.00    -0.174 N 
ATOM     15  H6  UNL     1      21.597  -1.720  36.937  1.00  0.00     0.186 HD
HETATM   16  C12 UNL     1      20.697  -2.406  38.634  1.00  0.00     0.160 A 
ENDROOT
BRANCH   1  17
HETATM   17  C2  UNL     1      21.729  -0.291  39.537  1.00  0.00     0.203 C 
HETATM   18  C13 UNL     1      20.807   0.867  40.042  1.00  0.00     0.208 C 
HETATM   19  C14 UNL     1      21.385   2.056  39.250  1.00  0.00     0.185 C 
HETATM   20  C15 UNL     1      21.339   1.465  37.877  1.00  0.00     0.249 C 
HETATM   21  C16 UNL     1      22.096   0.119  38.166  1.00  0.00     0.225 C 
BRANCH  17  22
HETATM   22  O1  UNL     1      22.774  -0.237  40.399  1.00  0.00    -0.360 OA
HETATM   23  C1  UNL     1      23.548  -1.292  40.658  1.00  0.00     0.205 C 
ENDBRANCH  17  22
BRANCH  18  24
HETATM   24  O7  UNL     1      21.039   1.165  41.356  1.00  0.00    -0.388 OA
ATOM     25  H7  UNL     1      21.681   1.857  41.452  1.00  0.00     0.210 HD
ENDBRANCH  18  24
BRANCH  19  26
HETATM   26  O8  UNL     1      20.612   3.178  39.403  1.00  0.00    -0.391 OA
ATOM     27  H8  UNL     1      20.414   3.577  38.563  1.00  0.00     0.210 HD
ENDBRANCH  19  26
BRANCH  20  28
HETATM   28  N7  UNL     1      20.029   1.206  37.376  1.00  0.00    -0.070 N 
ATOM     29  H73 UNL     1      19.327   1.514  38.050  1.00  0.00     0.274 HD
ATOM     30  H72 UNL     1      19.818   1.834  36.600  1.00  0.00     0.274 HD
ATOM     31  H71 UNL     1      19.855   0.239  37.103  1.00  0.00     0.274 HD
ENDBRANCH  20  28
BRANCH  21  32
HETATM   32  O9  UNL     1      23.447   0.508  37.979  1.00  0.00    -0.294 OA
BRANCH  32  33
HETATM   33  C17 UNL     1      24.359  -0.267  37.275  1.00  0.00     0.373 C 
HETATM   34  N8  UNL     1      23.961  -1.589  36.915  1.00  0.00    -0.032 NA
HETATM   35  O10 UNL     1      25.481   0.199  36.979  1.00  0.00    -0.242 OA
ENDBRANCH  32  33
ENDBRANCH  21  32
ENDBRANCH   1  17
BRANCH   7  36
HETATM   36  N3  UNL     1      18.725  -5.595  38.789  1.00  0.00    -0.333 N 
HETATM   37  C6  UNL     1      19.159  -6.728  39.551  1.00  0.00     0.170 C 
HETATM   38  C7  UNL     1      18.087  -7.766  39.395  1.00  0.00     0.125 C 
HETATM   39  C9  UNL     1      17.018  -7.200  38.487  1.00  0.00     0.205 C 
HETATM   40  C10 UNL     1      17.279  -5.712  38.561  1.00  0.00     0.253 C 
BRANCH  38  41
HETATM   41  O3  UNL     1      17.475  -8.003  40.626  1.00  0.00    -0.383 OA
ATOM     42  H3  UNL     1      17.463  -8.936  40.805  1.00  0.00     0.210 HD
ENDBRANCH  38  41
BRANCH  38  43
HETATM   43  C8  UNL     1      18.641  -9.068  38.836  1.00  0.00     0.206 C 
BRANCH  43  44
HETATM   44  O4  UNL     1      17.821  -9.571  37.845  1.00  0.00    -0.398 OA
ATOM     45  H4  UNL     1      18.188  -9.408  36.983  1.00  0.00     0.209 HD
ENDBRANCH  43  44
ENDBRANCH  38  43
BRANCH  39  46
HETATM   46  O5  UNL     1      15.748  -7.523  38.963  1.00  0.00    -0.388 OA
ATOM     47  H5  UNL     1      15.393  -6.809  39.480  1.00  0.00     0.210 HD
ENDBRANCH  39  46
BRANCH  40  48
HETATM   48  O6  UNL     1      16.915  -5.072  37.376  1.00  0.00    -0.374 OA
ATOM     49  H6  UNL     1      16.370  -4.315  37.558  1.00  0.00     0.212 HD
ENDBRANCH  40  48
ENDBRANCH   7  36
TORSDOF 13
ENDMDL
MODEL 2
REMARK VINA RESULT: -5.247461460      1.566      2.148
REMARK  13 active torsions:
REMARK  status: ('A' for Active; 'I' for Inactive)
REMARK    1  A    between atoms: O1_2  and  C2_3 
REMARK    2  A    between atoms: C2_3  and  N1_4 
REMARK    3  A    between atoms: C5_10  and  N3_11 
REMARK    4  A    between atoms: C7_13  and  O3_14 
REMARK    5  A    between atoms: C7_13  and  C8_16 
REMARK    6  A    between atoms: C8_16  and  O4_17 
REMARK    7  A    between atoms: C9_19  and  O5_20 
REMARK    8  A    between atoms: C10_22  and  O6_23 
REMARK    9  A    between atoms: C13_34  and  O7_35 
REMARK   10  A    between atoms: C14_37  and  O8_38 
REMARK   11  A    between atoms: C15_40  and  N7_41 
REMARK   12  A    between atoms: C16_45  and  O9_46 
REMARK   13  A    between atoms: O9_46  and  C17_47 
ROOT
HETATM    1  N1  UNL     1      20.931  -2.376  38.871  1.00  0.00    -0.244 N 
HETATM    2  C3  UNL     1      19.957  -2.935  39.597  1.00  0.00     0.331 A 
HETATM    3  O2  UNL     1      19.615  -2.653  40.762  1.00  0.00    -0.246 OA
HETATM    4  N2  UNL     1      19.325  -3.909  38.911  1.00  0.00    -0.302 N 
ATOM      5  H2  UNL     1      18.551  -4.476  39.257  1.00  0.00     0.171 HD
HETATM    6  C4  UNL     1      19.886  -4.004  37.705  1.00  0.00     0.126 A 
HETATM    7  C5  UNL     1      19.605  -4.843  36.635  1.00  0.00     0.152 A 
HETATM    8  N4  UNL     1      20.360  -4.694  35.543  1.00  0.00    -0.174 N 
ATOM      9  H4  UNL     1      20.187  -5.292  34.735  1.00  0.00     0.186 HD
HETATM   10  C11 UNL     1      21.334  -3.786  35.481  1.00  0.00     0.679 A 
HETATM   11  N5  UNL     1      22.069  -3.645  34.408  1.00  0.00    -0.234 N 
ATOM     12  H51 UNL     1      22.814  -2.950  34.360  1.00  0.00     0.174 HD
ATOM     13  H52 UNL     1      21.876  -4.254  33.612  1.00  0.00     0.174 HD
HETATM   14  N6  UNL     1      21.591  -2.974  36.540  1.00  0.00    -0.174 N 
ATOM     15  H6  UNL     1      22.342  -2.288  36.465  1.00  0.00     0.186 HD
HETATM   16  C12 UNL     1      20.889  -3.046  37.680  1.00  0.00     0.160 A 
ENDROOT
BRANCH   1  17
HETATM   17  C2  UNL     1      21.851  -1.300  39.222  1.00  0.00     0.203 C 
HETATM   18  C13 UNL     1      21.035  -0.274  40.076  1.00  0.00     0.208 C 
HETATM   19  C14 UNL     1      21.803   1.026  39.767  1.00  0.00     0.185 C 
HETATM   20  C15 UNL     1      21.788   0.955  38.273  1.00  0.00     0.249 C 
HETATM   21  C16 UNL     1      22.362  -0.496  38.093  1.00  0.00     0.225 C 
BRANCH  17  22
HETATM   22  O1  UNL     1      22.830  -1.686  40.078  1.00  0.00    -0.360 OA
HETATM   23  C1  UNL     1      23.418  -2.882  40.005  1.00  0.00     0.205 C 
ENDBRANCH  17  22
BRANCH  18  24
HETATM   24  O7  UNL     1      21.204  -0.480  41.417  1.00  0.00    -0.388 OA
ATOM     25  H7  UNL     1      20.489  -0.982  41.789  1.00  0.00     0.210 HD
ENDBRANCH  18  24
BRANCH  19  26
HETATM   26  O8  UNL     1      21.156   2.120  40.282  1.00  0.00    -0.391 OA
ATOM     27  H8  UNL     1      21.695   2.900  40.220  1.00  0.00     0.210 HD
ENDBRANCH  19  26
BRANCH  20  28
HETATM   28  N7  UNL     1      20.497   1.062  37.677  1.00  0.00    -0.070 N 
ATOM     29  H73 UNL     1      20.583   1.142  36.663  1.00  0.00     0.274 HD
ATOM     30  H72 UNL     1      20.004   0.172  37.744  1.00  0.00     0.274 HD
ATOM     31  H71 UNL     1      19.915   1.816  38.042  1.00  0.00     0.274 HD
ENDBRANCH  20  28
BRANCH  21  32
HETATM   32  O9  UNL     1      23.759  -0.252  38.092  1.00  0.00    -0.294 OA
BRANCH  32  33
HETATM   33  C17 UNL     1      24.588  -0.648  37.051  1.00  0.00     0.373 C 
HETATM   34  N8  UNL     1      24.281  -1.878  36.397  1.00  0.00    -0.032 NA
HETATM   35  O10 UNL     1      25.560   0.064  36.718  1.00  0.00    -0.242 OA
ENDBRANCH  32  33
ENDBRANCH  21  32
ENDBRANCH   1  17
BRANCH   7  36
HETATM   36  N3  UNL     1      18.582  -5.825  36.663  1.00  0.00    -0.333 N 
HETATM   37  C6  UNL     1      17.164  -5.619  36.696  1.00  0.00     0.170 C 
HETATM   38  C7  UNL     1      16.571  -6.907  37.185  1.00  0.00     0.125 C 
HETATM   39  C9  UNL     1      17.705  -7.868  37.463  1.00  0.00     0.205 C 
HETATM   40  C10 UNL     1      18.843  -7.270  36.666  1.00  0.00     0.253 C 
BRANCH  38  41
HETATM   41  O3  UNL     1      15.799  -7.486  36.178  1.00  0.00    -0.383 OA
ATOM     42  H3  UNL     1      16.134  -8.351  35.972  1.00  0.00     0.210 HD
ENDBRANCH  38  41
BRANCH  38  43
HETATM   43  C8  UNL     1      15.719  -6.697  38.429  1.00  0.00     0.206 C 
BRANCH  43  44
HETATM   44  O4  UNL     1      14.486  -6.169  38.102  1.00  0.00    -0.398 OA
ATOM     45  H4  UNL     1      14.253  -5.458  38.688  1.00  0.00     0.209 HD
ENDBRANCH  43  44
ENDBRANCH  38  43
BRANCH  39  46
HETATM   46  O5  UNL     1      17.383  -9.149  37.017  1.00  0.00    -0.388 OA
ATOM     47  H5  UNL     1      17.363  -9.177  36.068  1.00  0.00     0.210 HD
ENDBRANCH  39  46
BRANCH  40  48
HETATM   48  O6  UNL     1      20.077  -7.545  37.257  1.00  0.00    -0.374 OA
ATOM     49  H6  UNL     1      20.089  -7.246  38.159  1.00  0.00     0.212 HD
ENDBRANCH  40  48
ENDBRANCH   7  36
TORSDOF 13
ENDMDL
MODEL 3
REMARK VINA RESULT: -5.201596894      2.025      7.918
REMARK  13 active torsions:
REMARK  status: ('A' for Active; 'I' for Inactive)
REMARK    1  A    between atoms: O1_2  and  C2_3 
REMARK    2  A    between atoms: C2_3  and  N1_4 
REMARK    3  A    between atoms: C5_10  and  N3_11 
REMARK    4  A    between atoms: C7_13  and  O3_14 
REMARK    5  A    between atoms: C7_13  and  C8_16 
REMARK    6  A    between atoms: C8_16  and  O4_17 
REMARK    7  A    between atoms: C9_19  and  O5_20 
REMARK    8  A    between atoms: C10_22  and  O6_23 
REMARK    9  A    between atoms: C13_34  and  O7_35 
REMARK   10  A    between atoms: C14_37  and  O8_38 
REMARK   11  A    between atoms: C15_40  and  N7_41 
REMARK   12  A    between atoms: C16_45  and  O9_46 
REMARK   13  A    between atoms: O9_46  and  C17_47 
ROOT
HETATM    1  N1  UNL     1      19.797  -4.741  38.202  1.00  0.00    -0.244 N 
HETATM    2  C3  UNL     1      19.315  -4.072  39.255  1.00  0.00     0.331 A 
HETATM    3  O2  UNL     1      18.421  -4.431  40.045  1.00  0.00    -0.246 OA
HETATM    4  N2  UNL     1      19.925  -2.878  39.403  1.00  0.00    -0.302 N 
ATOM      5  H2  UNL     1      19.727  -2.194  40.133  1.00  0.00     0.171 HD
HETATM    6  C4  UNL     1      20.830  -2.746  38.433  1.00  0.00     0.126 A 
HETATM    7  C5  UNL     1      21.710  -1.712  38.144  1.00  0.00     0.152 A 
HETATM    8  N4  UNL     1      22.503  -1.878  37.083  1.00  0.00    -0.174 N 
ATOM      9  H4  UNL     1      23.164  -1.141  36.836  1.00  0.00     0.186 HD
HETATM   10  C11 UNL     1      22.455  -2.982  36.337  1.00  0.00     0.679 A 
HETATM   11  N5  UNL     1      23.236  -3.139  35.299  1.00  0.00    -0.234 N 
ATOM     12  H51 UNL     1      23.200  -3.983  34.728  1.00  0.00     0.174 HD
ATOM     13  H52 UNL     1      23.889  -2.388  35.073  1.00  0.00     0.174 HD
HETATM   14  N6  UNL     1      21.587  -3.983  36.637  1.00  0.00    -0.174 N 
ATOM     15  H6  UNL     1      21.571  -4.816  36.049  1.00  0.00     0.186 HD
HETATM   16  C12 UNL     1      20.750  -3.910  37.682  1.00  0.00     0.160 A 
ENDROOT
BRANCH   1  17
HETATM   17  C2  UNL     1      19.424  -6.054  37.687  1.00  0.00     0.203 C 
HETATM   18  C13 UNL     1      18.593  -5.805  36.385  1.00  0.00     0.208 C 
HETATM   19  C14 UNL     1      17.710  -7.069  36.367  1.00  0.00     0.185 C 
HETATM   20  C15 UNL     1      17.165  -6.990  37.758  1.00  0.00     0.249 C 
HETATM   21  C16 UNL     1      18.517  -6.846  38.543  1.00  0.00     0.225 C 
BRANCH  17  22
HETATM   22  O1  UNL     1      20.480  -6.774  37.232  1.00  0.00    -0.360 OA
HETATM   23  C1  UNL     1      21.495  -7.137  38.018  1.00  0.00     0.205 C 
ENDBRANCH  17  22
BRANCH  18  24
HETATM   24  O7  UNL     1      19.368  -5.893  35.263  1.00  0.00    -0.388 OA
ATOM     25  H7  UNL     1      18.846  -5.858  34.470  1.00  0.00     0.210 HD
ENDBRANCH  18  24
BRANCH  19  26
HETATM   26  O8  UNL     1      16.755  -6.994  35.386  1.00  0.00    -0.391 OA
ATOM     27  H8  UNL     1      17.124  -7.182  34.531  1.00  0.00     0.210 HD
ENDBRANCH  19  26
BRANCH  20  28
HETATM   28  N7  UNL     1      16.316  -5.872  38.010  1.00  0.00    -0.070 N 
ATOM     29  H73 UNL     1      16.720  -5.026  37.608  1.00  0.00     0.274 HD
ATOM     30  H72 UNL     1      15.464  -5.944  37.455  1.00  0.00     0.274 HD
ATOM     31  H71 UNL     1      16.085  -5.720  38.992  1.00  0.00     0.274 HD
ENDBRANCH  20  28
BRANCH  21  32
HETATM   32  O9  UNL     1      18.880  -8.204  38.735  1.00  0.00    -0.294 OA
BRANCH  32  33
HETATM   33  C17 UNL     1      18.767  -8.843  39.963  1.00  0.00     0.373 C 
HETATM   34  N8  UNL     1      18.986  -8.059  41.135  1.00  0.00    -0.032 NA
HETATM   35  O10 UNL     1      18.482 -10.059  40.013  1.00  0.00    -0.242 OA
ENDBRANCH  32  33
ENDBRANCH  21  32
ENDBRANCH   1  17
BRANCH   7  36
HETATM   36  N3  UNL     1      21.788  -0.519  38.910  1.00  0.00    -0.333 N 
HETATM   37  C6  UNL     1      22.382  -0.340  40.202  1.00  0.00     0.170 C 
HETATM   38  C7  UNL     1      21.797   0.927  40.753  1.00  0.00     0.125 C 
HETATM   39  C9  UNL     1      20.815   1.468  39.737  1.00  0.00     0.205 C 
HETATM   40  C10 UNL     1      21.241   0.769  38.465  1.00  0.00     0.253 C 
BRANCH  38  41
HETATM   41  O3  UNL     1      22.797   1.890  40.888  1.00  0.00    -0.383 OA
ATOM     42  H3  UNL     1      23.626   1.468  41.081  1.00  0.00     0.210 HD
ENDBRANCH  38  41
BRANCH  38  43
HETATM   43  C8  UNL     1      21.119   0.697  42.095  1.00  0.00     0.206 C 
BRANCH  43  44
HETATM   44  O4  UNL     1      20.681   1.888  42.640  1.00  0.00    -0.398 OA
ATOM     45  H4  UNL     1      19.734   1.952  42.606  1.00  0.00     0.209 HD
ENDBRANCH  43  44
ENDBRANCH  38  43
BRANCH  39  46
HETATM   46  O5  UNL     1      20.937   2.852  39.627  1.00  0.00    -0.388 OA
ATOM     47  H5  UNL     1      21.716   3.082  39.133  1.00  0.00     0.210 HD
ENDBRANCH  39  46
BRANCH  40  48
HETATM   48  O6  UNL     1      20.158   0.572  37.607  1.00  0.00    -0.374 OA
ATOM     49  H6  UNL     1      20.427   0.674  36.702  1.00  0.00     0.212 HD
ENDBRANCH  40  48
ENDBRANCH   7  36
TORSDOF 13
ENDMDL
MODEL 4
REMARK VINA RESULT: -5.028738496      2.371      8.225
REMARK  13 active torsions:
REMARK  status: ('A' for Active; 'I' for Inactive)
REMARK    1  A    between atoms: O1_2  and  C2_3 
REMARK    2  A    between atoms: C2_3  and  N1_4 
REMARK    3  A    between atoms: C5_10  and  N3_11 
REMARK    4  A    between atoms: C7_13  and  O3_14 
REMARK    5  A    between atoms: C7_13  and  C8_16 
REMARK    6  A    between atoms: C8_16  and  O4_17 
REMARK    7  A    between atoms: C9_19  and  O5_20 
REMARK    8  A    between atoms: C10_22  and  O6_23 
REMARK    9  A    between atoms: C13_34  and  O7_35 
REMARK   10  A    between atoms: C14_37  and  O8_38 
REMARK   11  A    between atoms: C15_40  and  N7_41 
REMARK   12  A    between atoms: C16_45  and  O9_46 
REMARK   13  A    between atoms: O9_46  and  C17_47 
ROOT
HETATM    1  N1  UNL     1      20.904  -4.366  37.279  1.00  0.00    -0.244 N 
HETATM    2  C3  UNL     1      21.677  -3.764  36.369  1.00  0.00     0.331 A 
HETATM    3  O2  UNL     1      22.086  -4.229  35.287  1.00  0.00    -0.246 OA
HETATM    4  N2  UNL     1      22.005  -2.512  36.748  1.00  0.00    -0.302 N 
ATOM      5  H2  UNL     1      22.584  -1.861  36.218  1.00  0.00     0.171 HD
HETATM    6  C4  UNL     1      21.442  -2.272  37.933  1.00  0.00     0.126 A 
HETATM    7  C5  UNL     1      21.475  -1.146  38.744  1.00  0.00     0.152 A 
HETATM    8  N4  UNL     1      20.801  -1.216  39.895  1.00  0.00    -0.174 N 
ATOM      9  H4  UNL     1      20.800  -0.410  40.520  1.00  0.00     0.186 HD
HETATM   10  C11 UNL     1      20.129  -2.312  40.249  1.00  0.00     0.679 A 
HETATM   11  N5  UNL     1      19.470  -2.374  41.378  1.00  0.00    -0.234 N 
ATOM     12  H51 UNL     1      18.955  -3.211  41.648  1.00  0.00     0.174 HD
ATOM     13  H52 UNL     1      19.484  -1.554  41.985  1.00  0.00     0.174 HD
HETATM   14  N6  UNL     1      20.109  -3.403  39.439  1.00  0.00    -0.174 N 
ATOM     15  H6  UNL     1      19.587  -4.228  39.735  1.00  0.00     0.186 HD
HETATM   16  C12 UNL     1      20.754  -3.430  38.265  1.00  0.00     0.160 A 
ENDROOT
BRANCH   1  17
HETATM   17  C2  UNL     1      20.330  -5.707  37.269  1.00  0.00     0.203 C 
HETATM   18  C13 UNL     1      19.430  -5.800  35.993  1.00  0.00     0.208 C 
HETATM   19  C14 UNL     1      18.399  -6.851  36.448  1.00  0.00     0.185 C 
HETATM   20  C15 UNL     1      17.985  -6.223  37.742  1.00  0.00     0.249 C 
HETATM   21  C16 UNL     1      19.405  -6.018  38.379  1.00  0.00     0.225 C 
BRANCH  17  22
HETATM   22  O1  UNL     1      21.246  -6.685  37.058  1.00  0.00    -0.360 OA
HETATM   23  C1  UNL     1      22.414  -6.727  37.704  1.00  0.00     0.205 C 
ENDBRANCH  17  22
BRANCH  18  24
HETATM   24  O7  UNL     1      20.092  -6.378  34.946  1.00  0.00    -0.388 OA
ATOM     25  H7  UNL     1      19.521  -6.937  34.433  1.00  0.00     0.210 HD
ENDBRANCH  18  24
BRANCH  19  26
HETATM   26  O8  UNL     1      17.382  -6.977  35.537  1.00  0.00    -0.391 OA
ATOM     27  H8  UNL     1      16.566  -7.217  35.962  1.00  0.00     0.210 HD
ENDBRANCH  19  26
BRANCH  20  28
HETATM   28  N7  UNL     1      17.306  -4.975  37.617  1.00  0.00    -0.070 N 
ATOM     29  H73 UNL     1      16.901  -4.887  36.684  1.00  0.00     0.274 HD
ATOM     30  H72 UNL     1      16.456  -4.979  38.180  1.00  0.00     0.274 HD
ATOM     31  H71 UNL     1      17.870  -4.154  37.836  1.00  0.00     0.274 HD
ENDBRANCH  20  28
BRANCH  21  32
HETATM   32  O9  UNL     1      19.612  -7.266  39.022  1.00  0.00    -0.294 OA
BRANCH  32  33
HETATM   33  C17 UNL     1      19.944  -7.370  40.366  1.00  0.00     0.373 C 
HETATM   34  N8  UNL     1      20.332  -6.176  41.043  1.00  0.00    -0.032 NA
HETATM   35  O10 UNL     1      19.897  -8.480  40.939  1.00  0.00    -0.242 OA
ENDBRANCH  32  33
ENDBRANCH  21  32
ENDBRANCH   1  17
BRANCH   7  36
HETATM   36  N3  UNL     1      22.182   0.037  38.406  1.00  0.00    -0.333 N 
HETATM   37  C6  UNL     1      23.552   0.353  38.683  1.00  0.00     0.170 C 
HETATM   38  C7  UNL     1      23.665   1.844  38.555  1.00  0.00     0.125 C 
HETATM   39  C9  UNL     1      22.296   2.389  38.217  1.00  0.00     0.205 C 
HETATM   40  C10 UNL     1      21.578   1.167  37.688  1.00  0.00     0.253 C 
BRANCH  38  41
HETATM   41  O3  UNL     1      24.495   2.165  37.481  1.00  0.00    -0.383 OA
ATOM     42  H3  UNL     1      25.396   1.952  37.696  1.00  0.00     0.210 HD
ENDBRANCH  38  41
BRANCH  38  43
HETATM   43  C8  UNL     1      24.203   2.478  39.830  1.00  0.00     0.206 C 
BRANCH  43  44
HETATM   44  O4  UNL     1      23.465   2.085  40.929  1.00  0.00    -0.398 OA
ATOM     45  H4  UNL     1      23.978   2.153  41.726  1.00  0.00     0.209 HD
ENDBRANCH  43  44
ENDBRANCH  38  43
BRANCH  39  46
HETATM   46  O5  UNL     1      22.390   3.388  37.249  1.00  0.00    -0.388 OA
ATOM     47  H5  UNL     1      22.146   4.231  37.613  1.00  0.00     0.210 HD
ENDBRANCH  39  46
BRANCH  40  48
HETATM   48  O6  UNL     1      20.208   1.233  37.941  1.00  0.00    -0.374 OA
ATOM     49  H6  UNL     1      19.993   2.031  38.410  1.00  0.00     0.212 HD
ENDBRANCH  40  48
ENDBRANCH   7  36
TORSDOF 13
ENDMDL
MODEL 5
REMARK VINA RESULT: -5.001100018      3.586      5.762
REMARK  13 active torsions:
REMARK  status: ('A' for Active; 'I' for Inactive)
REMARK    1  A    between atoms: O1_2  and  C2_3 
REMARK    2  A    between atoms: C2_3  and  N1_4 
REMARK    3  A    between atoms: C5_10  and  N3_11 
REMARK    4  A    between atoms: C7_13  and  O3_14 
REMARK    5  A    between atoms: C7_13  and  C8_16 
REMARK    6  A    between atoms: C8_16  and  O4_17 
REMARK    7  A    between atoms: C9_19  and  O5_20 
REMARK    8  A    between atoms: C10_22  and  O6_23 
REMARK    9  A    between atoms: C13_34  and  O7_35 
REMARK   10  A    between atoms: C14_37  and  O8_38 
REMARK   11  A    between atoms: C15_40  and  N7_41 
REMARK   12  A    between atoms: C16_45  and  O9_46 
REMARK   13  A    between atoms: O9_46  and  C17_47 
ROOT
HETATM    1  N1  UNL     1      18.701  -5.890  37.558  1.00  0.00    -0.244 N 
HETATM    2  C3  UNL     1      18.437  -6.483  36.388  1.00  0.00     0.331 A 
HETATM    3  O2  UNL     1      19.148  -6.504  35.364  1.00  0.00    -0.246 OA
HETATM    4  N2  UNL     1      17.241  -7.105  36.408  1.00  0.00    -0.302 N 
ATOM      5  H2  UNL     1      16.825  -7.624  35.634  1.00  0.00     0.171 HD
HETATM    6  C4  UNL     1      16.694  -6.926  37.611  1.00  0.00     0.126 A 
HETATM    7  C5  UNL     1      15.484  -7.359  38.134  1.00  0.00     0.152 A 
HETATM    8  N4  UNL     1      15.215  -7.007  39.395  1.00  0.00    -0.174 N 
ATOM      9  H4  UNL     1      14.335  -7.305  39.816  1.00  0.00     0.186 HD
HETATM   10  C11 UNL     1      16.066  -6.278  40.116  1.00  0.00     0.679 A 
HETATM   11  N5  UNL     1      15.797  -5.938  41.351  1.00  0.00    -0.234 N 
ATOM     12  H51 UNL     1      16.448  -5.380  41.903  1.00  0.00     0.174 HD
ATOM     13  H52 UNL     1      14.911  -6.248  41.750  1.00  0.00     0.174 HD
HETATM   14  N6  UNL     1      17.246  -5.865  39.585  1.00  0.00    -0.174 N 
ATOM     15  H6  UNL     1      17.879  -5.308  40.159  1.00  0.00     0.186 HD
HETATM   16  C12 UNL     1      17.607  -6.167  38.330  1.00  0.00     0.160 A 
ENDROOT
BRANCH   1  17
HETATM   17  C2  UNL     1      19.869  -5.117  37.964  1.00  0.00     0.203 C 
HETATM   18  C13 UNL     1      19.418  -3.620  38.022  1.00  0.00     0.208 C 
HETATM   19  C14 UNL     1      20.755  -2.909  37.737  1.00  0.00     0.185 C 
HETATM   20  C15 UNL     1      21.144  -3.637  36.489  1.00  0.00     0.249 C 
HETATM   21  C16 UNL     1      20.998  -5.111  37.011  1.00  0.00     0.225 C 
BRANCH  17  22
HETATM   22  O1  UNL     1      20.259  -5.359  39.240  1.00  0.00    -0.360 OA
HETATM   23  C1  UNL     1      20.674  -6.560  39.649  1.00  0.00     0.205 C 
ENDBRANCH  17  22
BRANCH  18  24
HETATM   24  O7  UNL     1      19.074  -3.242  39.289  1.00  0.00    -0.388 OA
ATOM     25  H7  UNL     1      19.399  -2.375  39.500  1.00  0.00     0.210 HD
ENDBRANCH  18  24
BRANCH  19  26
HETATM   26  O8  UNL     1      20.575  -1.561  37.566  1.00  0.00    -0.391 OA
ATOM     27  H8  UNL     1      20.352  -1.136  38.386  1.00  0.00     0.210 HD
ENDBRANCH  19  26
BRANCH  20  28
HETATM   28  N7  UNL     1      20.287  -3.414  35.370  1.00  0.00    -0.070 N 
ATOM     29  H73 UNL     1      19.484  -2.850  35.649  1.00  0.00     0.274 HD
ATOM     30  H72 UNL     1      20.731  -2.777  34.709  1.00  0.00     0.274 HD
ATOM     31  H71 UNL     1      19.976  -4.259  34.891  1.00  0.00     0.274 HD
ENDBRANCH  20  28
BRANCH  21  32
HETATM   32  O9  UNL     1      22.280  -5.341  37.573  1.00  0.00    -0.294 OA
BRANCH  32  33
HETATM   33  C17 UNL     1      23.334  -5.875  36.843  1.00  0.00     0.373 C 
HETATM   34  N8  UNL     1      23.009  -6.745  35.759  1.00  0.00    -0.032 NA
HETATM   35  O10 UNL     1      24.513  -5.589  37.143  1.00  0.00    -0.242 OA
ENDBRANCH  32  33
ENDBRANCH  21  32
ENDBRANCH   1  17
BRANCH   7  36
HETATM   36  N3  UNL     1      14.549  -8.132  37.397  1.00  0.00    -0.333 N 
HETATM   37  C6  UNL     1      14.751  -9.414  36.790  1.00  0.00     0.170 C 
HETATM   38  C7  UNL     1      13.661  -9.564  35.771  1.00  0.00     0.125 C 
HETATM   39  C9  UNL     1      12.826  -8.303  35.790  1.00  0.00     0.205 C 
HETATM   40  C10 UNL     1      13.168  -7.704  37.137  1.00  0.00     0.253 C 
BRANCH  38  41
HETATM   41  O3  UNL     1      12.810 -10.607  36.138  1.00  0.00    -0.383 OA
ATOM     42  H3  UNL     1      11.994 -10.254  36.472  1.00  0.00     0.210 HD
ENDBRANCH  38  41
BRANCH  38  43
HETATM   43  C8  UNL     1      14.221  -9.824  34.380  1.00  0.00     0.206 C 
BRANCH  43  44
HETATM   44  O4  UNL     1      13.802  -8.856  33.488  1.00  0.00    -0.398 OA
ATOM     45  H4  UNL     1      13.550  -9.243  32.658  1.00  0.00     0.209 HD
ENDBRANCH  43  44
ENDBRANCH  38  43
BRANCH  39  46
HETATM   46  O5  UNL     1      11.470  -8.611  35.695  1.00  0.00    -0.388 OA
ATOM     47  H5  UNL     1      11.006  -8.321  36.472  1.00  0.00     0.210 HD
ENDBRANCH  39  46
BRANCH  40  48
HETATM   48  O6  UNL     1      13.082  -6.312  37.110  1.00  0.00    -0.374 OA
ATOM     49  H6  UNL     1      12.234  -6.024  37.425  1.00  0.00     0.212 HD
ENDBRANCH  40  48
ENDBRANCH   7  36
TORSDOF 13
ENDMDL
