MODEL 1
REMARK VINA RESULT: -6.328224679      0.000      0.000
REMARK  14 active torsions:
REMARK  status: ('A' for Active; 'I' for Inactive)
REMARK    1  A    between atoms: C1_4  and  N2_5 
REMARK    2  A    between atoms: C1_4  and  C17_48 
REMARK    3  A    between atoms: N2_5  and  C2_7 
REMARK    4  A    between atoms: C4_12  and  C5_13 
REMARK    5  A    between atoms: C5_13  and  N5_14 
REMARK    6  A    between atoms: C8_22  and  N9_23 
REMARK    7  A    between atoms: N9_23  and  C9_25 
REMARK    8  A    between atoms: C9_25  and  C10_26 
REMARK    9  A    between atoms: C10_26  and  N10_27 
REMARK   10  A    between atoms: C11_33  and  N12_34 
REMARK   11  A    between atoms: C15_44  and  C16_45 
REMARK   12  A    between atoms: C16_45  and  O3_46 
REMARK   13  A    between atoms: C17_48  and  N14_49 
REMARK   14  A    between atoms: C17_48  and  N15_53 
ROOT
HETATM    1  N5  UNL     1      18.666  -6.815  37.052  1.00  0.00    -0.305 N 
HETATM    2  C6  UNL     1      19.027  -6.390  35.828  1.00  0.00     0.187 A 
HETATM    3  N6  UNL     1      19.594  -5.191  35.602  1.00  0.00    -0.336 N 
ATOM      4  H6  UNL     1      19.843  -4.933  34.647  1.00  0.00     0.168 HD
HETATM    5  C7  UNL     1      19.844  -4.319  36.601  1.00  0.00     0.141 A 
HETATM    6  N7  UNL     1      20.375  -3.102  36.703  1.00  0.00    -0.262 N 
ATOM      7  H7  UNL     1      20.726  -2.567  35.908  1.00  0.00     0.190 HD
HETATM    8  N8  UNL     1      20.395  -2.667  37.943  1.00  0.00    -0.066 N 
HETATM    9  C8  UNL     1      20.805  -1.551  38.572  1.00  0.00     0.715 A 
HETATM   10  N11 UNL     1      20.648  -1.476  39.929  1.00  0.00    -0.021 N 
ATOM     11  H11 UNL     1      20.958  -0.632  40.413  1.00  0.00     0.203 HD
HETATM   12  C11 UNL     1      20.105  -2.466  40.646  1.00  0.00     0.692 A 
HETATM   13  N13 UNL     1      19.696  -3.579  40.020  1.00  0.00    -0.173 N 
ATOM     14  H13 UNL     1      19.279  -4.350  40.541  1.00  0.00     0.186 HD
HETATM   15  C12 UNL     1      19.849  -3.650  38.694  1.00  0.00     0.180 A 
HETATM   16  C13 UNL     1      19.485  -4.725  37.873  1.00  0.00     0.124 A 
HETATM   17  C14 UNL     1      18.904  -5.960  38.073  1.00  0.00     0.266 A 
HETATM   18  O1  UNL     1      18.585  -6.314  39.224  1.00  0.00    -0.267 OA
ENDROOT
BRANCH   1  19
HETATM   19  C5  UNL     1      18.066  -8.107  37.216  1.00  0.00     0.186 C 
BRANCH  19  20
HETATM   20  C4  UNL     1      16.579  -8.111  36.999  1.00  0.00     0.240 C 
HETATM   21  N4  UNL     1      15.891  -7.134  37.820  1.00  0.00    -0.352 N 
HETATM   22  C3  UNL     1      14.613  -7.074  37.634  1.00  0.00     0.116 C 
ATOM     23  H4  UNL     1      16.377  -6.541  38.493  1.00  0.00     0.163 HD
HETATM   24  C2  UNL     1      14.047  -8.001  36.620  1.00  0.00     0.178 C 
HETATM   25  N3  UNL     1      13.784  -6.167  38.360  1.00  0.00    -0.086 NA
HETATM   26  C15 UNL     1      14.742  -9.326  36.593  1.00  0.00     0.177 C 
HETATM   27  O2  UNL     1      15.989  -9.330  37.215  1.00  0.00    -0.355 OA
BRANCH  24  28
HETATM   28  N2  UNL     1      12.605  -8.121  36.801  1.00  0.00    -0.363 N 
ATOM     29  H2  UNL     1      12.264  -8.610  37.629  1.00  0.00     0.161 HD
BRANCH  28  30
HETATM   30  C1  UNL     1      11.659  -7.602  35.904  1.00  0.00     0.130 C 
HETATM   31  N1  UNL     1      11.366  -6.354  35.940  1.00  0.00    -0.386 N 
ATOM     32  H12 UNL     1      11.830  -5.757  36.625  1.00  0.00     0.157 HD
ATOM     33  H11 UNL     1      10.678  -5.977  35.288  1.00  0.00     0.157 HD
BRANCH  30  34
HETATM   34  C17 UNL     1      10.987  -8.466  34.911  1.00  0.00     0.443 C 
BRANCH  34  35
HETATM   35  N14 UNL     1      11.655  -8.434  33.623  1.00  0.00    -0.043 N 
ATOM     36 3H14 UNL     1      12.531  -7.914  33.673  1.00  0.00     0.277 HD
ATOM     37 2H14 UNL     1      12.027  -9.351  33.375  1.00  0.00     0.277 HD
ATOM     38 1H14 UNL     1      11.049  -8.070  32.888  1.00  0.00     0.277 HD
ENDBRANCH  34  35
BRANCH  34  39
HETATM   39  N15 UNL     1       9.612  -8.065  34.680  1.00  0.00    -0.043 N 
ATOM     40 3H15 UNL     1       8.958  -8.758  35.043  1.00  0.00     0.277 HD
ATOM     41 2H15 UNL     1       9.353  -7.274  35.271  1.00  0.00     0.277 HD
ATOM     42 1H15 UNL     1       9.431  -7.866  33.696  1.00  0.00     0.277 HD
ENDBRANCH  34  39
ENDBRANCH  30  34
ENDBRANCH  28  30
ENDBRANCH  24  28
BRANCH  26  43
HETATM   43  C16 UNL     1      14.997  -9.804  35.157  1.00  0.00     0.198 C 
BRANCH  43  44
HETATM   44  O3  UNL     1      14.581  -8.813  34.268  1.00  0.00    -0.398 OA
ATOM     45  H3  UNL     1      14.680  -9.133  33.379  1.00  0.00     0.209 HD
ENDBRANCH  43  44
ENDBRANCH  26  43
ENDBRANCH  19  20
ENDBRANCH   1  19
BRANCH   9  46
HETATM   46  N9  UNL     1      21.325  -0.577  37.963  1.00  0.00    -0.222 N 
ATOM     47  H9  UNL     1      21.472  -0.655  36.957  1.00  0.00     0.177 HD
BRANCH  46  48
HETATM   48  C9  UNL     1      21.719   0.631  38.620  1.00  0.00     0.165 C 
BRANCH  48  49
HETATM   49  C10 UNL     1      20.746   1.760  38.274  1.00  0.00     0.249 C 
BRANCH  49  50
HETATM   50  N10 UNL     1      19.809   1.343  37.255  1.00  0.00    -0.078 N 
ATOM     51 3H10 UNL     1      20.097   1.658  36.329  1.00  0.00     0.274 HD
ATOM     52 2H10 UNL     1      19.849   0.336  37.097  1.00  0.00     0.274 HD
ATOM     53 1H10 UNL     1      18.864   1.651  37.480  1.00  0.00     0.274 HD
ENDBRANCH  49  50
ENDBRANCH  48  49
ENDBRANCH  46  48
ENDBRANCH   9  46
BRANCH  12  54
HETATM   54  N12 UNL     1      19.955  -2.395  41.939  1.00  0.00    -0.234 N 
ATOM     55 2H12 UNL     1      19.065  -2.693  42.340  1.00  0.00     0.174 HD
ATOM     56 1H12 UNL     1      20.690  -2.054  42.558  1.00  0.00     0.174 HD
ENDBRANCH  12  54
TORSDOF 14
ENDMDL
MODEL 2
REMARK VINA RESULT: -6.049922155      1.516      1.811
REMARK  14 active torsions:
REMARK  status: ('A' for Active; 'I' for Inactive)
REMARK    1  A    between atoms: C1_4  and  N2_5 
REMARK    2  A    between atoms: C1_4  and  C17_48 
REMARK    3  A    between atoms: N2_5  and  C2_7 
REMARK    4  A    between atoms: C4_12  and  C5_13 
REMARK    5  A    between atoms: C5_13  and  N5_14 
REMARK    6  A    between atoms: C8_22  and  N9_23 
REMARK    7  A    between atoms: N9_23  and  C9_25 
REMARK    8  A    between atoms: C9_25  and  C10_26 
REMARK    9  A    between atoms: C10_26  and  N10_27 
REMARK   10  A    between atoms: C11_33  and  N12_34 
REMARK   11  A    between atoms: C15_44  and  C16_45 
REMARK   12  A    between atoms: C16_45  and  O3_46 
REMARK   13  A    between atoms: C17_48  and  N14_49 
REMARK   14  A    between atoms: C17_48  and  N15_53 
ROOT
HETATM    1  N5  UNL     1      17.727  -5.408  39.274  1.00  0.00    -0.305 N 
HETATM    2  C6  UNL     1      17.707  -5.224  37.942  1.00  0.00     0.187 A 
HETATM    3  N6  UNL     1      18.444  -4.290  37.314  1.00  0.00    -0.336 N 
ATOM      4  H6  UNL     1      18.379  -4.206  36.300  1.00  0.00     0.168 HD
HETATM    5  C7  UNL     1      19.267  -3.459  37.988  1.00  0.00     0.141 A 
HETATM    6  N7  UNL     1      20.098  -2.468  37.674  1.00  0.00    -0.262 N 
ATOM      7  H7  UNL     1      20.257  -2.141  36.720  1.00  0.00     0.190 HD
HETATM    8  N8  UNL     1      20.691  -1.957  38.729  1.00  0.00    -0.066 N 
HETATM    9  C8  UNL     1      21.584  -0.978  38.961  1.00  0.00     0.715 A 
HETATM   10  N11 UNL     1      21.968  -0.742  40.253  1.00  0.00    -0.021 N 
ATOM     11  H11 UNL     1      22.645  -0.001  40.436  1.00  0.00     0.203 HD
HETATM   12  C11 UNL     1      21.489  -1.446  41.285  1.00  0.00     0.692 A 
HETATM   13  N13 UNL     1      20.599  -2.421  41.055  1.00  0.00    -0.173 N 
ATOM     14  H13 UNL     1      20.218  -2.974  41.823  1.00  0.00     0.186 HD
HETATM   15  C12 UNL     1      20.225  -2.650  39.793  1.00  0.00     0.180 A 
HETATM   16  C13 UNL     1      19.312  -3.621  39.360  1.00  0.00     0.124 A 
HETATM   17  C14 UNL     1      18.543  -4.588  39.975  1.00  0.00     0.266 A 
HETATM   18  O1  UNL     1      18.592  -4.724  41.212  1.00  0.00    -0.267 OA
ENDROOT
BRANCH   1  19
HETATM   19  C5  UNL     1      16.912  -6.426  39.872  1.00  0.00     0.186 C 
BRANCH  19  20
HETATM   20  C4  UNL     1      15.844  -6.954  38.957  1.00  0.00     0.240 C 
HETATM   21  N4  UNL     1      14.506  -6.701  39.453  1.00  0.00    -0.352 N 
HETATM   22  C3  UNL     1      13.554  -7.101  38.676  1.00  0.00     0.116 C 
ATOM     23  H4  UNL     1      14.328  -6.242  40.347  1.00  0.00     0.163 HD
HETATM   24  C2  UNL     1      13.968  -7.753  37.406  1.00  0.00     0.178 C 
HETATM   25  N3  UNL     1      12.178  -6.930  39.012  1.00  0.00    -0.086 NA
HETATM   26  C15 UNL     1      15.206  -8.579  37.554  1.00  0.00     0.177 C 
HETATM   27  O2  UNL     1      15.948  -8.297  38.699  1.00  0.00    -0.355 OA
BRANCH  24  28
HETATM   28  N2  UNL     1      12.850  -8.503  36.842  1.00  0.00    -0.363 N 
ATOM     29  H2  UNL     1      12.558  -9.357  37.315  1.00  0.00     0.161 HD
BRANCH  28  30
HETATM   30  C1  UNL     1      12.155  -8.116  35.686  1.00  0.00     0.130 C 
HETATM   31  N1  UNL     1      11.443  -7.049  35.699  1.00  0.00    -0.386 N 
ATOM     32  H12 UNL     1      11.395  -6.498  36.556  1.00  0.00     0.157 HD
ATOM     33  H11 UNL     1      10.937  -6.769  34.858  1.00  0.00     0.157 HD
BRANCH  30  34
HETATM   34  C17 UNL     1      12.224  -8.915  34.444  1.00  0.00     0.443 C 
BRANCH  34  35
HETATM   35  N14 UNL     1      13.549  -8.886  33.852  1.00  0.00    -0.043 N 
ATOM     36 3H14 UNL     1      13.501  -8.928  32.835  1.00  0.00     0.277 HD
ATOM     37 2H14 UNL     1      13.980  -7.967  33.955  1.00  0.00     0.277 HD
ATOM     38 1H14 UNL     1      14.151  -9.620  34.226  1.00  0.00     0.277 HD
ENDBRANCH  34  35
BRANCH  34  39
HETATM   39  N15 UNL     1      11.303  -8.432  33.432  1.00  0.00    -0.043 N 
ATOM     40 3H15 UNL     1      11.073  -9.165  32.761  1.00  0.00     0.277 HD
ATOM     41 2H15 UNL     1      10.374  -8.274  33.823  1.00  0.00     0.277 HD
ATOM     42 1H15 UNL     1      11.653  -7.597  32.962  1.00  0.00     0.277 HD
ENDBRANCH  34  39
ENDBRANCH  30  34
ENDBRANCH  28  30
ENDBRANCH  24  28
BRANCH  26  43
HETATM   43  C16 UNL     1      16.171  -8.370  36.378  1.00  0.00     0.198 C 
BRANCH  43  44
HETATM   44  O3  UNL     1      15.599  -7.474  35.475  1.00  0.00    -0.398 OA
ATOM     45  H3  UNL     1      15.182  -6.771  35.959  1.00  0.00     0.209 HD
ENDBRANCH  43  44
ENDBRANCH  26  43
ENDBRANCH  19  20
ENDBRANCH   1  19
BRANCH   9  46
HETATM   46  N9  UNL     1      22.078  -0.275  38.039  1.00  0.00    -0.222 N 
ATOM     47  H9  UNL     1      22.494  -0.746  37.237  1.00  0.00     0.177 HD
BRANCH  46  48
HETATM   48  C9  UNL     1      22.081   1.156  38.068  1.00  0.00     0.165 C 
BRANCH  48  49
HETATM   49  C10 UNL     1      20.664   1.682  38.298  1.00  0.00     0.249 C 
BRANCH  49  50
HETATM   50  N10 UNL     1      19.791   1.315  37.205  1.00  0.00    -0.078 N 
ATOM     51 3H10 UNL     1      19.188   2.090  36.931  1.00  0.00     0.274 HD
ATOM     52 2H10 UNL     1      20.308   1.204  36.332  1.00  0.00     0.274 HD
ATOM     53 1H10 UNL     1      19.252   0.480  37.432  1.00  0.00     0.274 HD
ENDBRANCH  49  50
ENDBRANCH  48  49
ENDBRANCH  46  48
ENDBRANCH   9  46
BRANCH  12  54
HETATM   54  N12 UNL     1      21.854  -1.220  42.516  1.00  0.00    -0.234 N 
ATOM     55 2H12 UNL     1      21.169  -0.822  43.159  1.00  0.00     0.174 HD
ATOM     56 1H12 UNL     1      22.793  -1.427  42.856  1.00  0.00     0.174 HD
ENDBRANCH  12  54
TORSDOF 14
ENDMDL
MODEL 3
REMARK VINA RESULT: -5.957909533      1.718      2.120
REMARK  14 active torsions:
REMARK  status: ('A' for Active; 'I' for Inactive)
REMARK    1  A    between atoms: C1_4  and  N2_5 
REMARK    2  A    between atoms: C1_4  and  C17_48 
REMARK    3  A    between atoms: N2_5  and  C2_7 
REMARK    4  A    between atoms: C4_12  and  C5_13 
REMARK    5  A    between atoms: C5_13  and  N5_14 
REMARK    6  A    between atoms: C8_22  and  N9_23 
REMARK    7  A    between atoms: N9_23  and  C9_25 
REMARK    8  A    between atoms: C9_25  and  C10_26 
REMARK    9  A    between atoms: C10_26  and  N10_27 
REMARK   10  A    between atoms: C11_33  and  N12_34 
REMARK   11  A    between atoms: C15_44  and  C16_45 
REMARK   12  A    between atoms: C16_45  and  O3_46 
REMARK   13  A    between atoms: C17_48  and  N14_49 
REMARK   14  A    between atoms: C17_48  and  N15_53 
ROOT
HETATM    1  N5  UNL     1      17.815  -5.592  39.126  1.00  0.00    -0.305 N 
HETATM    2  C6  UNL     1      17.687  -5.300  37.820  1.00  0.00     0.187 A 
HETATM    3  N6  UNL     1      18.365  -4.306  37.217  1.00  0.00    -0.336 N 
ATOM      4  H6  UNL     1      18.218  -4.139  36.221  1.00  0.00     0.168 HD
HETATM    5  C7  UNL     1      19.233  -3.522  37.891  1.00  0.00     0.141 A 
HETATM    6  N7  UNL     1      20.029  -2.496  37.595  1.00  0.00    -0.262 N 
ATOM      7  H7  UNL     1      20.108  -2.090  36.662  1.00  0.00     0.190 HD
HETATM    8  N8  UNL     1      20.700  -2.066  38.639  1.00  0.00    -0.066 N 
HETATM    9  C8  UNL     1      21.601  -1.097  38.882  1.00  0.00     0.715 A 
HETATM   10  N11 UNL     1      22.085  -0.963  40.154  1.00  0.00    -0.021 N 
ATOM     11  H11 UNL     1      22.769  -0.231  40.344  1.00  0.00     0.203 HD
HETATM   12  C11 UNL     1      21.695  -1.757  41.158  1.00  0.00     0.692 A 
HETATM   13  N13 UNL     1      20.798  -2.723  40.919  1.00  0.00    -0.173 N 
ATOM     14  H13 UNL     1      20.483  -3.342  41.666  1.00  0.00     0.186 HD
HETATM   15  C12 UNL     1      20.325  -2.852  39.675  1.00  0.00     0.180 A 
HETATM   16  C13 UNL     1      19.388  -3.797  39.236  1.00  0.00     0.124 A 
HETATM   17  C14 UNL     1      18.679  -4.822  39.826  1.00  0.00     0.266 A 
HETATM   18  O1  UNL     1      18.828  -5.059  41.040  1.00  0.00    -0.267 OA
ENDROOT
BRANCH   1  19
HETATM   19  C5  UNL     1      17.059  -6.668  39.699  1.00  0.00     0.186 C 
BRANCH  19  20
HETATM   20  C4  UNL     1      15.730  -6.890  39.033  1.00  0.00     0.240 C 
HETATM   21  N4  UNL     1      14.617  -6.777  39.953  1.00  0.00    -0.352 N 
HETATM   22  C3  UNL     1      13.450  -6.919  39.413  1.00  0.00     0.116 C 
ATOM     23  H4  UNL     1      14.742  -6.600  40.950  1.00  0.00     0.163 HD
HETATM   24  C2  UNL     1      13.426  -7.172  37.949  1.00  0.00     0.178 C 
HETATM   25  N3  UNL     1      12.247  -6.837  40.176  1.00  0.00    -0.086 NA
HETATM   26  C15 UNL     1      14.569  -8.020  37.488  1.00  0.00     0.177 C 
HETATM   27  O2  UNL     1      15.625  -8.098  38.393  1.00  0.00    -0.355 OA
BRANCH  24  28
HETATM   28  N2  UNL     1      12.128  -7.708  37.556  1.00  0.00    -0.363 N 
ATOM     29  H2  UNL     1      11.801  -8.559  38.014  1.00  0.00     0.161 HD
BRANCH  28  30
HETATM   30  C1  UNL     1      11.302  -7.121  36.585  1.00  0.00     0.130 C 
HETATM   31  N1  UNL     1      11.481  -7.400  35.345  1.00  0.00    -0.386 N 
ATOM     32  H12 UNL     1      12.226  -8.047  35.087  1.00  0.00     0.157 HD
ATOM     33  H11 UNL     1      10.881  -6.972  34.640  1.00  0.00     0.157 HD
BRANCH  30  34
HETATM   34  C17 UNL     1      10.223  -6.183  36.959  1.00  0.00     0.443 C 
BRANCH  34  35
HETATM   35  N14 UNL     1       9.665  -6.489  38.264  1.00  0.00    -0.043 N 
ATOM     36 3H14 UNL     1       9.608  -7.495  38.415  1.00  0.00     0.277 HD
ATOM     37 2H14 UNL     1      10.318  -6.250  39.010  1.00  0.00     0.277 HD
ATOM     38 1H14 UNL     1       8.760  -6.040  38.406  1.00  0.00     0.277 HD
ENDBRANCH  34  35
BRANCH  34  39
HETATM   39  N15 UNL     1       9.121  -6.214  36.014  1.00  0.00    -0.043 N 
ATOM     40 3H15 UNL     1       9.344  -6.793  35.205  1.00  0.00     0.277 HD
ATOM     41 2H15 UNL     1       8.333  -6.748  36.383  1.00  0.00     0.277 HD
ATOM     42 1H15 UNL     1       8.833  -5.278  35.730  1.00  0.00     0.277 HD
ENDBRANCH  34  39
ENDBRANCH  30  34
ENDBRANCH  28  30
ENDBRANCH  24  28
BRANCH  26  43
HETATM   43  C16 UNL     1      15.182  -7.486  36.186  1.00  0.00     0.198 C 
BRANCH  43  44
HETATM   44  O3  UNL     1      14.524  -6.311  35.822  1.00  0.00    -0.398 OA
ATOM     45  H3  UNL     1      14.526  -5.714  36.561  1.00  0.00     0.209 HD
ENDBRANCH  43  44
ENDBRANCH  26  43
ENDBRANCH  19  20
ENDBRANCH   1  19
BRANCH   9  46
HETATM   46  N9  UNL     1      22.014  -0.313  37.985  1.00  0.00    -0.222 N 
ATOM     47  H9  UNL     1      22.293  -0.704  37.086  1.00  0.00     0.177 HD
BRANCH  46  48
HETATM   48  C9  UNL     1      22.109   1.102  38.173  1.00  0.00     0.165 C 
BRANCH  48  49
HETATM   49  C10 UNL     1      20.714   1.710  38.325  1.00  0.00     0.249 C 
BRANCH  49  50
HETATM   50  N10 UNL     1      19.861   1.329  37.222  1.00  0.00    -0.078 N 
ATOM     51 3H10 UNL     1      19.142   0.667  37.514  1.00  0.00     0.274 HD
ATOM     52 2H10 UNL     1      19.256   2.097  36.931  1.00  0.00     0.274 HD
ATOM     53 1H10 UNL     1      20.410   0.968  36.442  1.00  0.00     0.274 HD
ENDBRANCH  49  50
ENDBRANCH  48  49
ENDBRANCH  46  48
ENDBRANCH   9  46
BRANCH  12  54
HETATM   54  N12 UNL     1      22.156  -1.629  42.371  1.00  0.00    -0.234 N 
ATOM     55 2H12 UNL     1      22.911  -0.963  42.534  1.00  0.00     0.174 HD
ATOM     56 1H12 UNL     1      21.790  -2.168  43.156  1.00  0.00     0.174 HD
ENDBRANCH  12  54
TORSDOF 14
ENDMDL
MODEL 4
REMARK VINA RESULT: -5.940775268      1.572      2.775
REMARK  14 active torsions:
REMARK  status: ('A' for Active; 'I' for Inactive)
REMARK    1  A    between atoms: C1_4  and  N2_5 
REMARK    2  A    between atoms: C1_4  and  C17_48 
REMARK    3  A    between atoms: N2_5  and  C2_7 
REMARK    4  A    between atoms: C4_12  and  C5_13 
REMARK    5  A    between atoms: C5_13  and  N5_14 
REMARK    6  A    between atoms: C8_22  and  N9_23 
REMARK    7  A    between atoms: N9_23  and  C9_25 
REMARK    8  A    between atoms: C9_25  and  C10_26 
REMARK    9  A    between atoms: C10_26  and  N10_27 
REMARK   10  A    between atoms: C11_33  and  N12_34 
REMARK   11  A    between atoms: C15_44  and  C16_45 
REMARK   12  A    between atoms: C16_45  and  O3_46 
REMARK   13  A    between atoms: C17_48  and  N14_49 
REMARK   14  A    between atoms: C17_48  and  N15_53 
ROOT
HETATM    1  N5  UNL     1      16.692  -6.927  39.282  1.00  0.00    -0.305 N 
HETATM    2  C6  UNL     1      16.640  -6.359  40.500  1.00  0.00     0.187 A 
HETATM    3  N6  UNL     1      17.325  -5.247  40.825  1.00  0.00    -0.336 N 
ATOM      4  H6  UNL     1      17.238  -4.871  41.769  1.00  0.00     0.168 HD
HETATM    5  C7  UNL     1      18.124  -4.616  39.939  1.00  0.00     0.141 A 
HETATM    6  N7  UNL     1      18.904  -3.537  39.949  1.00  0.00    -0.262 N 
ATOM      7  H7  UNL     1      19.030  -2.935  40.763  1.00  0.00     0.190 HD
HETATM    8  N8  UNL     1      19.495  -3.336  38.792  1.00  0.00    -0.066 N 
HETATM    9  C8  UNL     1      20.349  -2.430  38.285  1.00  0.00     0.715 A 
HETATM   10  N11 UNL     1      20.746  -2.570  36.983  1.00  0.00    -0.021 N 
ATOM     11  H11 UNL     1      21.394  -1.885  36.591  1.00  0.00     0.203 HD
HETATM   12  C11 UNL     1      20.317  -3.569  36.204  1.00  0.00     0.692 A 
HETATM   13  N13 UNL     1      19.466  -4.472  36.708  1.00  0.00    -0.173 N 
ATOM     14  H13 UNL     1      19.122  -5.244  36.137  1.00  0.00     0.186 HD
HETATM   15  C12 UNL     1      19.079  -4.335  37.981  1.00  0.00     0.180 A 
HETATM   16  C13 UNL     1      18.200  -5.175  38.677  1.00  0.00     0.124 A 
HETATM   17  C14 UNL     1      17.487  -6.316  38.374  1.00  0.00     0.266 A 
HETATM   18  O1  UNL     1      17.564  -6.809  37.233  1.00  0.00    -0.267 OA
ENDROOT
BRANCH   1  19
HETATM   19  C5  UNL     1      15.933  -8.113  39.009  1.00  0.00     0.186 C 
BRANCH  19  20
HETATM   20  C4  UNL     1      14.828  -7.904  38.013  1.00  0.00     0.240 C 
HETATM   21  N4  UNL     1      13.640  -7.326  38.608  1.00  0.00    -0.352 N 
HETATM   22  C3  UNL     1      12.678  -7.089  37.777  1.00  0.00     0.116 C 
ATOM     23  H4  UNL     1      13.567  -7.122  39.605  1.00  0.00     0.163 HD
HETATM   24  C2  UNL     1      12.931  -7.438  36.355  1.00  0.00     0.178 C 
HETATM   25  N3  UNL     1      11.437  -6.521  38.197  1.00  0.00    -0.086 NA
HETATM   26  C15 UNL     1      13.762  -8.672  36.200  1.00  0.00     0.177 C 
HETATM   27  O2  UNL     1      14.454  -9.044  37.351  1.00  0.00    -0.355 OA
BRANCH  24  28
HETATM   28  N2  UNL     1      11.670  -7.509  35.626  1.00  0.00    -0.363 N 
ATOM     29  H2  UNL     1      11.292  -6.645  35.236  1.00  0.00     0.161 HD
BRANCH  28  30
HETATM   30  C1  UNL     1      10.946  -8.694  35.430  1.00  0.00     0.130 C 
HETATM   31  N1  UNL     1      10.327  -9.232  36.417  1.00  0.00    -0.386 N 
ATOM     32  H12 UNL     1      10.373  -8.785  37.332  1.00  0.00     0.157 HD
ATOM     33  H11 UNL     1       9.801 -10.095  36.274  1.00  0.00     0.157 HD
BRANCH  30  34
HETATM   34  C17 UNL     1      10.878  -9.343  34.104  1.00  0.00     0.443 C 
BRANCH  34  35
HETATM   35  N14 UNL     1      11.655 -10.568  34.058  1.00  0.00    -0.043 N 
ATOM     36 3H14 UNL     1      12.598 -10.396  33.709  1.00  0.00     0.277 HD
ATOM     37 2H14 UNL     1      11.888 -10.894  34.997  1.00  0.00     0.277 HD
ATOM     38 1H14 UNL     1      11.188 -11.297  33.519  1.00  0.00     0.277 HD
ENDBRANCH  34  35
BRANCH  34  39
HETATM   39  N15 UNL     1      11.388  -8.485  33.050  1.00  0.00    -0.043 N 
ATOM     40 3H15 UNL     1      11.716  -9.032  32.254  1.00  0.00     0.277 HD
ATOM     41 2H15 UNL     1      10.633  -7.972  32.593  1.00  0.00     0.277 HD
ATOM     42 1H15 UNL     1      12.113  -7.853  33.387  1.00  0.00     0.277 HD
ENDBRANCH  34  39
ENDBRANCH  30  34
ENDBRANCH  28  30
ENDBRANCH  24  28
BRANCH  26  43
HETATM   43  C16 UNL     1      14.833  -8.501  35.114  1.00  0.00     0.198 C 
BRANCH  43  44
HETATM   44  O3  UNL     1      14.258  -8.742  33.867  1.00  0.00    -0.398 OA
ATOM     45  H3  UNL     1      14.949  -8.862  33.225  1.00  0.00     0.209 HD
ENDBRANCH  43  44
ENDBRANCH  26  43
ENDBRANCH  19  20
ENDBRANCH   1  19
BRANCH   9  46
HETATM   46  N9  UNL     1      20.796  -1.462  38.959  1.00  0.00    -0.222 N 
ATOM     47  H9  UNL     1      20.505  -1.372  39.932  1.00  0.00     0.177 HD
BRANCH  46  48
HETATM   48  C9  UNL     1      21.691  -0.486  38.419  1.00  0.00     0.165 C 
BRANCH  48  49
HETATM   49  C10 UNL     1      21.093   0.914  38.562  1.00  0.00     0.249 C 
BRANCH  49  50
HETATM   50  N10 UNL     1      20.144   1.182  37.505  1.00  0.00    -0.078 N 
ATOM     51 3H10 UNL     1      19.643   0.339  37.228  1.00  0.00     0.274 HD
ATOM     52 2H10 UNL     1      19.351   1.731  37.841  1.00  0.00     0.274 HD
ATOM     53 1H10 UNL     1      20.598   1.629  36.709  1.00  0.00     0.274 HD
ENDBRANCH  49  50
ENDBRANCH  48  49
ENDBRANCH  46  48
ENDBRANCH   9  46
BRANCH  12  54
HETATM   54  N12 UNL     1      20.696  -3.703  34.964  1.00  0.00    -0.234 N 
ATOM     55 2H12 UNL     1      21.524  -3.194  34.653  1.00  0.00     0.174 HD
ATOM     56 1H12 UNL     1      20.196  -4.293  34.298  1.00  0.00     0.174 HD
ENDBRANCH  12  54
TORSDOF 14
ENDMDL
MODEL 5
REMARK VINA RESULT: -5.922498457      1.818      3.152
REMARK  14 active torsions:
REMARK  status: ('A' for Active; 'I' for Inactive)
REMARK    1  A    between atoms: C1_4  and  N2_5 
REMARK    2  A    between atoms: C1_4  and  C17_48 
REMARK    3  A    between atoms: N2_5  and  C2_7 
REMARK    4  A    between atoms: C4_12  and  C5_13 
REMARK    5  A    between atoms: C5_13  and  N5_14 
REMARK    6  A    between atoms: C8_22  and  N9_23 
REMARK    7  A    between atoms: N9_23  and  C9_25 
REMARK    8  A    between atoms: C9_25  and  C10_26 
REMARK    9  A    between atoms: C10_26  and  N10_27 
REMARK   10  A    between atoms: C11_33  and  N12_34 
REMARK   11  A    between atoms: C15_44  and  C16_45 
REMARK   12  A    between atoms: C16_45  and  O3_46 
REMARK   13  A    between atoms: C17_48  and  N14_49 
REMARK   14  A    between atoms: C17_48  and  N15_53 
ROOT
HETATM    1  N5  UNL     1      17.178  -7.344  37.466  1.00  0.00    -0.305 N 
HETATM    2  C6  UNL     1      16.770  -6.869  38.657  1.00  0.00     0.187 A 
HETATM    3  N6  UNL     1      17.279  -5.760  39.222  1.00  0.00    -0.336 N 
ATOM      4  H6  UNL     1      16.923  -5.457  40.129  1.00  0.00     0.168 HD
HETATM    5  C7  UNL     1      18.249  -5.035  38.625  1.00  0.00     0.141 A 
HETATM    6  N7  UNL     1      18.937  -3.931  38.912  1.00  0.00    -0.262 N 
ATOM      7  H7  UNL     1      18.806  -3.386  39.765  1.00  0.00     0.190 HD
HETATM    8  N8  UNL     1      19.802  -3.623  37.973  1.00  0.00    -0.066 N 
HETATM    9  C8  UNL     1      20.709  -2.650  37.771  1.00  0.00     0.715 A 
HETATM   10  N11 UNL     1      21.446  -2.678  36.619  1.00  0.00    -0.021 N 
ATOM     11  H11 UNL     1      22.136  -1.942  36.460  1.00  0.00     0.203 HD
HETATM   12  C11 UNL     1      21.298  -3.632  35.694  1.00  0.00     0.692 A 
HETATM   13  N13 UNL     1      20.395  -4.602  35.893  1.00  0.00    -0.173 N 
ATOM     14  H13 UNL     1      20.261  -5.342  35.204  1.00  0.00     0.186 HD
HETATM   15  C12 UNL     1      19.676  -4.574  37.019  1.00  0.00     0.180 A 
HETATM   16  C13 UNL     1      18.691  -5.496  37.399  1.00  0.00     0.124 A 
HETATM   17  C14 UNL     1      18.150  -6.637  36.846  1.00  0.00     0.266 A 
HETATM   18  O1  UNL     1      18.557  -7.042  35.741  1.00  0.00    -0.267 OA
ENDROOT
BRANCH   1  19
HETATM   19  C5  UNL     1      16.587  -8.534  36.927  1.00  0.00     0.186 C 
BRANCH  19  20
HETATM   20  C4  UNL     1      15.149  -8.363  36.524  1.00  0.00     0.240 C 
HETATM   21  N4  UNL     1      14.853  -8.961  35.237  1.00  0.00    -0.352 N 
HETATM   22  C3  UNL     1      13.616  -8.874  34.871  1.00  0.00     0.116 C 
ATOM     23  H4  UNL     1      15.565  -9.415  34.665  1.00  0.00     0.163 HD
HETATM   24  C2  UNL     1      12.695  -8.183  35.811  1.00  0.00     0.178 C 
HETATM   25  N3  UNL     1      13.154  -9.410  33.632  1.00  0.00    -0.086 NA
HETATM   26  C15 UNL     1      13.344  -7.039  36.523  1.00  0.00     0.177 C 
HETATM   27  O2  UNL     1      14.736  -7.056  36.484  1.00  0.00    -0.355 OA
BRANCH  24  28
HETATM   28  N2  UNL     1      11.470  -7.800  35.118  1.00  0.00    -0.363 N 
ATOM     29  H2  UNL     1      11.519  -7.038  34.442  1.00  0.00     0.161 HD
BRANCH  28  30
HETATM   30  C1  UNL     1      10.228  -8.418  35.328  1.00  0.00     0.130 C 
HETATM   31  N1  UNL     1       9.869  -8.734  36.519  1.00  0.00    -0.386 N 
ATOM     32  H12 UNL     1      10.497  -8.529  37.296  1.00  0.00     0.157 HD
ATOM     33  H11 UNL     1       8.966  -9.184  36.671  1.00  0.00     0.157 HD
BRANCH  30  34
HETATM   34  C17 UNL     1       9.317  -8.715  34.203  1.00  0.00     0.443 C 
BRANCH  34  35
HETATM   35  N14 UNL     1      10.017  -8.746  32.932  1.00  0.00    -0.043 N 
ATOM     36 3H14 UNL     1      10.475  -7.856  32.740  1.00  0.00     0.277 HD
ATOM     37 2H14 UNL     1      10.841  -9.345  32.978  1.00  0.00     0.277 HD
ATOM     38 1H14 UNL     1       9.402  -9.019  32.165  1.00  0.00     0.277 HD
ENDBRANCH  34  35
BRANCH  34  39
HETATM   39  N15 UNL     1       8.264  -7.724  34.078  1.00  0.00    -0.043 N 
ATOM     40 3H15 UNL     1       7.389  -8.151  33.774  1.00  0.00     0.277 HD
ATOM     41 2H15 UNL     1       7.967  -7.381  34.992  1.00  0.00     0.277 HD
ATOM     42 1H15 UNL     1       8.532  -6.955  33.463  1.00  0.00     0.277 HD
ENDBRANCH  34  39
ENDBRANCH  30  34
ENDBRANCH  28  30
ENDBRANCH  24  28
BRANCH  26  43
HETATM   43  C16 UNL     1      12.974  -7.016  38.013  1.00  0.00     0.198 C 
BRANCH  43  44
HETATM   44  O3  UNL     1      13.550  -5.893  38.607  1.00  0.00    -0.398 OA
ATOM     45  H3  UNL     1      14.478  -6.050  38.731  1.00  0.00     0.209 HD
ENDBRANCH  43  44
ENDBRANCH  26  43
ENDBRANCH  19  20
ENDBRANCH   1  19
BRANCH   9  46
HETATM   46  N9  UNL     1      20.903  -1.718  38.598  1.00  0.00    -0.222 N 
ATOM     47  H9  UNL     1      20.424  -1.757  39.497  1.00  0.00     0.177 HD
BRANCH  46  48
HETATM   48  C9  UNL     1      21.768  -0.610  38.333  1.00  0.00     0.165 C 
BRANCH  48  49
HETATM   49  C10 UNL     1      21.065   0.703  38.683  1.00  0.00     0.249 C 
BRANCH  49  50
HETATM   50  N10 UNL     1      20.274   1.179  37.570  1.00  0.00    -0.078 N 
ATOM     51 3H10 UNL     1      20.849   1.348  36.745  1.00  0.00     0.274 HD
ATOM     52 2H10 UNL     1      19.673   0.446  37.194  1.00  0.00     0.274 HD
ATOM     53 1H10 UNL     1      19.738   2.007  37.831  1.00  0.00     0.274 HD
ENDBRANCH  49  50
ENDBRANCH  48  49
ENDBRANCH  46  48
ENDBRANCH   9  46
BRANCH  12  54
HETATM   54  N12 UNL     1      22.001  -3.659  34.596  1.00  0.00    -0.234 N 
ATOM     55 2H12 UNL     1      22.772  -2.999  34.499  1.00  0.00     0.174 HD
ATOM     56 1H12 UNL     1      21.808  -4.313  33.837  1.00  0.00     0.174 HD
ENDBRANCH  12  54
TORSDOF 14
ENDMDL
