MODEL 1
REMARK VINA RESULT: -5.655950220      0.000      0.000
REMARK  12 active torsions:
REMARK  status: ('A' for Active; 'I' for Inactive)
REMARK    1  A    between atoms: N1_2  and  C3_4 
REMARK    2  A    between atoms: C4_5  and  O1_6 
REMARK    3  A    between atoms: C5_8  and  O2_9 
REMARK    4  A    between atoms: C6_11  and  N2_12 
REMARK    5  A    between atoms: C7_13  and  N3_14 
REMARK    6  A    between atoms: N3_14  and  N4_15 
REMARK       I    between atoms: N4_15  and  C8_17 
REMARK    7  A    between atoms: N6_20  and  N7_21 
REMARK    8  A    between atoms: N7_21  and  C9_23 
REMARK    9  A    between atoms: N8_24  and  N9_26 
REMARK   10  A    between atoms: C12_34  and  N11_35 
REMARK   11  A    between atoms: C14_42  and  O6_43 
REMARK   12  A    between atoms: C14_42  and  C15_45 
ROOT
HETATM    1  N2  UNL     1      20.222  -2.975  38.520  1.00  0.00    -0.257 N 
HETATM    2  C7  UNL     1      19.183  -3.677  39.051  1.00  0.00     0.309 A 
HETATM    3  N6  UNL     1      18.761  -4.616  38.121  1.00  0.00    -0.201 N 
HETATM    4  C10 UNL     1      19.550  -4.487  37.062  1.00  0.00     0.174 A 
HETATM    5  C11 UNL     1      19.677  -5.166  35.859  1.00  0.00     0.292 A 
HETATM    6  O4  UNL     1      18.908  -6.090  35.559  1.00  0.00    -0.265 OA
HETATM    7  N10 UNL     1      20.660  -4.831  34.980  1.00  0.00    -0.154 N 
ATOM      8  H10 UNL     1      20.744  -5.336  34.098  1.00  0.00     0.187 HD
HETATM    9  C12 UNL     1      21.482  -3.885  35.251  1.00  0.00     0.680 A 
HETATM   10  N12 UNL     1      21.437  -3.145  36.417  1.00  0.00    -0.174 N 
ATOM     11  H12 UNL     1      22.104  -2.395  36.600  1.00  0.00     0.186 HD
HETATM   12  C13 UNL     1      20.457  -3.466  37.310  1.00  0.00     0.164 A 
ENDROOT
BRANCH   1  13
HETATM   13  C6  UNL     1      20.919  -1.820  39.111  1.00  0.00     0.269 C 
HETATM   14  C5  UNL     1      22.158  -2.245  39.793  1.00  0.00     0.198 C 
HETATM   15  C4  UNL     1      23.373  -1.455  39.534  1.00  0.00     0.190 C 
HETATM   16  C3  UNL     1      23.176  -0.025  39.069  1.00  0.00     0.326 C 
HETATM   17  C14 UNL     1      21.720   0.297  38.918  1.00  0.00     0.290 C 
HETATM   18  O5  UNL     1      21.085  -0.776  38.273  1.00  0.00    -0.316 OA
BRANCH  14  19
HETATM   19  O2  UNL     1      22.404  -3.636  39.506  1.00  0.00    -0.389 OA
ATOM     20  H2  UNL     1      23.224  -3.908  39.901  1.00  0.00     0.210 HD
ENDBRANCH  14  19
BRANCH  15  21
HETATM   21  O1  UNL     1      24.211  -1.506  40.626  1.00  0.00    -0.390 OA
ATOM     22  H1  UNL     1      25.122  -1.469  40.358  1.00  0.00     0.210 HD
ENDBRANCH  15  21
BRANCH  16  23
HETATM   23  N1  UNL     1      23.923   0.261  37.895  1.00  0.00     0.093 N 
HETATM   24  C1  UNL     1      24.420  -0.835  37.144  1.00  0.00     0.310 C 
HETATM   25  C2  UNL     1      24.944   1.292  38.084  1.00  0.00     0.310 C 
ENDBRANCH  16  23
BRANCH  17  26
HETATM   26  O6  UNL     1      21.115   0.234  40.233  1.00  0.00    -0.355 OA
ATOM     27  H6  UNL     1      21.773   0.497  40.866  1.00  0.00     0.213 HD
ENDBRANCH  17  26
BRANCH  17  28
HETATM   28  C15 UNL     1      21.323   1.530  38.383  1.00  0.00     0.241 C 
HETATM   29  O7  UNL     1      21.550   2.726  38.475  1.00  0.00    -0.644 OA
HETATM   30  O8  UNL     1      20.261   1.362  37.316  1.00  0.00    -0.644 OA
ENDBRANCH  17  28
ENDBRANCH   1  13
BRANCH   2  31
HETATM   31  N3  UNL     1      18.784  -3.557  40.181  1.00  0.00    -0.281 NA
BRANCH  31  32
HETATM   32  N4  UNL     1      18.091  -3.241  41.215  1.00  0.00    -0.183 N 
HETATM   33  C8  UNL     1      18.507  -2.286  42.232  1.00  0.00     0.357 C 
HETATM   34  N5  UNL     1      17.709  -1.903  43.334  1.00  0.00    -0.038 NA
HETATM   35  O3  UNL     1      19.652  -1.760  42.124  1.00  0.00    -0.248 OA
ATOM     36  H4  UNL     1      17.184  -3.693  41.332  1.00  0.00     0.206 HD
ENDBRANCH  31  32
ENDBRANCH   2  31
BRANCH   3  37
HETATM   37  N7  UNL     1      17.655  -5.429  38.353  1.00  0.00    -0.284 N 
ATOM     38  H7  UNL     1      16.796  -4.912  38.536  1.00  0.00     0.188 HD
BRANCH  37  39
HETATM   39  C9  UNL     1      17.499  -6.792  38.385  1.00  0.00     0.214 C 
HETATM   40  N8  UNL     1      16.795  -7.402  37.467  1.00  0.00    -0.301 N 
ATOM     41  H8  UNL     1      16.677  -8.414  37.477  1.00  0.00     0.187 HD
BRANCH  40  42
HETATM   42  N9  UNL     1      16.211  -6.611  36.470  1.00  0.00    -0.344 N 
ATOM     43  H92 UNL     1      16.323  -5.597  36.485  1.00  0.00     0.176 HD
ATOM     44  H91 UNL     1      15.678  -7.089  35.743  1.00  0.00     0.176 HD
ENDBRANCH  40  42
ENDBRANCH  37  39
ENDBRANCH   3  37
BRANCH   9  45
HETATM   45  N11 UNL     1      22.440  -3.629  34.368  1.00  0.00    -0.234 N 
ATOM     46 2H11 UNL     1      22.180  -3.257  33.454  1.00  0.00     0.174 HD
ATOM     47 1H11 UNL     1      23.405  -3.798  34.653  1.00  0.00     0.174 HD
ENDBRANCH   9  45
TORSDOF 12
ENDMDL
MODEL 2
REMARK VINA RESULT: -5.534736302      7.076     10.950
REMARK  12 active torsions:
REMARK  status: ('A' for Active; 'I' for Inactive)
REMARK    1  A    between atoms: N1_2  and  C3_4 
REMARK    2  A    between atoms: C4_5  and  O1_6 
REMARK    3  A    between atoms: C5_8  and  O2_9 
REMARK    4  A    between atoms: C6_11  and  N2_12 
REMARK    5  A    between atoms: C7_13  and  N3_14 
REMARK    6  A    between atoms: N3_14  and  N4_15 
REMARK       I    between atoms: N4_15  and  C8_17 
REMARK    7  A    between atoms: N6_20  and  N7_21 
REMARK    8  A    between atoms: N7_21  and  C9_23 
REMARK    9  A    between atoms: N8_24  and  N9_26 
REMARK   10  A    between atoms: C12_34  and  N11_35 
REMARK   11  A    between atoms: C14_42  and  O6_43 
REMARK   12  A    between atoms: C14_42  and  C15_45 
ROOT
HETATM    1  N2  UNL     1      13.946  -9.779  34.605  1.00  0.00    -0.257 N 
HETATM    2  C7  UNL     1      13.132 -10.001  33.536  1.00  0.00     0.309 A 
HETATM    3  N6  UNL     1      13.407 -11.261  33.024  1.00  0.00    -0.201 N 
HETATM    4  C10 UNL     1      14.355 -11.786  33.788  1.00  0.00     0.174 A 
HETATM    5  C11 UNL     1      14.992 -13.018  33.833  1.00  0.00     0.292 A 
HETATM    6  O4  UNL     1      14.750 -13.897  32.994  1.00  0.00    -0.265 OA
HETATM    7  N10 UNL     1      15.899 -13.288  34.812  1.00  0.00    -0.154 N 
ATOM      8  H10 UNL     1      16.362 -14.196  34.835  1.00  0.00     0.187 HD
HETATM    9  C12 UNL     1      16.175 -12.410  35.704  1.00  0.00     0.680 A 
HETATM   10  N12 UNL     1      15.601 -11.154  35.744  1.00  0.00    -0.174 N 
ATOM     11  H12 UNL     1      15.847 -10.477  36.467  1.00  0.00     0.186 HD
HETATM   12  C13 UNL     1      14.690 -10.864  34.771  1.00  0.00     0.164 A 
ENDROOT
BRANCH   1  13
HETATM   13  C6  UNL     1      14.070  -8.544  35.397  1.00  0.00     0.269 C 
HETATM   14  C5  UNL     1      13.050  -8.497  36.464  1.00  0.00     0.198 C 
HETATM   15  C4  UNL     1      13.501  -8.104  37.809  1.00  0.00     0.190 C 
HETATM   16  C3  UNL     1      14.773  -7.283  37.894  1.00  0.00     0.326 C 
HETATM   17  C14 UNL     1      15.365  -7.064  36.535  1.00  0.00     0.290 C 
HETATM   18  O5  UNL     1      15.321  -8.274  35.824  1.00  0.00    -0.316 OA
BRANCH  14  19
HETATM   19  O2  UNL     1      12.367  -9.765  36.523  1.00  0.00    -0.389 OA
ATOM     20  H2  UNL     1      12.540 -10.263  35.733  1.00  0.00     0.210 HD
ENDBRANCH  14  19
BRANCH  15  21
HETATM   21  O1  UNL     1      12.473  -7.491  38.492  1.00  0.00    -0.390 OA
ATOM     22  H1  UNL     1      11.679  -8.011  38.449  1.00  0.00     0.210 HD
ENDBRANCH  15  21
BRANCH  16  23
HETATM   23  N1  UNL     1      15.704  -7.838  38.812  1.00  0.00     0.093 N 
HETATM   24  C1  UNL     1      15.634  -9.232  39.064  1.00  0.00     0.310 C 
HETATM   25  C2  UNL     1      15.834  -7.073  40.053  1.00  0.00     0.310 C 
ENDBRANCH  16  23
BRANCH  17  26
HETATM   26  O6  UNL     1      14.435  -6.254  35.774  1.00  0.00    -0.355 OA
ATOM     27  H6  UNL     1      14.569  -5.348  36.025  1.00  0.00     0.213 HD
ENDBRANCH  17  26
BRANCH  17  28
HETATM   28  C15 UNL     1      16.608  -6.431  36.401  1.00  0.00     0.241 C 
HETATM   29  O7  UNL     1      17.677  -6.543  35.822  1.00  0.00    -0.644 OA
HETATM   30  O8  UNL     1      16.686  -5.169  37.234  1.00  0.00    -0.644 OA
ENDBRANCH  17  28
ENDBRANCH   1  13
BRANCH   2  31
HETATM   31  N3  UNL     1      12.255  -9.256  33.179  1.00  0.00    -0.281 NA
BRANCH  31  32
HETATM   32  N4  UNL     1      11.171  -8.572  33.115  1.00  0.00    -0.183 N 
HETATM   33  C8  UNL     1       9.976  -8.837  33.905  1.00  0.00     0.357 C 
HETATM   34  N5  UNL     1       8.809  -8.040  33.868  1.00  0.00    -0.038 NA
HETATM   35  O3  UNL     1       9.980  -9.839  34.676  1.00  0.00    -0.248 OA
ATOM     36  H4  UNL     1      11.144  -7.787  32.464  1.00  0.00     0.206 HD
ENDBRANCH  31  32
ENDBRANCH   2  31
BRANCH   3  37
HETATM   37  N7  UNL     1      12.784 -11.732  31.871  1.00  0.00    -0.284 N 
ATOM     38  H7  UNL     1      13.040 -11.222  31.027  1.00  0.00     0.188 HD
BRANCH  37  39
HETATM   39  C9  UNL     1      11.890 -12.751  31.654  1.00  0.00     0.214 C 
HETATM   40  N8  UNL     1      12.242 -13.807  30.968  1.00  0.00    -0.301 N 
ATOM     41  H8  UNL     1      11.589 -14.573  30.804  1.00  0.00     0.187 HD
BRANCH  40  42
HETATM   42  N9  UNL     1      13.549 -13.848  30.468  1.00  0.00    -0.344 N 
ATOM     43  H92 UNL     1      14.329 -14.079  31.084  1.00  0.00     0.176 HD
ATOM     44  H91 UNL     1      13.682 -13.640  29.479  1.00  0.00     0.176 HD
ENDBRANCH  40  42
ENDBRANCH  37  39
ENDBRANCH   3  37
BRANCH   9  45
HETATM   45  N11 UNL     1      17.042 -12.747  36.652  1.00  0.00    -0.234 N 
ATOM     46 2H11 UNL     1      17.658 -13.545  36.493  1.00  0.00     0.174 HD
ATOM     47 1H11 UNL     1      17.068 -12.175  37.496  1.00  0.00     0.174 HD
ENDBRANCH   9  45
TORSDOF 12
ENDMDL
MODEL 3
REMARK VINA RESULT: -5.328691693      2.327      7.924
REMARK  12 active torsions:
REMARK  status: ('A' for Active; 'I' for Inactive)
REMARK    1  A    between atoms: N1_2  and  C3_4 
REMARK    2  A    between atoms: C4_5  and  O1_6 
REMARK    3  A    between atoms: C5_8  and  O2_9 
REMARK    4  A    between atoms: C6_11  and  N2_12 
REMARK    5  A    between atoms: C7_13  and  N3_14 
REMARK    6  A    between atoms: N3_14  and  N4_15 
REMARK       I    between atoms: N4_15  and  C8_17 
REMARK    7  A    between atoms: N6_20  and  N7_21 
REMARK    8  A    between atoms: N7_21  and  C9_23 
REMARK    9  A    between atoms: N8_24  and  N9_26 
REMARK   10  A    between atoms: C12_34  and  N11_35 
REMARK   11  A    between atoms: C14_42  and  O6_43 
REMARK   12  A    between atoms: C14_42  and  C15_45 
ROOT
HETATM    1  N2  UNL     1      19.086  -4.240  37.801  1.00  0.00    -0.257 N 
HETATM    2  C7  UNL     1      19.892  -3.305  37.227  1.00  0.00     0.309 A 
HETATM    3  N6  UNL     1      20.284  -2.399  38.202  1.00  0.00    -0.201 N 
HETATM    4  C10 UNL     1      19.734  -2.801  39.340  1.00  0.00     0.174 A 
HETATM    5  C11 UNL     1      19.803  -2.365  40.656  1.00  0.00     0.292 A 
HETATM    6  O4  UNL     1      20.447  -1.353  40.965  1.00  0.00    -0.265 OA
HETATM    7  N10 UNL     1      19.162  -3.052  41.642  1.00  0.00    -0.154 N 
ATOM      8  H10 UNL     1      19.218  -2.723  42.605  1.00  0.00     0.187 HD
HETATM    9  C12 UNL     1      18.489  -4.108  41.369  1.00  0.00     0.680 A 
HETATM   10  N12 UNL     1      18.354  -4.620  40.092  1.00  0.00    -0.174 N 
ATOM     11  H12 UNL     1      17.808  -5.461  39.908  1.00  0.00     0.186 HD
HETATM   12  C13 UNL     1      18.989  -3.945  39.090  1.00  0.00     0.164 A 
ENDROOT
BRANCH   1  13
HETATM   13  C6  UNL     1      18.364  -5.335  37.131  1.00  0.00     0.269 C 
HETATM   14  C5  UNL     1      19.231  -6.520  36.974  1.00  0.00     0.198 C 
HETATM   15  C4  UNL     1      18.655  -7.827  37.333  1.00  0.00     0.190 C 
HETATM   16  C3  UNL     1      17.144  -7.943  37.302  1.00  0.00     0.326 C 
HETATM   17  C14 UNL     1      16.510  -6.634  36.938  1.00  0.00     0.290 C 
HETATM   18  O5  UNL     1      17.150  -5.609  37.653  1.00  0.00    -0.316 OA
BRANCH  14  19
HETATM   19  O2  UNL     1      20.459  -6.307  37.698  1.00  0.00    -0.389 OA
ATOM     20  H2  UNL     1      21.087  -5.856  37.146  1.00  0.00     0.210 HD
ENDBRANCH  14  19
BRANCH  15  21
HETATM   21  O1  UNL     1      19.241  -8.823  36.582  1.00  0.00    -0.390 OA
ATOM     22  H1  UNL     1      18.990  -9.681  36.901  1.00  0.00     0.210 HD
ENDBRANCH  15  21
BRANCH  16  23
HETATM   23  N1  UNL     1      16.626  -8.484  38.508  1.00  0.00     0.093 N 
HETATM   24  C1  UNL     1      17.417  -8.365  39.679  1.00  0.00     0.310 C 
HETATM   25  C2  UNL     1      16.080  -9.833  38.361  1.00  0.00     0.310 C 
ENDBRANCH  16  23
BRANCH  17  26
HETATM   26  O6  UNL     1      16.900  -6.317  35.579  1.00  0.00    -0.355 OA
ATOM     27  H6  UNL     1      17.528  -6.972  35.298  1.00  0.00     0.213 HD
ENDBRANCH  17  26
BRANCH  17  28
HETATM   28  C15 UNL     1      15.116  -6.493  36.970  1.00  0.00     0.241 C 
HETATM   29  O7  UNL     1      14.130  -6.616  36.260  1.00  0.00    -0.644 OA
HETATM   30  O8  UNL     1      14.628  -6.053  38.333  1.00  0.00    -0.644 OA
ENDBRANCH  17  28
ENDBRANCH   1  13
BRANCH   2  31
HETATM   31  N3  UNL     1      20.273  -3.340  36.084  1.00  0.00    -0.281 NA
BRANCH  31  32
HETATM   32  N4  UNL     1      20.986  -3.498  35.029  1.00  0.00    -0.183 N 
HETATM   33  C8  UNL     1      22.433  -3.339  34.973  1.00  0.00     0.357 C 
HETATM   34  N5  UNL     1      23.213  -3.575  33.819  1.00  0.00    -0.038 NA
HETATM   35  O3  UNL     1      23.033  -2.971  36.024  1.00  0.00    -0.248 OA
ATOM     36  H4  UNL     1      20.505  -3.755  34.167  1.00  0.00     0.206 HD
ENDBRANCH  31  32
ENDBRANCH   2  31
BRANCH   3  37
HETATM   37  N7  UNL     1      21.050  -1.279  37.892  1.00  0.00    -0.284 N 
ATOM     38  H7  UNL     1      21.478  -1.315  36.967  1.00  0.00     0.188 HD
BRANCH  37  39
HETATM   39  C9  UNL     1      21.341  -0.135  38.592  1.00  0.00     0.214 C 
HETATM   40  N8  UNL     1      20.767   0.998  38.281  1.00  0.00    -0.301 N 
ATOM     41  H8  UNL     1      20.972   1.854  38.797  1.00  0.00     0.187 HD
BRANCH  40  42
HETATM   42  N9  UNL     1      19.862   0.993  37.214  1.00  0.00    -0.344 N 
ATOM     43  H92 UNL     1      18.864   1.116  37.384  1.00  0.00     0.176 HD
ATOM     44  H91 UNL     1      20.240   0.863  36.276  1.00  0.00     0.176 HD
ENDBRANCH  40  42
ENDBRANCH  37  39
ENDBRANCH   3  37
BRANCH   9  45
HETATM   45  N11 UNL     1      17.916  -4.752  42.379  1.00  0.00    -0.234 N 
ATOM     46 2H11 UNL     1      17.434  -5.632  42.191  1.00  0.00     0.174 HD
ATOM     47 1H11 UNL     1      18.002  -4.345  43.310  1.00  0.00     0.174 HD
ENDBRANCH   9  45
TORSDOF 12
ENDMDL
MODEL 4
REMARK VINA RESULT: -5.325949042      2.654      8.527
REMARK  12 active torsions:
REMARK  status: ('A' for Active; 'I' for Inactive)
REMARK    1  A    between atoms: N1_2  and  C3_4 
REMARK    2  A    between atoms: C4_5  and  O1_6 
REMARK    3  A    between atoms: C5_8  and  O2_9 
REMARK    4  A    between atoms: C6_11  and  N2_12 
REMARK    5  A    between atoms: C7_13  and  N3_14 
REMARK    6  A    between atoms: N3_14  and  N4_15 
REMARK       I    between atoms: N4_15  and  C8_17 
REMARK    7  A    between atoms: N6_20  and  N7_21 
REMARK    8  A    between atoms: N7_21  and  C9_23 
REMARK    9  A    between atoms: N8_24  and  N9_26 
REMARK   10  A    between atoms: C12_34  and  N11_35 
REMARK   11  A    between atoms: C14_42  and  O6_43 
REMARK   12  A    between atoms: C14_42  and  C15_45 
ROOT
HETATM    1  N2  UNL     1      18.473  -5.320  37.479  1.00  0.00    -0.257 N 
HETATM    2  C7  UNL     1      19.383  -4.558  36.813  1.00  0.00     0.309 A 
HETATM    3  N6  UNL     1      19.840  -3.565  37.667  1.00  0.00    -0.201 N 
HETATM    4  C10 UNL     1      19.226  -3.748  38.829  1.00  0.00     0.174 A 
HETATM    5  C11 UNL     1      19.306  -3.140  40.074  1.00  0.00     0.292 A 
HETATM    6  O4  UNL     1      20.041  -2.162  40.265  1.00  0.00    -0.265 OA
HETATM    7  N10 UNL     1      18.576  -3.616  41.120  1.00  0.00    -0.154 N 
ATOM      8  H10 UNL     1      18.641  -3.162  42.030  1.00  0.00     0.187 HD
HETATM    9  C12 UNL     1      17.806  -4.630  40.969  1.00  0.00     0.680 A 
HETATM   10  N12 UNL     1      17.652  -5.301  39.771  1.00  0.00    -0.174 N 
ATOM     11  H12 UNL     1      17.027  -6.103  39.684  1.00  0.00     0.186 HD
HETATM   12  C13 UNL     1      18.375  -4.839  38.711  1.00  0.00     0.164 A 
ENDROOT
BRANCH   1  13
HETATM   13  C6  UNL     1      17.660  -6.424  36.939  1.00  0.00     0.269 C 
HETATM   14  C5  UNL     1      18.312  -7.726  37.183  1.00  0.00     0.198 C 
HETATM   15  C4  UNL     1      17.467  -8.814  37.703  1.00  0.00     0.190 C 
HETATM   16  C3  UNL     1      15.977  -8.712  37.440  1.00  0.00     0.326 C 
HETATM   17  C14 UNL     1      15.644  -7.446  36.709  1.00  0.00     0.290 C 
HETATM   18  O5  UNL     1      16.359  -6.388  37.293  1.00  0.00    -0.316 OA
BRANCH  14  19
HETATM   19  O2  UNL     1      19.451  -7.532  38.045  1.00  0.00    -0.389 OA
ATOM     20  H2  UNL     1      19.325  -8.003  38.860  1.00  0.00     0.210 HD
ENDBRANCH  14  19
BRANCH  15  21
HETATM   21  O1  UNL     1      17.958 -10.033  37.288  1.00  0.00    -0.390 OA
ATOM     22  H1  UNL     1      18.424 -10.469  37.991  1.00  0.00     0.210 HD
ENDBRANCH  15  21
BRANCH  16  23
HETATM   23  N1  UNL     1      15.214  -8.873  38.627  1.00  0.00     0.093 N 
HETATM   24  C1  UNL     1      15.863  -8.642  39.867  1.00  0.00     0.310 C 
HETATM   25  C2  UNL     1      14.422 -10.104  38.655  1.00  0.00     0.310 C 
ENDBRANCH  16  23
BRANCH  17  26
HETATM   26  O6  UNL     1      16.262  -7.517  35.400  1.00  0.00    -0.355 OA
ATOM     27  H6  UNL     1      15.621  -7.873  34.797  1.00  0.00     0.213 HD
ENDBRANCH  17  26
BRANCH  17  28
HETATM   28  C15 UNL     1      14.308  -7.099  36.473  1.00  0.00     0.241 C 
HETATM   29  O7  UNL     1      13.489  -6.231  36.731  1.00  0.00    -0.644 OA
HETATM   30  O8  UNL     1      13.612  -8.116  35.594  1.00  0.00    -0.644 OA
ENDBRANCH  17  28
ENDBRANCH   1  13
BRANCH   2  31
HETATM   31  N3  UNL     1      19.786  -4.790  35.701  1.00  0.00    -0.281 NA
BRANCH  31  32
HETATM   32  N4  UNL     1      20.210  -5.382  34.644  1.00  0.00    -0.183 N 
HETATM   33  C8  UNL     1      20.994  -6.609  34.639  1.00  0.00     0.357 C 
HETATM   34  N5  UNL     1      21.404  -7.284  33.467  1.00  0.00    -0.038 NA
HETATM   35  O3  UNL     1      21.327  -7.109  35.752  1.00  0.00    -0.248 OA
ATOM     36  H4  UNL     1      19.981  -4.962  33.743  1.00  0.00     0.206 HD
ENDBRANCH  31  32
ENDBRANCH   2  31
BRANCH   3  37
HETATM   37  N7  UNL     1      20.723  -2.579  37.236  1.00  0.00    -0.284 N 
ATOM     38  H7  UNL     1      20.435  -2.118  36.374  1.00  0.00     0.188 HD
BRANCH  37  39
HETATM   39  C9  UNL     1      21.907  -2.109  37.747  1.00  0.00     0.214 C 
HETATM   40  N8  UNL     1      22.001  -0.880  38.183  1.00  0.00    -0.301 N 
ATOM     41  H8  UNL     1      22.873  -0.521  38.570  1.00  0.00     0.187 HD
BRANCH  40  42
HETATM   42  N9  UNL     1      20.858  -0.076  38.100  1.00  0.00    -0.344 N 
ATOM     43  H92 UNL     1      20.075  -0.225  38.737  1.00  0.00     0.176 HD
ATOM     44  H91 UNL     1      20.846   0.652  37.386  1.00  0.00     0.176 HD
ENDBRANCH  40  42
ENDBRANCH  37  39
ENDBRANCH   3  37
BRANCH   9  45
HETATM   45  N11 UNL     1      17.147  -5.067  42.036  1.00  0.00    -0.234 N 
ATOM     46 2H11 UNL     1      16.196  -4.734  42.196  1.00  0.00     0.174 HD
ATOM     47 1H11 UNL     1      17.619  -5.739  42.642  1.00  0.00     0.174 HD
ENDBRANCH   9  45
TORSDOF 12
ENDMDL
MODEL 5
REMARK VINA RESULT: -5.180519479      1.952      3.281
REMARK  12 active torsions:
REMARK  status: ('A' for Active; 'I' for Inactive)
REMARK    1  A    between atoms: N1_2  and  C3_4 
REMARK    2  A    between atoms: C4_5  and  O1_6 
REMARK    3  A    between atoms: C5_8  and  O2_9 
REMARK    4  A    between atoms: C6_11  and  N2_12 
REMARK    5  A    between atoms: C7_13  and  N3_14 
REMARK    6  A    between atoms: N3_14  and  N4_15 
REMARK       I    between atoms: N4_15  and  C8_17 
REMARK    7  A    between atoms: N6_20  and  N7_21 
REMARK    8  A    between atoms: N7_21  and  C9_23 
REMARK    9  A    between atoms: N8_24  and  N9_26 
REMARK   10  A    between atoms: C12_34  and  N11_35 
REMARK   11  A    between atoms: C14_42  and  O6_43 
REMARK   12  A    between atoms: C14_42  and  C15_45 
ROOT
HETATM    1  N2  UNL     1      20.469  -1.616  40.525  1.00  0.00    -0.257 N 
HETATM    2  C7  UNL     1      19.775  -2.080  41.600  1.00  0.00     0.309 A 
HETATM    3  N6  UNL     1      18.920  -3.087  41.175  1.00  0.00    -0.201 N 
HETATM    4  C10 UNL     1      19.117  -3.231  39.871  1.00  0.00     0.174 A 
HETATM    5  C11 UNL     1      18.627  -4.100  38.907  1.00  0.00     0.292 A 
HETATM    6  O4  UNL     1      17.767  -4.947  39.184  1.00  0.00    -0.265 OA
HETATM    7  N10 UNL     1      19.090  -4.041  37.628  1.00  0.00    -0.154 N 
ATOM      8  H10 UNL     1      18.723  -4.684  36.927  1.00  0.00     0.187 HD
HETATM    9  C12 UNL     1      19.985  -3.184  37.298  1.00  0.00     0.680 A 
HETATM   10  N12 UNL     1      20.532  -2.272  38.181  1.00  0.00    -0.174 N 
ATOM     11  H12 UNL     1      21.240  -1.600  37.884  1.00  0.00     0.186 HD
HETATM   12  C13 UNL     1      20.080  -2.315  39.467  1.00  0.00     0.164 A 
ENDROOT
BRANCH   1  13
HETATM   13  C6  UNL     1      21.414  -0.487  40.487  1.00  0.00     0.269 C 
HETATM   14  C5  UNL     1      22.761  -0.914  40.917  1.00  0.00     0.198 C 
HETATM   15  C4  UNL     1      23.901  -0.473  40.095  1.00  0.00     0.190 C 
HETATM   16  C3  UNL     1      23.697   0.768  39.247  1.00  0.00     0.326 C 
HETATM   17  C14 UNL     1      22.300   1.294  39.390  1.00  0.00     0.290 C 
HETATM   18  O5  UNL     1      21.404   0.215  39.335  1.00  0.00    -0.316 OA
BRANCH  14  19
HETATM   19  O2  UNL     1      22.781  -2.348  41.059  1.00  0.00    -0.389 OA
ATOM     20  H2  UNL     1      22.446  -2.757  40.269  1.00  0.00     0.210 HD
ENDBRANCH  14  19
BRANCH  15  21
HETATM   21  O1  UNL     1      25.029  -0.355  40.877  1.00  0.00    -0.390 OA
ATOM     22  H1  UNL     1      25.778  -0.760  40.456  1.00  0.00     0.210 HD
ENDBRANCH  15  21
BRANCH  16  23
HETATM   23  N1  UNL     1      24.064   0.554  37.892  1.00  0.00     0.093 N 
HETATM   24  C1  UNL     1      24.088  -0.782  37.417  1.00  0.00     0.310 C 
HETATM   25  C2  UNL     1      25.259   1.293  37.483  1.00  0.00     0.310 C 
ENDBRANCH  16  23
BRANCH  17  26
HETATM   26  O6  UNL     1      22.132   1.732  40.760  1.00  0.00    -0.355 OA
ATOM     27  H6  UNL     1      21.604   2.523  40.749  1.00  0.00     0.213 HD
ENDBRANCH  17  26
BRANCH  17  28
HETATM   28  C15 UNL     1      21.868   2.366  38.599  1.00  0.00     0.241 C 
HETATM   29  O7  UNL     1      22.195   3.023  37.622  1.00  0.00    -0.644 OA
HETATM   30  O8  UNL     1      20.542   2.918  39.078  1.00  0.00    -0.644 OA
ENDBRANCH  17  28
ENDBRANCH   1  13
BRANCH   2  31
HETATM   31  N3  UNL     1      19.965  -1.733  42.738  1.00  0.00    -0.281 NA
BRANCH  31  32
HETATM   32  N4  UNL     1      20.209  -1.035  43.788  1.00  0.00    -0.183 N 
HETATM   33  C8  UNL     1      19.206  -0.297  44.544  1.00  0.00     0.357 C 
HETATM   34  N5  UNL     1      19.477   0.418  45.732  1.00  0.00    -0.038 NA
HETATM   35  O3  UNL     1      18.016  -0.298  44.116  1.00  0.00    -0.248 OA
ATOM     36  H4  UNL     1      21.174  -0.994  44.115  1.00  0.00     0.206 HD
ENDBRANCH  31  32
ENDBRANCH   2  31
BRANCH   3  37
HETATM   37  N7  UNL     1      18.021  -3.697  42.045  1.00  0.00    -0.284 N 
ATOM     38  H7  UNL     1      18.319  -4.617  42.367  1.00  0.00     0.188 HD
BRANCH  37  39
HETATM   39  C9  UNL     1      16.810  -3.298  42.553  1.00  0.00     0.214 C 
HETATM   40  N8  UNL     1      16.652  -3.129  43.840  1.00  0.00    -0.301 N 
ATOM     41  H8  UNL     1      15.759  -2.829  44.229  1.00  0.00     0.187 HD
BRANCH  40  42
HETATM   42  N9  UNL     1      17.757  -3.377  44.664  1.00  0.00    -0.344 N 
ATOM     43  H92 UNL     1      18.384  -4.157  44.465  1.00  0.00     0.176 HD
ATOM     44  H91 UNL     1      17.902  -2.753  45.458  1.00  0.00     0.176 HD
ENDBRANCH  40  42
ENDBRANCH  37  39
ENDBRANCH   3  37
BRANCH   9  45
HETATM   45  N11 UNL     1      20.420  -3.199  36.044  1.00  0.00    -0.234 N 
ATOM     46 2H11 UNL     1      20.791  -2.339  35.642  1.00  0.00     0.174 HD
ATOM     47 1H11 UNL     1      20.383  -4.086  35.540  1.00  0.00     0.174 HD
ENDBRANCH   9  45
TORSDOF 12
ENDMDL
