MODEL 1
REMARK VINA RESULT: -6.461106062      0.000      0.000
REMARK  11 active torsions:
REMARK  status: ('A' for Active; 'I' for Inactive)
REMARK       I    between atoms: C2_2  and  N1_4 
REMARK       I    between atoms: N1_4  and  C3_6 
REMARK    1  A    between atoms: C3_6  and  C4_8 
REMARK    2  A    between atoms: C4_8  and  N2_9 
REMARK       I    between atoms: N2_9  and  C5_11 
REMARK    3  A    between atoms: C5_11  and  C6_13 
REMARK    4  A    between atoms: N4_17  and  C8_18 
REMARK    5  A    between atoms: C9_20  and  C10_21 
REMARK    6  A    between atoms: C10_21  and  O5_22 
REMARK    7  A    between atoms: C10_21  and  O6_24 
REMARK    8  A    between atoms: O6_24  and  N5_25 
REMARK    9  A    between atoms: C11_28  and  O7_29 
REMARK   10  A    between atoms: C12_31  and  O8_32 
REMARK   11  A    between atoms: C14_37  and  N7_38 
ROOT
HETATM    1  C6  UNL     1      19.748  -3.454  37.645  1.00  0.00     0.204 A 
HETATM    2  N3  UNL     1      20.591  -2.438  37.385  1.00  0.00    -0.167 N 
ATOM      3  H3  UNL     1      20.982  -2.191  36.476  1.00  0.00     0.186 HD
HETATM    4  C7  UNL     1      20.821  -1.810  38.554  1.00  0.00     0.712 A 
HETATM    5  N4  UNL     1      21.492  -0.786  39.113  1.00  0.00    -0.133 N 
HETATM    6  C13 UNL     1      21.249  -0.723  40.448  1.00  0.00     0.175 A 
HETATM    7  N6  UNL     1      21.683   0.114  41.422  1.00  0.00    -0.173 N 
ATOM      8  H6  UNL     1      22.321   0.880  41.207  1.00  0.00     0.186 HD
HETATM    9  C14 UNL     1      21.250  -0.091  42.678  1.00  0.00     0.679 A 
HETATM   10  N8  UNL     1      20.401  -1.112  42.954  1.00  0.00    -0.175 N 
ATOM     11  H8  UNL     1      20.089  -1.244  43.916  1.00  0.00     0.186 HD
HETATM   12  C15 UNL     1      19.956  -1.954  42.009  1.00  0.00     0.148 A 
HETATM   13  N9  UNL     1      19.157  -2.909  42.285  1.00  0.00    -0.383 N 
ATOM     14  H91 UNL     1      18.819  -3.549  41.566  1.00  0.00     0.157 HD
ATOM     15  H92 UNL     1      18.840  -3.049  43.244  1.00  0.00     0.157 HD
HETATM   16  C16 UNL     1      20.385  -1.765  40.712  1.00  0.00     0.164 A 
HETATM   17  N10 UNL     1      20.138  -2.413  39.545  1.00  0.00    -0.077 N 
HETATM   18  N11 UNL     1      19.491  -3.414  38.967  1.00  0.00    -0.259 N 
ATOM     19  H11 UNL     1      18.880  -4.067  39.457  1.00  0.00     0.190 HD
ENDROOT
BRANCH   5  20
HETATM   20  C8  UNL     1      22.363   0.145  38.415  1.00  0.00     0.279 C 
HETATM   21  O4  UNL     1      23.357   0.613  39.226  1.00  0.00    -0.350 OA
HETATM   22  C9  UNL     1      23.161   1.921  39.557  1.00  0.00     0.212 C 
HETATM   23  C11 UNL     1      21.879   2.384  38.928  1.00  0.00     0.185 C 
HETATM   24  C12 UNL     1      21.655   1.341  37.883  1.00  0.00     0.199 C 
BRANCH  22  25
HETATM   25  C10 UNL     1      24.346   2.733  39.015  1.00  0.00     0.316 C 
BRANCH  25  26
HETATM   26  O5  UNL     1      24.884   3.433  40.106  1.00  0.00    -0.367 OA
ATOM     27  H5  UNL     1      25.630   2.928  40.409  1.00  0.00     0.212 HD
ENDBRANCH  25  26
BRANCH  25  28
HETATM   28  O6  UNL     1      25.279   1.933  38.400  1.00  0.00    -0.252 OA
BRANCH  28  29
HETATM   29  N5  UNL     1      25.202   2.004  37.070  1.00  0.00    -0.308 N 
ATOM     30  H52 UNL     1      25.669   2.728  36.522  1.00  0.00     0.184 HD
ATOM     31  H51 UNL     1      24.628   1.257  36.679  1.00  0.00     0.184 HD
ENDBRANCH  28  29
ENDBRANCH  25  28
ENDBRANCH  22  25
BRANCH  23  32
HETATM   32  O7  UNL     1      20.843   2.480  39.854  1.00  0.00    -0.390 OA
ATOM     33  H7  UNL     1      20.747   3.362  40.196  1.00  0.00     0.210 HD
ENDBRANCH  23  32
BRANCH  24  34
HETATM   34  O8  UNL     1      20.288   1.173  37.721  1.00  0.00    -0.388 OA
ATOM     35  H8  UNL     1      20.042   0.658  36.962  1.00  0.00     0.210 HD
ENDBRANCH  24  34
ENDBRANCH   5  20
BRANCH   1  36
HETATM   36  C5  UNL     1      19.210  -4.418  36.690  1.00  0.00     0.287 C 
HETATM   37  N2  UNL     1      18.096  -5.238  37.019  1.00  0.00    -0.346 N 
ATOM     38  H2  UNL     1      17.663  -5.142  37.937  1.00  0.00     0.163 HD
HETATM   39  O3  UNL     1      19.759  -4.511  35.556  1.00  0.00    -0.264 OA
BRANCH  37  40
HETATM   40  C4  UNL     1      17.572  -6.185  36.106  1.00  0.00     0.226 C 
BRANCH  40  41
HETATM   41  C3  UNL     1      16.163  -6.520  36.395  1.00  0.00     0.241 C 
HETATM   42  N1  UNL     1      15.435  -7.467  35.665  1.00  0.00    -0.297 N 
HETATM   43  C2  UNL     1      14.077  -7.731  35.953  1.00  0.00     0.220 C 
ATOM     44  H1  UNL     1      15.893  -7.976  34.910  1.00  0.00     0.171 HD
HETATM   45  C1  UNL     1      13.389  -7.007  37.042  1.00  0.00     0.117 C 
HETATM   46  O1  UNL     1      13.462  -8.605  35.257  1.00  0.00    -0.274 OA
HETATM   47  O2  UNL     1      15.645  -5.879  37.381  1.00  0.00    -0.271 OA
ENDBRANCH  40  41
ENDBRANCH  37  40
ENDBRANCH   1  36
BRANCH   9  48
HETATM   48  N7  UNL     1      21.646   0.692  43.638  1.00  0.00    -0.234 N 
ATOM     49  H72 UNL     1      22.205   1.516  43.418  1.00  0.00     0.174 HD
ATOM     50  H71 UNL     1      21.397   0.480  44.605  1.00  0.00     0.174 HD
ENDBRANCH   9  48
TORSDOF 11
ENDMDL
MODEL 2
REMARK VINA RESULT: -6.353058825      5.867     14.014
REMARK  11 active torsions:
REMARK  status: ('A' for Active; 'I' for Inactive)
REMARK       I    between atoms: C2_2  and  N1_4 
REMARK       I    between atoms: N1_4  and  C3_6 
REMARK    1  A    between atoms: C3_6  and  C4_8 
REMARK    2  A    between atoms: C4_8  and  N2_9 
REMARK       I    between atoms: N2_9  and  C5_11 
REMARK    3  A    between atoms: C5_11  and  C6_13 
REMARK    4  A    between atoms: N4_17  and  C8_18 
REMARK    5  A    between atoms: C9_20  and  C10_21 
REMARK    6  A    between atoms: C10_21  and  O5_22 
REMARK    7  A    between atoms: C10_21  and  O6_24 
REMARK    8  A    between atoms: O6_24  and  N5_25 
REMARK    9  A    between atoms: C11_28  and  O7_29 
REMARK   10  A    between atoms: C12_31  and  O8_32 
REMARK   11  A    between atoms: C14_37  and  N7_38 
ROOT
HETATM    1  C6  UNL     1      14.362  -8.564  35.414  1.00  0.00     0.204 A 
HETATM    2  N3  UNL     1      13.036  -8.469  35.213  1.00  0.00    -0.167 N 
ATOM      3  H3  UNL     1      12.404  -7.795  35.644  1.00  0.00     0.186 HD
HETATM    4  C7  UNL     1      12.702  -9.433  34.333  1.00  0.00     0.712 A 
HETATM    5  N4  UNL     1      11.664  -9.968  33.665  1.00  0.00    -0.133 N 
HETATM    6  C13 UNL     1      12.076 -11.002  32.886  1.00  0.00     0.175 A 
HETATM    7  N6  UNL     1      11.418 -11.837  32.045  1.00  0.00    -0.173 N 
ATOM      8  H6  UNL     1      10.411 -11.750  31.903  1.00  0.00     0.186 HD
HETATM    9  C14 UNL     1      12.125 -12.783  31.402  1.00  0.00     0.679 A 
HETATM   10  N8  UNL     1      13.463 -12.890  31.597  1.00  0.00    -0.175 N 
ATOM     11  H8  UNL     1      13.975 -13.617  31.096  1.00  0.00     0.186 HD
HETATM   12  C15 UNL     1      14.139 -12.076  32.422  1.00  0.00     0.148 A 
HETATM   13  N9  UNL     1      15.397 -12.191  32.594  1.00  0.00    -0.383 N 
ATOM     14  H91 UNL     1      15.911 -11.572  33.222  1.00  0.00     0.157 HD
ATOM     15  H92 UNL     1      15.917 -12.915  32.098  1.00  0.00     0.157 HD
HETATM   16  C16 UNL     1      13.436 -11.098  33.093  1.00  0.00     0.164 A 
HETATM   17  N10 UNL     1      13.796 -10.133  33.979  1.00  0.00    -0.077 N 
HETATM   18  N11 UNL     1      14.797  -9.586  34.650  1.00  0.00    -0.259 N 
ATOM     19  H11 UNL     1      15.767  -9.896  34.597  1.00  0.00     0.190 HD
ENDROOT
BRANCH   5  20
HETATM   20  C8  UNL     1      10.281  -9.527  33.741  1.00  0.00     0.279 C 
HETATM   21  O4  UNL     1      10.179  -8.272  34.266  1.00  0.00    -0.350 OA
HETATM   22  C9  UNL     1       9.649  -8.296  35.523  1.00  0.00     0.212 C 
HETATM   23  C11 UNL     1       9.393  -9.724  35.904  1.00  0.00     0.185 C 
HETATM   24  C12 UNL     1       9.419 -10.406  34.575  1.00  0.00     0.199 C 
BRANCH  22  25
HETATM   25  C10 UNL     1       8.334  -7.503  35.501  1.00  0.00     0.316 C 
BRANCH  25  26
HETATM   26  O5  UNL     1       7.623  -7.878  36.652  1.00  0.00    -0.367 OA
ATOM     27  H5  UNL     1       6.783  -7.437  36.606  1.00  0.00     0.212 HD
ENDBRANCH  25  26
BRANCH  25  28
HETATM   28  O6  UNL     1       8.551  -6.147  35.443  1.00  0.00    -0.252 OA
BRANCH  28  29
HETATM   29  N5  UNL     1       9.629  -5.782  36.139  1.00  0.00    -0.308 N 
ATOM     30  H52 UNL     1       9.599  -5.101  36.898  1.00  0.00     0.184 HD
ATOM     31  H51 UNL     1      10.471  -6.262  35.820  1.00  0.00     0.184 HD
ENDBRANCH  28  29
ENDBRANCH  25  28
ENDBRANCH  22  25
BRANCH  23  32
HETATM   32  O7  UNL     1      10.342 -10.209  36.800  1.00  0.00    -0.390 OA
ATOM     33  H7  UNL     1      11.216  -9.891  36.606  1.00  0.00     0.210 HD
ENDBRANCH  23  32
BRANCH  24  34
HETATM   34  O8  UNL     1       9.911 -11.690  34.755  1.00  0.00    -0.388 OA
ATOM     35  H8  UNL     1      10.467 -11.795  35.517  1.00  0.00     0.210 HD
ENDBRANCH  24  34
ENDBRANCH   5  20
BRANCH   1  36
HETATM   36  C5  UNL     1      15.183  -7.730  36.287  1.00  0.00     0.287 C 
HETATM   37  N2  UNL     1      16.072  -6.757  35.754  1.00  0.00    -0.346 N 
ATOM     38  H2  UNL     1      16.129  -6.637  34.742  1.00  0.00     0.163 HD
HETATM   39  O3  UNL     1      15.088  -7.892  37.536  1.00  0.00    -0.264 OA
BRANCH  37  40
HETATM   40  C4  UNL     1      16.882  -5.949  36.588  1.00  0.00     0.226 C 
BRANCH  40  41
HETATM   41  C3  UNL     1      18.277  -5.874  36.112  1.00  0.00     0.241 C 
HETATM   42  N1  UNL     1      19.012  -4.683  36.074  1.00  0.00    -0.297 N 
HETATM   43  C2  UNL     1      20.335  -4.651  35.577  1.00  0.00     0.220 C 
ATOM     44  H1  UNL     1      18.585  -3.821  36.412  1.00  0.00     0.171 HD
HETATM   45  C1  UNL     1      20.977  -5.885  35.080  1.00  0.00     0.117 C 
HETATM   46  O1  UNL     1      20.958  -3.539  35.567  1.00  0.00    -0.274 OA
HETATM   47  O2  UNL     1      18.782  -6.994  35.734  1.00  0.00    -0.271 OA
ENDBRANCH  40  41
ENDBRANCH  37  40
ENDBRANCH   1  36
BRANCH   9  48
HETATM   48  N7  UNL     1      11.526 -13.602  30.589  1.00  0.00    -0.234 N 
ATOM     49  H72 UNL     1      11.258 -13.282  29.658  1.00  0.00     0.174 HD
ATOM     50  H71 UNL     1      11.327 -14.558  30.882  1.00  0.00     0.174 HD
ENDBRANCH   9  48
TORSDOF 11
ENDMDL
MODEL 3
REMARK VINA RESULT: -6.327457164      3.629      7.531
REMARK  11 active torsions:
REMARK  status: ('A' for Active; 'I' for Inactive)
REMARK       I    between atoms: C2_2  and  N1_4 
REMARK       I    between atoms: N1_4  and  C3_6 
REMARK    1  A    between atoms: C3_6  and  C4_8 
REMARK    2  A    between atoms: C4_8  and  N2_9 
REMARK       I    between atoms: N2_9  and  C5_11 
REMARK    3  A    between atoms: C5_11  and  C6_13 
REMARK    4  A    between atoms: N4_17  and  C8_18 
REMARK    5  A    between atoms: C9_20  and  C10_21 
REMARK    6  A    between atoms: C10_21  and  O5_22 
REMARK    7  A    between atoms: C10_21  and  O6_24 
REMARK    8  A    between atoms: O6_24  and  N5_25 
REMARK    9  A    between atoms: C11_28  and  O7_29 
REMARK   10  A    between atoms: C12_31  and  O8_32 
REMARK   11  A    between atoms: C14_37  and  N7_38 
ROOT
HETATM    1  C6  UNL     1      20.253  -0.975  42.200  1.00  0.00     0.204 A 
HETATM    2  N3  UNL     1      21.033  -0.294  41.342  1.00  0.00    -0.167 N 
ATOM      3  H3  UNL     1      21.543   0.567  41.538  1.00  0.00     0.186 HD
HETATM    4  C7  UNL     1      21.012  -0.964  40.174  1.00  0.00     0.712 A 
HETATM    5  N4  UNL     1      21.486  -0.950  38.915  1.00  0.00    -0.133 N 
HETATM    6  C13 UNL     1      21.023  -2.017  38.215  1.00  0.00     0.175 A 
HETATM    7  N6  UNL     1      21.216  -2.432  36.938  1.00  0.00    -0.173 N 
ATOM      8  H6  UNL     1      21.811  -1.903  36.301  1.00  0.00     0.186 HD
HETATM    9  C14 UNL     1      20.602  -3.557  36.534  1.00  0.00     0.679 A 
HETATM   10  N8  UNL     1      19.813  -4.254  37.388  1.00  0.00    -0.175 N 
ATOM     11  H8  UNL     1      19.359  -5.105  37.055  1.00  0.00     0.186 HD
HETATM   12  C15 UNL     1      19.606  -3.867  38.656  1.00  0.00     0.148 A 
HETATM   13  N9  UNL     1      18.860  -4.533  39.447  1.00  0.00    -0.383 N 
ATOM     14  H91 UNL     1      18.703  -4.239  40.411  1.00  0.00     0.157 HD
ATOM     15  H92 UNL     1      18.403  -5.385  39.122  1.00  0.00     0.157 HD
HETATM   16  C16 UNL     1      20.224  -2.715  39.095  1.00  0.00     0.164 A 
HETATM   17  N10 UNL     1      20.231  -2.056  40.283  1.00  0.00    -0.077 N 
HETATM   18  N11 UNL     1      19.778  -2.042  41.527  1.00  0.00    -0.259 N 
ATOM     19  H11 UNL     1      19.154  -2.745  41.923  1.00  0.00     0.190 HD
ENDROOT
BRANCH   5  20
HETATM   20  C8  UNL     1      22.376   0.051  38.350  1.00  0.00     0.279 C 
HETATM   21  O4  UNL     1      23.334   0.438  39.242  1.00  0.00    -0.350 OA
HETATM   22  C9  UNL     1      23.115   1.705  39.696  1.00  0.00     0.212 C 
HETATM   23  C11 UNL     1      21.854   2.224  39.069  1.00  0.00     0.185 C 
HETATM   24  C12 UNL     1      21.679   1.291  37.915  1.00  0.00     0.199 C 
BRANCH  22  25
HETATM   25  C10 UNL     1      24.313   2.573  39.286  1.00  0.00     0.316 C 
BRANCH  25  26
HETATM   26  O5  UNL     1      24.782   3.187  40.457  1.00  0.00    -0.367 OA
ATOM     27  H5  UNL     1      25.188   4.003  40.191  1.00  0.00     0.212 HD
ENDBRANCH  25  26
BRANCH  25  28
HETATM   28  O6  UNL     1      25.290   1.838  38.658  1.00  0.00    -0.252 OA
BRANCH  28  29
HETATM   29  N5  UNL     1      25.258   1.990  37.333  1.00  0.00    -0.308 N 
ATOM     30  H52 UNL     1      24.471   2.413  36.839  1.00  0.00     0.184 HD
ATOM     31  H51 UNL     1      26.104   1.637  36.886  1.00  0.00     0.184 HD
ENDBRANCH  28  29
ENDBRANCH  25  28
ENDBRANCH  22  25
BRANCH  23  32
HETATM   32  O7  UNL     1      20.783   2.220  39.959  1.00  0.00    -0.390 OA
ATOM     33  H7  UNL     1      19.955   2.055  39.524  1.00  0.00     0.210 HD
ENDBRANCH  23  32
BRANCH  24  34
HETATM   34  O8  UNL     1      20.320   1.135  37.684  1.00  0.00    -0.388 OA
ATOM     35  H8  UNL     1      19.785   1.136  38.469  1.00  0.00     0.210 HD
ENDBRANCH  24  34
ENDBRANCH   5  20
BRANCH   1  36
HETATM   36  C5  UNL     1      19.968  -0.637  43.591  1.00  0.00     0.287 C 
HETATM   37  N2  UNL     1      18.795   0.083  43.949  1.00  0.00    -0.346 N 
ATOM     38  H2  UNL     1      18.140   0.360  43.218  1.00  0.00     0.163 HD
HETATM   39  O3  UNL     1      20.791  -0.998  44.478  1.00  0.00    -0.264 OA
BRANCH  37  40
HETATM   40  C4  UNL     1      18.513   0.428  45.293  1.00  0.00     0.226 C 
BRANCH  40  41
HETATM   41  C3  UNL     1      18.366   1.886  45.478  1.00  0.00     0.241 C 
HETATM   42  N1  UNL     1      19.249   2.822  44.927  1.00  0.00    -0.297 N 
HETATM   43  C2  UNL     1      19.092   4.207  45.160  1.00  0.00     0.220 C 
ATOM     44  H1  UNL     1      20.021   2.498  44.345  1.00  0.00     0.171 HD
HETATM   45  C1  UNL     1      17.982   4.702  45.999  1.00  0.00     0.117 C 
HETATM   46  O1  UNL     1      19.924   5.015  44.631  1.00  0.00    -0.274 OA
HETATM   47  O2  UNL     1      17.355   2.243  46.187  1.00  0.00    -0.271 OA
ENDBRANCH  40  41
ENDBRANCH  37  40
ENDBRANCH   1  36
BRANCH   9  48
HETATM   48  N7  UNL     1      20.764  -3.984  35.316  1.00  0.00    -0.234 N 
ATOM     49  H72 UNL     1      21.674  -4.340  35.023  1.00  0.00     0.174 HD
ATOM     50  H71 UNL     1      19.983  -3.962  34.659  1.00  0.00     0.174 HD
ENDBRANCH   9  48
TORSDOF 11
ENDMDL
MODEL 4
REMARK VINA RESULT: -6.309098785      6.514     14.173
REMARK  11 active torsions:
REMARK  status: ('A' for Active; 'I' for Inactive)
REMARK       I    between atoms: C2_2  and  N1_4 
REMARK       I    between atoms: N1_4  and  C3_6 
REMARK    1  A    between atoms: C3_6  and  C4_8 
REMARK    2  A    between atoms: C4_8  and  N2_9 
REMARK       I    between atoms: N2_9  and  C5_11 
REMARK    3  A    between atoms: C5_11  and  C6_13 
REMARK    4  A    between atoms: N4_17  and  C8_18 
REMARK    5  A    between atoms: C9_20  and  C10_21 
REMARK    6  A    between atoms: C10_21  and  O5_22 
REMARK    7  A    between atoms: C10_21  and  O6_24 
REMARK    8  A    between atoms: O6_24  and  N5_25 
REMARK    9  A    between atoms: C11_28  and  O7_29 
REMARK   10  A    between atoms: C12_31  and  O8_32 
REMARK   11  A    between atoms: C14_37  and  N7_38 
ROOT
HETATM    1  C6  UNL     1      13.941  -8.392  35.387  1.00  0.00     0.204 A 
HETATM    2  N3  UNL     1      12.654  -8.420  34.997  1.00  0.00    -0.167 N 
ATOM      3  H3  UNL     1      11.918  -7.775  35.285  1.00  0.00     0.186 HD
HETATM    4  C7  UNL     1      12.521  -9.463  34.154  1.00  0.00     0.712 A 
HETATM    5  N4  UNL     1      11.633 -10.124  33.390  1.00  0.00    -0.133 N 
HETATM    6  C13 UNL     1      12.227 -11.168  32.756  1.00  0.00     0.175 A 
HETATM    7  N6  UNL     1      11.760 -12.107  31.897  1.00  0.00    -0.173 N 
ATOM      8  H6  UNL     1      10.780 -12.113  31.611  1.00  0.00     0.186 HD
HETATM    9  C14 UNL     1      12.620 -13.029  31.431  1.00  0.00     0.679 A 
HETATM   10  N8  UNL     1      13.920 -13.012  31.817  1.00  0.00    -0.175 N 
ATOM     11  H8  UNL     1      14.550 -13.725  31.448  1.00  0.00     0.186 HD
HETATM   12  C15 UNL     1      14.408 -12.094  32.664  1.00  0.00     0.148 A 
HETATM   13  N9  UNL     1      15.633 -12.092  33.017  1.00  0.00    -0.383 N 
ATOM     14  H91 UNL     1      16.005 -11.394  33.662  1.00  0.00     0.157 HD
ATOM     15  H92 UNL     1      16.271 -12.801  32.653  1.00  0.00     0.157 HD
HETATM   16  C16 UNL     1      13.546 -11.137  33.156  1.00  0.00     0.164 A 
HETATM   17  N10 UNL     1      13.703 -10.091  34.008  1.00  0.00    -0.077 N 
HETATM   18  N11 UNL     1      14.554  -9.421  34.769  1.00  0.00    -0.259 N 
ATOM     19  H11 UNL     1      15.542  -9.652  34.875  1.00  0.00     0.190 HD
ENDROOT
BRANCH   5  20
HETATM   20  C8  UNL     1      10.225  -9.795  33.240  1.00  0.00     0.279 C 
HETATM   21  O4  UNL     1       9.954  -8.526  33.660  1.00  0.00    -0.350 OA
HETATM   22  C9  UNL     1       9.250  -8.522  34.829  1.00  0.00     0.212 C 
HETATM   23  C11 UNL     1       9.047  -9.943  35.265  1.00  0.00     0.185 C 
HETATM   24  C12 UNL     1       9.317 -10.695  34.002  1.00  0.00     0.199 C 
BRANCH  22  25
HETATM   25  C10 UNL     1       7.898  -7.844  34.568  1.00  0.00     0.316 C 
BRANCH  25  26
HETATM   26  O5  UNL     1       6.964  -8.481  35.401  1.00  0.00    -0.367 OA
ATOM     27  H5  UNL     1       7.347  -9.315  35.649  1.00  0.00     0.212 HD
ENDBRANCH  25  26
BRANCH  25  28
HETATM   28  O6  UNL     1       7.950  -6.489  34.788  1.00  0.00    -0.252 OA
BRANCH  28  29
HETATM   29  N5  UNL     1       8.923  -6.157  35.639  1.00  0.00    -0.308 N 
ATOM     30  H52 UNL     1       9.884  -5.982  35.345  1.00  0.00     0.184 HD
ATOM     31  H51 UNL     1       8.588  -6.101  36.601  1.00  0.00     0.184 HD
ENDBRANCH  28  29
ENDBRANCH  25  28
ENDBRANCH  22  25
BRANCH  23  32
HETATM   32  O7  UNL     1       9.889 -10.297  36.317  1.00  0.00    -0.390 OA
ATOM     33  H7  UNL     1       9.419 -10.720  37.026  1.00  0.00     0.210 HD
ENDBRANCH  23  32
BRANCH  24  34
HETATM   34  O8  UNL     1       9.872 -11.922  34.336  1.00  0.00    -0.388 OA
ATOM     35  H8  UNL     1      10.623 -11.869  34.915  1.00  0.00     0.210 HD
ENDBRANCH  24  34
ENDBRANCH   5  20
BRANCH   1  36
HETATM   36  C5  UNL     1      14.564  -7.438  36.300  1.00  0.00     0.287 C 
HETATM   37  N2  UNL     1      15.771  -7.752  36.982  1.00  0.00    -0.346 N 
ATOM     38  H2  UNL     1      16.210  -8.658  36.822  1.00  0.00     0.163 HD
HETATM   39  O3  UNL     1      14.004  -6.320  36.474  1.00  0.00    -0.264 OA
BRANCH  37  40
HETATM   40  C4  UNL     1      16.379  -6.841  37.879  1.00  0.00     0.226 C 
BRANCH  40  41
HETATM   41  C3  UNL     1      17.470  -6.074  37.244  1.00  0.00     0.241 C 
HETATM   42  N1  UNL     1      18.366  -6.632  36.325  1.00  0.00    -0.297 N 
HETATM   43  C2  UNL     1      19.418  -5.871  35.768  1.00  0.00     0.220 C 
ATOM     44  H1  UNL     1      18.257  -7.609  36.051  1.00  0.00     0.171 HD
HETATM   45  C1  UNL     1      19.598  -4.454  36.148  1.00  0.00     0.117 C 
HETATM   46  O1  UNL     1      20.204  -6.430  34.934  1.00  0.00    -0.274 OA
HETATM   47  O2  UNL     1      17.539  -4.840  37.594  1.00  0.00    -0.271 OA
ENDBRANCH  40  41
ENDBRANCH  37  40
ENDBRANCH   1  36
BRANCH   9  48
HETATM   48  N7  UNL     1      12.206 -13.946  30.606  1.00  0.00    -0.234 N 
ATOM     49  H72 UNL     1      11.414 -13.752  29.993  1.00  0.00     0.174 HD
ATOM     50  H71 UNL     1      12.673 -14.852  30.574  1.00  0.00     0.174 HD
ENDBRANCH   9  48
TORSDOF 11
ENDMDL
MODEL 5
REMARK VINA RESULT: -6.292237564      3.017      9.849
REMARK  11 active torsions:
REMARK  status: ('A' for Active; 'I' for Inactive)
REMARK       I    between atoms: C2_2  and  N1_4 
REMARK       I    between atoms: N1_4  and  C3_6 
REMARK    1  A    between atoms: C3_6  and  C4_8 
REMARK    2  A    between atoms: C4_8  and  N2_9 
REMARK       I    between atoms: N2_9  and  C5_11 
REMARK    3  A    between atoms: C5_11  and  C6_13 
REMARK    4  A    between atoms: N4_17  and  C8_18 
REMARK    5  A    between atoms: C9_20  and  C10_21 
REMARK    6  A    between atoms: C10_21  and  O5_22 
REMARK    7  A    between atoms: C10_21  and  O6_24 
REMARK    8  A    between atoms: O6_24  and  N5_25 
REMARK    9  A    between atoms: C11_28  and  O7_29 
REMARK   10  A    between atoms: C12_31  and  O8_32 
REMARK   11  A    between atoms: C14_37  and  N7_38 
ROOT
HETATM    1  C6  UNL     1      21.024  -2.568  37.577  1.00  0.00     0.204 A 
HETATM    2  N3  UNL     1      20.081  -3.520  37.467  1.00  0.00    -0.167 N 
ATOM      3  H3  UNL     1      19.223  -3.591  38.013  1.00  0.00     0.186 HD
HETATM    4  C7  UNL     1      20.487  -4.363  36.497  1.00  0.00     0.712 A 
HETATM    5  N4  UNL     1      20.146  -5.481  35.830  1.00  0.00    -0.133 N 
HETATM    6  C13 UNL     1      21.092  -5.798  34.909  1.00  0.00     0.175 A 
HETATM    7  N6  UNL     1      21.198  -6.810  34.012  1.00  0.00    -0.173 N 
ATOM      8  H6  UNL     1      20.473  -7.524  33.941  1.00  0.00     0.186 HD
HETATM    9  C14 UNL     1      22.283  -6.848  33.220  1.00  0.00     0.679 A 
HETATM   10  N8  UNL     1      23.242  -5.894  33.321  1.00  0.00    -0.175 N 
ATOM     11  H8  UNL     1      24.055  -5.948  32.708  1.00  0.00     0.186 HD
HETATM   12  C15 UNL     1      23.161  -4.883  34.199  1.00  0.00     0.148 A 
HETATM   13  N9  UNL     1      24.072  -3.994  34.283  1.00  0.00    -0.383 N 
ATOM     14  H91 UNL     1      24.010  -3.224  34.950  1.00  0.00     0.157 HD
ATOM     15  H92 UNL     1      24.888  -4.040  33.672  1.00  0.00     0.157 HD
HETATM   16  C16 UNL     1      22.058  -4.821  35.024  1.00  0.00     0.164 A 
HETATM   17  N10 UNL     1      21.669  -3.958  35.997  1.00  0.00    -0.077 N 
HETATM   18  N11 UNL     1      21.978  -2.861  36.671  1.00  0.00    -0.259 N 
ATOM     19  H11 UNL     1      22.825  -2.311  36.525  1.00  0.00     0.190 HD
ENDROOT
BRANCH   5  20
HETATM   20  C8  UNL     1      18.940  -6.265  36.039  1.00  0.00     0.279 C 
HETATM   21  O4  UNL     1      17.934  -5.514  36.575  1.00  0.00    -0.350 OA
HETATM   22  C9  UNL     1      17.699  -5.846  37.877  1.00  0.00     0.212 C 
HETATM   23  C11 UNL     1      18.669  -6.918  38.277  1.00  0.00     0.185 C 
HETATM   24  C12 UNL     1      19.132  -7.425  36.951  1.00  0.00     0.199 C 
BRANCH  22  25
HETATM   25  C10 UNL     1      16.257  -6.364  37.982  1.00  0.00     0.316 C 
BRANCH  25  26
HETATM   26  O5  UNL     1      15.806  -6.032  39.270  1.00  0.00    -0.367 OA
ATOM     27  H5  UNL     1      15.247  -6.745  39.553  1.00  0.00     0.212 HD
ENDBRANCH  25  26
BRANCH  25  28
HETATM   28  O6  UNL     1      15.449  -5.844  37.000  1.00  0.00    -0.252 OA
BRANCH  28  29
HETATM   29  N5  UNL     1      15.304  -6.684  35.974  1.00  0.00    -0.308 N 
ATOM     30  H52 UNL     1      16.044  -6.871  35.297  1.00  0.00     0.184 HD
ATOM     31  H51 UNL     1      14.376  -7.107  35.954  1.00  0.00     0.184 HD
ENDBRANCH  28  29
ENDBRANCH  25  28
ENDBRANCH  22  25
BRANCH  23  32
HETATM   32  O7  UNL     1      19.697  -6.425  39.077  1.00  0.00    -0.390 OA
ATOM     33  H7  UNL     1      20.305  -7.105  39.341  1.00  0.00     0.210 HD
ENDBRANCH  23  32
BRANCH  24  34
HETATM   34  O8  UNL     1      20.449  -7.842  37.079  1.00  0.00    -0.388 OA
ATOM     35  H8  UNL     1      20.733  -7.978  37.976  1.00  0.00     0.210 HD
ENDBRANCH  24  34
ENDBRANCH   5  20
BRANCH   1  36
HETATM   36  C5  UNL     1      21.026  -1.433  38.496  1.00  0.00     0.287 C 
HETATM   37  N2  UNL     1      20.978  -0.096  38.015  1.00  0.00    -0.346 N 
ATOM     38  H2  UNL     1      20.934   0.069  37.010  1.00  0.00     0.163 HD
HETATM   39  O3  UNL     1      21.074  -1.665  39.737  1.00  0.00    -0.264 OA
BRANCH  37  40
HETATM   40  C4  UNL     1      20.991   1.013  38.895  1.00  0.00     0.226 C 
BRANCH  40  41
HETATM   41  C3  UNL     1      22.155   1.893  38.670  1.00  0.00     0.241 C 
HETATM   42  N1  UNL     1      22.248   2.782  37.593  1.00  0.00    -0.297 N 
HETATM   43  C2  UNL     1      23.397   3.581  37.395  1.00  0.00     0.220 C 
ATOM     44  H1  UNL     1      21.471   2.855  36.937  1.00  0.00     0.171 HD
HETATM   45  C1  UNL     1      24.538   3.493  38.330  1.00  0.00     0.117 C 
HETATM   46  O1  UNL     1      23.428   4.374  36.398  1.00  0.00    -0.274 OA
HETATM   47  O2  UNL     1      23.090   1.790  39.546  1.00  0.00    -0.271 OA
ENDBRANCH  40  41
ENDBRANCH  37  40
ENDBRANCH   1  36
BRANCH   9  48
HETATM   48  N7  UNL     1      22.419  -7.804  32.348  1.00  0.00    -0.234 N 
ATOM     49  H72 UNL     1      21.979  -8.708  32.520  1.00  0.00     0.174 HD
ATOM     50  H71 UNL     1      22.962  -7.648  31.499  1.00  0.00     0.174 HD
ENDBRANCH   9  48
TORSDOF 11
ENDMDL
