MODEL 1
REMARK VINA RESULT: -4.923693268      0.000      0.000
REMARK  13 active torsions:
REMARK  status: ('A' for Active; 'I' for Inactive)
REMARK    1  A    between atoms: N1_1  and  C1_4 
REMARK    2  A    between atoms: N4_12  and  N5_13 
REMARK    3  A    between atoms: N6_19  and  C6_20 
REMARK    4  A    between atoms: C7_21  and  O3_22 
REMARK    5  A    between atoms: C8_24  and  C9_25 
REMARK    6  A    between atoms: C9_25  and  O4_26 
REMARK    7  A    between atoms: C9_25  and  C10_28 
REMARK    8  A    between atoms: C10_28  and  O5_29 
REMARK    9  A    between atoms: C10_28  and  C11_31 
REMARK   10  A    between atoms: C11_31  and  O6_32 
REMARK   11  A    between atoms: C11_31  and  C12_34 
REMARK   12  A    between atoms: C12_34  and  O7_35 
REMARK   13  A    between atoms: C13_38  and  N7_39 
ROOT
HETATM    1  C6  UNL     1      18.090  -6.889  36.517  1.00  0.00     0.189 C 
HETATM    2  C7  UNL     1      16.812  -7.612  36.563  1.00  0.00     0.178 C 
HETATM    3  C8  UNL     1      15.906  -6.784  37.369  1.00  0.00     0.186 C 
HETATM    4  O8  UNL     1      16.269  -5.501  37.067  1.00  0.00    -0.353 OA
HETATM    5  C13 UNL     1      17.657  -5.506  36.827  1.00  0.00     0.259 C 
ENDROOT
BRANCH   1   6
HETATM    6  N6  UNL     1      19.188  -7.461  37.225  1.00  0.00    -0.163 N 
HETATM    7  C1  UNL     1      19.196  -8.059  38.426  1.00  0.00     0.681 A 
HETATM    8  N2  UNL     1      20.447  -8.450  38.692  1.00  0.00    -0.174 N 
HETATM    9  C2  UNL     1      21.256  -8.103  37.647  1.00  0.00     0.158 A 
ATOM     10  H2  UNL     1      20.749  -8.931  39.539  1.00  0.00     0.186 HD
HETATM   11  N3  UNL     1      22.573  -8.304  37.470  1.00  0.00    -0.290 N 
HETATM   12  C5  UNL     1      20.460  -7.476  36.713  1.00  0.00     0.167 A 
HETATM   13  C3  UNL     1      23.130  -7.872  36.330  1.00  0.00     0.349 A 
ATOM     14  H3  UNL     1      23.132  -8.771  38.183  1.00  0.00     0.172 HD
HETATM   15  O1  UNL     1      24.371  -8.036  36.115  1.00  0.00    -0.244 OA
HETATM   16  N4  UNL     1      22.389  -7.258  35.395  1.00  0.00    -0.173 N 
HETATM   17  C4  UNL     1      21.063  -7.046  35.550  1.00  0.00     0.301 A 
HETATM   18  O2  UNL     1      20.387  -6.476  34.665  1.00  0.00    -0.263 OA
BRANCH   7  19
HETATM   19  N1  UNL     1      18.227  -8.284  39.247  1.00  0.00    -0.234 N 
ATOM     20  H12 UNL     1      17.873  -9.165  39.617  1.00  0.00     0.174 HD
ATOM     21  H11 UNL     1      17.681  -7.523  39.652  1.00  0.00     0.174 HD
ENDBRANCH   7  19
BRANCH  16  22
HETATM   22  N5  UNL     1      22.975  -6.813  34.210  1.00  0.00    -0.332 N 
ATOM     23  H52 UNL     1      23.927  -7.123  34.012  1.00  0.00     0.177 HD
ATOM     24  H51 UNL     1      22.460  -6.201  33.578  1.00  0.00     0.177 HD
ENDBRANCH  16  22
ENDBRANCH   1   6
BRANCH   2  25
HETATM   25  O3  UNL     1      16.257  -7.584  35.245  1.00  0.00    -0.391 OA
ATOM     26  H3  UNL     1      15.521  -6.984  35.259  1.00  0.00     0.210 HD
ENDBRANCH   2  25
BRANCH   5  27
HETATM   27  N7  UNL     1      18.304  -4.706  37.785  1.00  0.00    -0.280 N 
HETATM   28  C14 UNL     1      18.032  -4.746  39.082  1.00  0.00     0.104 A 
HETATM   29  C15 UNL     1      18.670  -3.940  40.041  1.00  0.00     0.092 A 
HETATM   30  C16 UNL     1      19.619  -3.072  39.603  1.00  0.00     0.250 A 
HETATM   31  O9  UNL     1      20.258  -2.296  40.397  1.00  0.00    -0.268 OA
HETATM   32  N8  UNL     1      19.893  -3.030  38.290  1.00  0.00    -0.275 N 
HETATM   33  C17 UNL     1      19.250  -3.825  37.414  1.00  0.00     0.331 A 
ATOM     34  H8  UNL     1      20.604  -2.383  37.949  1.00  0.00     0.173 HD
HETATM   35  O10 UNL     1      19.594  -3.687  36.212  1.00  0.00    -0.246 OA
ENDBRANCH   5  27
BRANCH   3  36
HETATM   36  C9  UNL     1      14.427  -7.033  37.000  1.00  0.00     0.181 C 
BRANCH  36  37
HETATM   37  O4  UNL     1      14.097  -6.150  35.976  1.00  0.00    -0.390 OA
ATOM     38  H4  UNL     1      14.699  -6.307  35.258  1.00  0.00     0.210 HD
ENDBRANCH  36  37
BRANCH  36  39
HETATM   39  C10 UNL     1      13.532  -6.767  38.163  1.00  0.00     0.180 C 
BRANCH  39  40
HETATM   40  O5  UNL     1      14.262  -5.944  39.049  1.00  0.00    -0.390 OA
ATOM     41  H5  UNL     1      14.945  -5.532  38.533  1.00  0.00     0.210 HD
ENDBRANCH  39  40
BRANCH  39  42
HETATM   42  C11 UNL     1      13.269  -8.049  38.943  1.00  0.00     0.173 C 
BRANCH  42  43
HETATM   43  O6  UNL     1      13.731  -9.163  38.278  1.00  0.00    -0.391 OA
ATOM     44  H6  UNL     1      13.783  -9.922  38.847  1.00  0.00     0.210 HD
ENDBRANCH  42  43
BRANCH  42  45
HETATM   45  C12 UNL     1      13.982  -7.969  40.288  1.00  0.00     0.198 C 
BRANCH  45  46
HETATM   46  O7  UNL     1      15.205  -8.624  40.139  1.00  0.00    -0.398 OA
ATOM     47  H7  UNL     1      15.291  -9.219  40.875  1.00  0.00     0.209 HD
ENDBRANCH  45  46
ENDBRANCH  42  45
ENDBRANCH  39  42
ENDBRANCH  36  39
ENDBRANCH   3  36
TORSDOF 13
ENDMDL
MODEL 2
REMARK VINA RESULT: -4.770730119      1.096      1.367
REMARK  13 active torsions:
REMARK  status: ('A' for Active; 'I' for Inactive)
REMARK    1  A    between atoms: N1_1  and  C1_4 
REMARK    2  A    between atoms: N4_12  and  N5_13 
REMARK    3  A    between atoms: N6_19  and  C6_20 
REMARK    4  A    between atoms: C7_21  and  O3_22 
REMARK    5  A    between atoms: C8_24  and  C9_25 
REMARK    6  A    between atoms: C9_25  and  O4_26 
REMARK    7  A    between atoms: C9_25  and  C10_28 
REMARK    8  A    between atoms: C10_28  and  O5_29 
REMARK    9  A    between atoms: C10_28  and  C11_31 
REMARK   10  A    between atoms: C11_31  and  O6_32 
REMARK   11  A    between atoms: C11_31  and  C12_34 
REMARK   12  A    between atoms: C12_34  and  O7_35 
REMARK   13  A    between atoms: C13_38  and  N7_39 
ROOT
HETATM    1  C6  UNL     1      18.000  -6.635  36.500  1.00  0.00     0.189 C 
HETATM    2  C7  UNL     1      16.853  -7.536  36.327  1.00  0.00     0.178 C 
HETATM    3  C8  UNL     1      15.868  -7.139  37.340  1.00  0.00     0.186 C 
HETATM    4  O8  UNL     1      16.014  -5.783  37.434  1.00  0.00    -0.353 OA
HETATM    5  C13 UNL     1      17.373  -5.492  37.206  1.00  0.00     0.259 C 
ENDROOT
BRANCH   1   6
HETATM    6  N6  UNL     1      19.205  -7.204  37.008  1.00  0.00    -0.163 N 
HETATM    7  C1  UNL     1      19.360  -8.133  37.964  1.00  0.00     0.681 A 
HETATM    8  N2  UNL     1      20.668  -8.371  38.110  1.00  0.00    -0.174 N 
HETATM    9  C2  UNL     1      21.365  -7.587  37.234  1.00  0.00     0.158 A 
ATOM     10  H2  UNL     1      21.079  -9.031  38.769  1.00  0.00     0.186 HD
HETATM   11  N3  UNL     1      22.689  -7.499  37.019  1.00  0.00    -0.290 N 
HETATM   12  C5  UNL     1      20.440  -6.846  36.532  1.00  0.00     0.167 A 
HETATM   13  C3  UNL     1      23.121  -6.650  36.076  1.00  0.00     0.349 A 
ATOM     14  H3  UNL     1      23.346  -8.063  37.558  1.00  0.00     0.172 HD
HETATM   15  O1  UNL     1      24.362  -6.529  35.835  1.00  0.00    -0.244 OA
HETATM   16  N4  UNL     1      22.251  -5.911  35.369  1.00  0.00    -0.173 N 
HETATM   17  C4  UNL     1      20.916  -5.983  35.567  1.00  0.00     0.301 A 
HETATM   18  O2  UNL     1      20.120  -5.291  34.896  1.00  0.00    -0.263 OA
BRANCH   7  19
HETATM   19  N1  UNL     1      18.476  -8.759  38.663  1.00  0.00    -0.234 N 
ATOM     20  H12 UNL     1      17.490  -8.935  38.468  1.00  0.00     0.174 HD
ATOM     21  H11 UNL     1      18.708  -9.192  39.557  1.00  0.00     0.174 HD
ENDBRANCH   7  19
BRANCH  16  22
HETATM   22  N5  UNL     1      22.708  -5.031  34.388  1.00  0.00    -0.332 N 
ATOM     23  H52 UNL     1      22.365  -5.169  33.437  1.00  0.00     0.177 HD
ATOM     24  H51 UNL     1      23.360  -4.285  34.629  1.00  0.00     0.177 HD
ENDBRANCH  16  22
ENDBRANCH   1   6
BRANCH   2  25
HETATM   25  O3  UNL     1      16.240  -7.212  35.076  1.00  0.00    -0.391 OA
ATOM     26  H3  UNL     1      15.663  -6.472  35.225  1.00  0.00     0.210 HD
ENDBRANCH   2  25
BRANCH   5  27
HETATM   27  N7  UNL     1      17.931  -4.915  38.360  1.00  0.00    -0.280 N 
HETATM   28  C14 UNL     1      17.710  -5.363  39.588  1.00  0.00     0.104 A 
HETATM   29  C15 UNL     1      18.260  -4.783  40.745  1.00  0.00     0.092 A 
HETATM   30  C16 UNL     1      19.062  -3.698  40.584  1.00  0.00     0.250 A 
HETATM   31  O9  UNL     1      19.611  -3.098  41.573  1.00  0.00    -0.268 OA
HETATM   32  N8  UNL     1      19.285  -3.243  39.341  1.00  0.00    -0.275 N 
HETATM   33  C17 UNL     1      18.731  -3.838  38.267  1.00  0.00     0.331 A 
ATOM     34  H8  UNL     1      19.886  -2.430  39.207  1.00  0.00     0.173 HD
HETATM   35  O10 UNL     1      19.013  -3.314  37.159  1.00  0.00    -0.246 OA
ENDBRANCH   5  27
BRANCH   3  36
HETATM   36  C9  UNL     1      14.430  -7.505  36.911  1.00  0.00     0.181 C 
BRANCH  36  37
HETATM   37  O4  UNL     1      13.865  -6.372  36.332  1.00  0.00    -0.390 OA
ATOM     38  H4  UNL     1      13.367  -6.656  35.576  1.00  0.00     0.210 HD
ENDBRANCH  36  37
BRANCH  36  39
HETATM   39  C10 UNL     1      13.603  -7.898  38.088  1.00  0.00     0.180 C 
BRANCH  39  40
HETATM   40  O5  UNL     1      12.588  -8.751  37.598  1.00  0.00    -0.390 OA
ATOM     41  H5  UNL     1      13.018  -9.555  37.332  1.00  0.00     0.210 HD
ENDBRANCH  39  40
BRANCH  39  42
HETATM   42  C11 UNL     1      12.863  -6.692  38.654  1.00  0.00     0.173 C 
BRANCH  42  43
HETATM   43  O6  UNL     1      11.497  -6.835  38.562  1.00  0.00    -0.391 OA
ATOM     44  H6  UNL     1      11.065  -6.010  38.372  1.00  0.00     0.210 HD
ENDBRANCH  42  43
BRANCH  42  45
HETATM   45  C12 UNL     1      13.226  -6.530  40.125  1.00  0.00     0.198 C 
BRANCH  45  46
HETATM   46  O7  UNL     1      14.359  -5.717  40.177  1.00  0.00    -0.398 OA
ATOM     47  H7  UNL     1      15.106  -6.290  40.299  1.00  0.00     0.209 HD
ENDBRANCH  45  46
ENDBRANCH  42  45
ENDBRANCH  39  42
ENDBRANCH  36  39
ENDBRANCH   3  36
TORSDOF 13
ENDMDL
MODEL 3
REMARK VINA RESULT: -4.717859989      2.824      5.175
REMARK  13 active torsions:
REMARK  status: ('A' for Active; 'I' for Inactive)
REMARK    1  A    between atoms: N1_1  and  C1_4 
REMARK    2  A    between atoms: N4_12  and  N5_13 
REMARK    3  A    between atoms: N6_19  and  C6_20 
REMARK    4  A    between atoms: C7_21  and  O3_22 
REMARK    5  A    between atoms: C8_24  and  C9_25 
REMARK    6  A    between atoms: C9_25  and  O4_26 
REMARK    7  A    between atoms: C9_25  and  C10_28 
REMARK    8  A    between atoms: C10_28  and  O5_29 
REMARK    9  A    between atoms: C10_28  and  C11_31 
REMARK   10  A    between atoms: C11_31  and  O6_32 
REMARK   11  A    between atoms: C11_31  and  C12_34 
REMARK   12  A    between atoms: C12_34  and  O7_35 
REMARK   13  A    between atoms: C13_38  and  N7_39 
ROOT
HETATM    1  C6  UNL     1      20.023  -4.128  37.678  1.00  0.00     0.189 C 
HETATM    2  C7  UNL     1      18.684  -4.219  37.083  1.00  0.00     0.178 C 
HETATM    3  C8  UNL     1      18.296  -5.633  37.171  1.00  0.00     0.186 C 
HETATM    4  O8  UNL     1      18.853  -6.059  38.344  1.00  0.00    -0.353 OA
HETATM    5  C13 UNL     1      20.057  -5.349  38.517  1.00  0.00     0.259 C 
ENDROOT
BRANCH   1   6
HETATM    6  N6  UNL     1      21.109  -3.845  36.798  1.00  0.00    -0.163 N 
HETATM    7  C1  UNL     1      21.374  -4.370  35.592  1.00  0.00     0.681 A 
HETATM    8  N2  UNL     1      22.493  -3.805  35.125  1.00  0.00    -0.174 N 
HETATM    9  C2  UNL     1      22.954  -2.901  36.041  1.00  0.00     0.158 A 
ATOM     10  H2  UNL     1      22.932  -4.014  34.229  1.00  0.00     0.186 HD
HETATM   11  N3  UNL     1      24.030  -2.097  35.995  1.00  0.00    -0.290 N 
HETATM   12  C5  UNL     1      22.077  -2.924  37.104  1.00  0.00     0.167 A 
HETATM   13  C3  UNL     1      24.253  -1.281  37.036  1.00  0.00     0.349 A 
ATOM     14  H3  UNL     1      24.658  -2.107  35.193  1.00  0.00     0.172 HD
HETATM   15  O1  UNL     1      25.256  -0.502  37.042  1.00  0.00    -0.244 OA
HETATM   16  N4  UNL     1      23.421  -1.271  38.089  1.00  0.00    -0.173 N 
HETATM   17  C4  UNL     1      22.333  -2.070  38.157  1.00  0.00     0.301 A 
HETATM   18  O2  UNL     1      21.567  -2.044  39.145  1.00  0.00    -0.263 OA
BRANCH   7  19
HETATM   19  N1  UNL     1      20.724  -5.249  34.909  1.00  0.00    -0.234 N 
ATOM     20  H12 UNL     1      20.571  -5.316  33.903  1.00  0.00     0.174 HD
ATOM     21  H11 UNL     1      20.269  -6.045  35.356  1.00  0.00     0.174 HD
ENDBRANCH   7  19
BRANCH  16  22
HETATM   22  N5  UNL     1      23.659  -0.418  39.167  1.00  0.00    -0.332 N 
ATOM     23  H52 UNL     1      24.626  -0.307  39.473  1.00  0.00     0.177 HD
ATOM     24  H51 UNL     1      22.884   0.067  39.620  1.00  0.00     0.177 HD
ENDBRANCH  16  22
ENDBRANCH   1   6
BRANCH   2  25
HETATM   25  O3  UNL     1      17.780  -3.538  37.958  1.00  0.00    -0.391 OA
ATOM     26  H3  UNL     1      17.771  -4.011  38.782  1.00  0.00     0.210 HD
ENDBRANCH   2  25
BRANCH   5  27
HETATM   27  N7  UNL     1      21.139  -6.247  38.506  1.00  0.00    -0.280 N 
HETATM   28  C14 UNL     1      21.198  -7.319  37.727  1.00  0.00     0.104 A 
HETATM   29  C15 UNL     1      22.275  -8.223  37.720  1.00  0.00     0.092 A 
HETATM   30  C16 UNL     1      23.309  -7.977  38.566  1.00  0.00     0.250 A 
HETATM   31  O9  UNL     1      24.336  -8.739  38.635  1.00  0.00    -0.268 OA
HETATM   32  N8  UNL     1      23.249  -6.893  39.356  1.00  0.00    -0.275 N 
HETATM   33  C17 UNL     1      22.192  -6.059  39.322  1.00  0.00     0.331 A 
ATOM     34  H8  UNL     1      24.019  -6.697  39.994  1.00  0.00     0.173 HD
HETATM   35  O10 UNL     1      22.252  -5.084  40.113  1.00  0.00    -0.246 OA
ENDBRANCH   5  27
BRANCH   3  36
HETATM   36  C9  UNL     1      16.761  -5.801  37.203  1.00  0.00     0.181 C 
BRANCH  36  37
HETATM   37  O4  UNL     1      16.370  -5.820  38.539  1.00  0.00    -0.390 OA
ATOM     38  H4  UNL     1      17.113  -6.118  39.050  1.00  0.00     0.210 HD
ENDBRANCH  36  37
BRANCH  36  39
HETATM   39  C10 UNL     1      16.350  -7.088  36.570  1.00  0.00     0.180 C 
BRANCH  39  40
HETATM   40  O5  UNL     1      16.579  -6.944  35.183  1.00  0.00    -0.390 OA
ATOM     41  H5  UNL     1      17.483  -6.669  35.088  1.00  0.00     0.210 HD
ENDBRANCH  39  40
BRANCH  39  42
HETATM   42  C11 UNL     1      14.846  -7.296  36.701  1.00  0.00     0.173 C 
BRANCH  42  43
HETATM   43  O6  UNL     1      14.132  -6.288  36.093  1.00  0.00    -0.391 OA
ATOM     44  H6  UNL     1      13.543  -6.621  35.425  1.00  0.00     0.210 HD
ENDBRANCH  42  43
BRANCH  42  45
HETATM   45  C12 UNL     1      14.465  -8.614  36.039  1.00  0.00     0.198 C 
BRANCH  45  46
HETATM   46  O7  UNL     1      13.969  -8.305  34.772  1.00  0.00    -0.398 OA
ATOM     47  H7  UNL     1      13.028  -8.425  34.807  1.00  0.00     0.209 HD
ENDBRANCH  45  46
ENDBRANCH  42  45
ENDBRANCH  39  42
ENDBRANCH  36  39
ENDBRANCH   3  36
TORSDOF 13
ENDMDL
MODEL 4
REMARK VINA RESULT: -4.644004847      1.278      1.953
REMARK  13 active torsions:
REMARK  status: ('A' for Active; 'I' for Inactive)
REMARK    1  A    between atoms: N1_1  and  C1_4 
REMARK    2  A    between atoms: N4_12  and  N5_13 
REMARK    3  A    between atoms: N6_19  and  C6_20 
REMARK    4  A    between atoms: C7_21  and  O3_22 
REMARK    5  A    between atoms: C8_24  and  C9_25 
REMARK    6  A    between atoms: C9_25  and  O4_26 
REMARK    7  A    between atoms: C9_25  and  C10_28 
REMARK    8  A    between atoms: C10_28  and  O5_29 
REMARK    9  A    between atoms: C10_28  and  C11_31 
REMARK   10  A    between atoms: C11_31  and  O6_32 
REMARK   11  A    between atoms: C11_31  and  C12_34 
REMARK   12  A    between atoms: C12_34  and  O7_35 
REMARK   13  A    between atoms: C13_38  and  N7_39 
ROOT
HETATM    1  C6  UNL     1      18.113  -6.540  36.561  1.00  0.00     0.189 C 
HETATM    2  C7  UNL     1      16.900  -7.345  36.364  1.00  0.00     0.178 C 
HETATM    3  C8  UNL     1      15.909  -6.826  37.315  1.00  0.00     0.186 C 
HETATM    4  O8  UNL     1      16.169  -5.484  37.368  1.00  0.00    -0.353 OA
HETATM    5  C13 UNL     1      17.558  -5.321  37.195  1.00  0.00     0.259 C 
ENDROOT
BRANCH   1   6
HETATM    6  N6  UNL     1      19.239  -7.191  37.145  1.00  0.00    -0.163 N 
HETATM    7  C1  UNL     1      19.268  -8.096  38.136  1.00  0.00     0.681 A 
HETATM    8  N2  UNL     1      20.542  -8.438  38.354  1.00  0.00    -0.174 N 
HETATM    9  C2  UNL     1      21.346  -7.746  37.491  1.00  0.00     0.158 A 
ATOM     10  H2  UNL     1      20.864  -9.108  39.053  1.00  0.00     0.186 HD
HETATM   11  N3  UNL     1      22.681  -7.777  37.341  1.00  0.00    -0.290 N 
HETATM   12  C5  UNL     1      20.521  -6.954  36.722  1.00  0.00     0.167 A 
HETATM   13  C3  UNL     1      23.228  -6.999  36.396  1.00  0.00     0.349 A 
ATOM     14  H3  UNL     1      23.261  -8.375  37.929  1.00  0.00     0.172 HD
HETATM   15  O1  UNL     1      24.485  -6.991  36.215  1.00  0.00    -0.244 OA
HETATM   16  N4  UNL     1      22.459  -6.215  35.625  1.00  0.00    -0.173 N 
HETATM   17  C4  UNL     1      21.115  -6.168  35.757  1.00  0.00     0.301 A 
HETATM   18  O2  UNL     1      20.414  -5.434  35.026  1.00  0.00    -0.263 OA
BRANCH   7  19
HETATM   19  N1  UNL     1      18.301  -8.622  38.807  1.00  0.00    -0.234 N 
ATOM     20  H12 UNL     1      17.670  -8.200  39.487  1.00  0.00     0.174 HD
ATOM     21  H11 UNL     1      18.045  -9.603  38.697  1.00  0.00     0.174 HD
ENDBRANCH   7  19
BRANCH  16  22
HETATM   22  N5  UNL     1      23.036  -5.410  34.642  1.00  0.00    -0.332 N 
ATOM     23  H52 UNL     1      22.545  -4.551  34.391  1.00  0.00     0.177 HD
ATOM     24  H51 UNL     1      23.913  -5.685  34.201  1.00  0.00     0.177 HD
ENDBRANCH  16  22
ENDBRANCH   1   6
BRANCH   2  25
HETATM   25  O3  UNL     1      16.374  -7.019  35.074  1.00  0.00    -0.391 OA
ATOM     26  H3  UNL     1      15.706  -7.662  34.869  1.00  0.00     0.210 HD
ENDBRANCH   2  25
BRANCH   5  27
HETATM   27  N7  UNL     1      18.112  -4.749  38.353  1.00  0.00    -0.280 N 
HETATM   28  C14 UNL     1      17.830  -5.157  39.583  1.00  0.00     0.104 A 
HETATM   29  C15 UNL     1      18.376  -4.581  40.744  1.00  0.00     0.092 A 
HETATM   30  C16 UNL     1      19.242  -3.546  40.585  1.00  0.00     0.250 A 
HETATM   31  O9  UNL     1      19.794  -2.955  41.578  1.00  0.00    -0.268 OA
HETATM   32  N8  UNL     1      19.526  -3.132  39.341  1.00  0.00    -0.275 N 
HETATM   33  C17 UNL     1      18.973  -3.720  38.263  1.00  0.00     0.331 A 
ATOM     34  H8  UNL     1      20.175  -2.356  39.209  1.00  0.00     0.173 HD
HETATM   35  O10 UNL     1      19.316  -3.237  37.153  1.00  0.00    -0.246 OA
ENDBRANCH   5  27
BRANCH   3  36
HETATM   36  C9  UNL     1      14.466  -7.082  36.830  1.00  0.00     0.181 C 
BRANCH  36  37
HETATM   37  O4  UNL     1      13.624  -6.251  37.564  1.00  0.00    -0.390 OA
ATOM     38  H4  UNL     1      13.535  -6.628  38.431  1.00  0.00     0.210 HD
ENDBRANCH  36  37
BRANCH  36  39
HETATM   39  C10 UNL     1      14.062  -8.498  37.072  1.00  0.00     0.180 C 
BRANCH  39  40
HETATM   40  O5  UNL     1      15.253  -9.260  37.064  1.00  0.00    -0.390 OA
ATOM     41  H5  UNL     1      15.092 -10.014  37.619  1.00  0.00     0.210 HD
ENDBRANCH  39  40
BRANCH  39  42
HETATM   42  C11 UNL     1      13.246  -9.032  35.901  1.00  0.00     0.173 C 
BRANCH  42  43
HETATM   43  O6  UNL     1      12.681  -8.018  35.160  1.00  0.00    -0.391 OA
ATOM     44  H6  UNL     1      12.974  -8.032  34.256  1.00  0.00     0.210 HD
ENDBRANCH  42  43
BRANCH  42  45
HETATM   45  C12 UNL     1      14.158  -9.839  34.985  1.00  0.00     0.198 C 
BRANCH  45  46
HETATM   46  O7  UNL     1      14.599  -8.972  33.984  1.00  0.00    -0.398 OA
ATOM     47  H7  UNL     1      15.507  -9.189  33.810  1.00  0.00     0.209 HD
ENDBRANCH  45  46
ENDBRANCH  42  45
ENDBRANCH  39  42
ENDBRANCH  36  39
ENDBRANCH   3  36
TORSDOF 13
ENDMDL
MODEL 5
REMARK VINA RESULT: -4.633966601      4.102      6.808
REMARK  13 active torsions:
REMARK  status: ('A' for Active; 'I' for Inactive)
REMARK    1  A    between atoms: N1_1  and  C1_4 
REMARK    2  A    between atoms: N4_12  and  N5_13 
REMARK    3  A    between atoms: N6_19  and  C6_20 
REMARK    4  A    between atoms: C7_21  and  O3_22 
REMARK    5  A    between atoms: C8_24  and  C9_25 
REMARK    6  A    between atoms: C9_25  and  O4_26 
REMARK    7  A    between atoms: C9_25  and  C10_28 
REMARK    8  A    between atoms: C10_28  and  O5_29 
REMARK    9  A    between atoms: C10_28  and  C11_31 
REMARK   10  A    between atoms: C11_31  and  O6_32 
REMARK   11  A    between atoms: C11_31  and  C12_34 
REMARK   12  A    between atoms: C12_34  and  O7_35 
REMARK   13  A    between atoms: C13_38  and  N7_39 
ROOT
HETATM    1  C6  UNL     1      14.280  -8.437  35.846  1.00  0.00     0.189 C 
HETATM    2  C7  UNL     1      14.312  -9.453  34.785  1.00  0.00     0.178 C 
HETATM    3  C8  UNL     1      12.978 -10.067  34.770  1.00  0.00     0.186 C 
HETATM    4  O8  UNL     1      12.134  -9.038  35.086  1.00  0.00    -0.353 OA
HETATM    5  C13 UNL     1      12.824  -8.189  35.972  1.00  0.00     0.259 C 
ENDROOT
BRANCH   1   6
HETATM    6  N6  UNL     1      15.057  -8.691  37.015  1.00  0.00    -0.163 N 
HETATM    7  C1  UNL     1      15.085  -9.789  37.785  1.00  0.00     0.681 A 
HETATM    8  N2  UNL     1      15.966  -9.588  38.771  1.00  0.00    -0.174 N 
HETATM    9  C2  UNL     1      16.516  -8.344  38.632  1.00  0.00     0.158 A 
ATOM     10  H2  UNL     1      16.192 -10.256  39.508  1.00  0.00     0.186 HD
HETATM   11  N3  UNL     1      17.447  -7.724  39.377  1.00  0.00    -0.290 N 
HETATM   12  C5  UNL     1      15.942  -7.773  37.518  1.00  0.00     0.167 A 
HETATM   13  C3  UNL     1      17.830  -6.492  39.011  1.00  0.00     0.349 A 
ATOM     14  H3  UNL     1      17.851  -8.177  40.196  1.00  0.00     0.172 HD
HETATM   15  O1  UNL     1      18.706  -5.862  39.681  1.00  0.00    -0.244 OA
HETATM   16  N4  UNL     1      17.296  -5.901  37.931  1.00  0.00    -0.173 N 
HETATM   17  C4  UNL     1      16.359  -6.506  37.167  1.00  0.00     0.301 A 
HETATM   18  O2  UNL     1      15.876  -5.942  36.161  1.00  0.00    -0.263 OA
BRANCH   7  19
HETATM   19  N1  UNL     1      14.436 -10.898  37.673  1.00  0.00    -0.234 N 
ATOM     20  H12 UNL     1      13.573 -11.105  37.171  1.00  0.00     0.174 HD
ATOM     21  H11 UNL     1      14.768 -11.759  38.108  1.00  0.00     0.174 HD
ENDBRANCH   7  19
BRANCH  16  22
HETATM   22  N5  UNL     1      17.701  -4.620  37.555  1.00  0.00    -0.332 N 
ATOM     23  H52 UNL     1      17.226  -3.830  37.994  1.00  0.00     0.177 HD
ATOM     24  H51 UNL     1      18.443  -4.495  36.867  1.00  0.00     0.177 HD
ENDBRANCH  16  22
ENDBRANCH   1   6
BRANCH   2  25
HETATM   25  O3  UNL     1      14.410  -8.763  33.536  1.00  0.00    -0.391 OA
ATOM     26  H3  UNL     1      14.535  -7.842  33.729  1.00  0.00     0.210 HD
ENDBRANCH   2  25
BRANCH   5  27
HETATM   27  N7  UNL     1      12.163  -8.166  37.213  1.00  0.00    -0.280 N 
HETATM   28  C14 UNL     1      11.455  -9.180  37.689  1.00  0.00     0.104 A 
HETATM   29  C15 UNL     1      10.786  -9.157  38.925  1.00  0.00     0.092 A 
HETATM   30  C16 UNL     1      10.875  -8.023  39.667  1.00  0.00     0.250 A 
HETATM   31  O9  UNL     1      10.302  -7.902  40.806  1.00  0.00    -0.268 OA
HETATM   32  N8  UNL     1      11.590  -6.994  39.185  1.00  0.00    -0.275 N 
HETATM   33  C17 UNL     1      12.211  -7.071  37.992  1.00  0.00     0.331 A 
ATOM     34  H8  UNL     1      11.664  -6.138  39.733  1.00  0.00     0.173 HD
HETATM   35  O10 UNL     1      12.844  -6.040  37.651  1.00  0.00    -0.246 OA
ENDBRANCH   5  27
BRANCH   3  36
HETATM   36  C9  UNL     1      12.634 -10.648  33.382  1.00  0.00     0.181 C 
BRANCH  36  37
HETATM   37  O4  UNL     1      11.353 -10.215  33.052  1.00  0.00    -0.390 OA
ATOM     38  H4  UNL     1      11.142 -10.572  32.197  1.00  0.00     0.210 HD
ENDBRANCH  36  37
BRANCH  36  39
HETATM   39  C10 UNL     1      12.638 -12.140  33.409  1.00  0.00     0.180 C 
BRANCH  39  40
HETATM   40  O5  UNL     1      13.382 -12.517  34.550  1.00  0.00    -0.390 OA
ATOM     41  H5  UNL     1      13.335 -13.465  34.600  1.00  0.00     0.210 HD
ENDBRANCH  39  40
BRANCH  39  42
HETATM   42  C11 UNL     1      13.422 -12.697  32.227  1.00  0.00     0.173 C 
BRANCH  42  43
HETATM   43  O6  UNL     1      13.027 -12.133  31.034  1.00  0.00    -0.391 OA
ATOM     44  H6  UNL     1      13.385 -12.596  30.285  1.00  0.00     0.210 HD
ENDBRANCH  42  43
BRANCH  42  45
HETATM   45  C12 UNL     1      14.903 -12.399  32.426  1.00  0.00     0.198 C 
BRANCH  45  46
HETATM   46  O7  UNL     1      15.543 -12.697  31.222  1.00  0.00    -0.398 OA
ATOM     47  H7  UNL     1      15.340 -11.991  30.619  1.00  0.00     0.209 HD
ENDBRANCH  45  46
ENDBRANCH  42  45
ENDBRANCH  39  42
ENDBRANCH  36  39
ENDBRANCH   3  36
TORSDOF 13
ENDMDL
