MODEL 1
REMARK VINA RESULT: -5.501421641      0.000      0.000
REMARK  1 active torsions:
REMARK  status: ('A' for Active; 'I' for Inactive)
REMARK       I    between atoms: N3_4  and  C2_6 
REMARK    1  A    between atoms: C2_6  and  C3_8 
ROOT
HETATM    1  C3  UNL     1      -4.187  36.458  -2.926  1.00  0.00     0.149 A 
HETATM    2  N4  UNL     1      -5.193  36.477  -2.104  1.00  0.00    -0.287 N 
ATOM      3  H4  UNL     1      -6.146  36.515  -2.467  1.00  0.00     0.188 HD
HETATM    4  N5  UNL     1      -4.991  36.450  -0.826  1.00  0.00    -0.268 N 
ATOM      5  H5  UNL     1      -5.683  36.460  -0.077  1.00  0.00     0.195 HD
HETATM    6  S1  UNL     1      -3.316  36.391  -0.693  1.00  0.00     0.019 SA
HETATM    7  C4  UNL     1      -2.934  36.407  -2.355  1.00  0.00     0.138 A 
HETATM    8  N6  UNL     1      -1.658  36.375  -3.031  1.00  0.00    -0.090 NA
ENDROOT
BRANCH   1   9
HETATM    9  C2  UNL     1      -4.363  36.488  -4.402  1.00  0.00     0.278 C 
HETATM   10  N3  UNL     1      -3.383  37.037  -5.270  1.00  0.00    -0.298 N 
HETATM   11  C1  UNL     1      -3.683  37.506  -6.410  1.00  0.00     0.203 C 
ATOM     12  H3  UNL     1      -2.409  37.054  -4.969  1.00  0.00     0.171 HD
HETATM   13  N1  UNL     1      -4.983  37.547  -6.951  1.00  0.00    -0.066 NA
HETATM   14  N2  UNL     1      -2.611  38.039  -7.213  1.00  0.00    -0.066 NA
HETATM   15  O1  UNL     1      -5.401  36.020  -4.925  1.00  0.00    -0.265 OA
ENDBRANCH   1   9
TORSDOF 1
ENDMDL
MODEL 2
REMARK VINA RESULT: -5.215995066      2.575      4.979
REMARK  1 active torsions:
REMARK  status: ('A' for Active; 'I' for Inactive)
REMARK       I    between atoms: N3_4  and  C2_6 
REMARK    1  A    between atoms: C2_6  and  C3_8 
ROOT
HETATM    1  C3  UNL     1      -3.269  36.967  -4.404  1.00  0.00     0.149 A 
HETATM    2  N4  UNL     1      -2.396  37.670  -5.059  1.00  0.00    -0.287 N 
ATOM      3  H4  UNL     1      -1.552  38.000  -4.589  1.00  0.00     0.188 HD
HETATM    4  N5  UNL     1      -2.590  37.953  -6.307  1.00  0.00    -0.268 N 
ATOM      5  H5  UNL     1      -1.992  38.491  -6.934  1.00  0.00     0.195 HD
HETATM    6  S1  UNL     1      -4.064  37.223  -6.652  1.00  0.00     0.019 SA
HETATM    7  C4  UNL     1      -4.379  36.559  -5.112  1.00  0.00     0.138 A 
HETATM    8  N6  UNL     1      -5.492  35.775  -4.632  1.00  0.00    -0.090 NA
ENDROOT
BRANCH   1   9
HETATM    9  C2  UNL     1      -3.095  36.614  -2.970  1.00  0.00     0.278 C 
HETATM   10  N3  UNL     1      -3.987  37.069  -1.964  1.00  0.00    -0.298 N 
HETATM   11  C1  UNL     1      -3.626  37.201  -0.756  1.00  0.00     0.203 C 
ATOM     12  H3  UNL     1      -4.948  37.297  -2.221  1.00  0.00     0.171 HD
HETATM   13  N1  UNL     1      -2.335  36.925  -0.263  1.00  0.00    -0.066 NA
HETATM   14  N2  UNL     1      -4.611  37.670   0.186  1.00  0.00    -0.066 NA
HETATM   15  O1  UNL     1      -2.138  35.891  -2.609  1.00  0.00    -0.265 OA
ENDBRANCH   1   9
TORSDOF 1
ENDMDL
MODEL 3
REMARK VINA RESULT: -5.208238866      2.125      2.723
REMARK  1 active torsions:
REMARK  status: ('A' for Active; 'I' for Inactive)
REMARK       I    between atoms: N3_4  and  C2_6 
REMARK    1  A    between atoms: C2_6  and  C3_8 
ROOT
HETATM    1  C3  UNL     1      -3.783  36.484  -2.579  1.00  0.00     0.149 A 
HETATM    2  N4  UNL     1      -3.856  36.569  -1.285  1.00  0.00    -0.287 N 
ATOM      3  H4  UNL     1      -3.020  36.791  -0.742  1.00  0.00     0.188 HD
HETATM    4  N5  UNL     1      -4.984  36.373  -0.681  1.00  0.00    -0.268 N 
ATOM      5  H5  UNL     1      -5.179  36.408   0.320  1.00  0.00     0.195 HD
HETATM    6  S1  UNL     1      -6.051  36.047  -1.937  1.00  0.00     0.019 SA
HETATM    7  C4  UNL     1      -4.955  36.182  -3.237  1.00  0.00     0.138 A 
HETATM    8  N6  UNL     1      -5.154  36.030  -4.659  1.00  0.00    -0.090 NA
ENDROOT
BRANCH   1   9
HETATM    9  C2  UNL     1      -2.513  36.700  -3.322  1.00  0.00     0.278 C 
HETATM   10  N3  UNL     1      -2.456  37.466  -4.516  1.00  0.00    -0.298 N 
HETATM   11  C1  UNL     1      -1.559  37.276  -5.392  1.00  0.00     0.203 C 
ATOM     12  H3  UNL     1      -3.156  38.190  -4.674  1.00  0.00     0.171 HD
HETATM   13  N1  UNL     1      -0.533  36.314  -5.305  1.00  0.00    -0.066 NA
HETATM   14  N2  UNL     1      -1.591  38.109  -6.568  1.00  0.00    -0.066 NA
HETATM   15  O1  UNL     1      -1.443  36.203  -2.903  1.00  0.00    -0.265 OA
ENDBRANCH   1   9
TORSDOF 1
ENDMDL
MODEL 4
REMARK VINA RESULT: -5.049205218      3.026      4.468
REMARK  1 active torsions:
REMARK  status: ('A' for Active; 'I' for Inactive)
REMARK       I    between atoms: N3_4  and  C2_6 
REMARK    1  A    between atoms: C2_6  and  C3_8 
ROOT
HETATM    1  C3  UNL     1      -4.252  36.922  -1.906  1.00  0.00     0.149 A 
HETATM    2  N4  UNL     1      -5.462  36.591  -1.569  1.00  0.00    -0.287 N 
ATOM      3  H4  UNL     1      -5.808  36.812  -0.635  1.00  0.00     0.188 HD
HETATM    4  N5  UNL     1      -6.230  35.980  -2.413  1.00  0.00    -0.268 N 
ATOM      5  H5  UNL     1      -7.191  35.666  -2.280  1.00  0.00     0.195 HD
HETATM    6  S1  UNL     1      -5.268  35.830  -3.783  1.00  0.00     0.019 SA
HETATM    7  C4  UNL     1      -3.863  36.588  -3.185  1.00  0.00     0.138 A 
HETATM    8  N6  UNL     1      -2.585  36.837  -3.811  1.00  0.00    -0.090 NA
ENDROOT
BRANCH   1   9
HETATM    9  C2  UNL     1      -3.328  37.623  -0.975  1.00  0.00     0.278 C 
HETATM   10  N3  UNL     1      -2.588  38.770  -1.365  1.00  0.00    -0.298 N 
HETATM   11  C1  UNL     1      -1.492  39.082  -0.809  1.00  0.00     0.203 C 
ATOM     12  H3  UNL     1      -2.948  39.360  -2.115  1.00  0.00     0.171 HD
HETATM   13  N1  UNL     1      -0.880  38.360   0.235  1.00  0.00    -0.066 NA
HETATM   14  N2  UNL     1      -0.820  40.267  -1.280  1.00  0.00    -0.066 NA
HETATM   15  O1  UNL     1      -3.180  37.212   0.198  1.00  0.00    -0.265 OA
ENDBRANCH   1   9
TORSDOF 1
ENDMDL
MODEL 5
REMARK VINA RESULT: -5.000529454      2.665      4.599
REMARK  1 active torsions:
REMARK  status: ('A' for Active; 'I' for Inactive)
REMARK       I    between atoms: N3_4  and  C2_6 
REMARK    1  A    between atoms: C2_6  and  C3_8 
ROOT
HETATM    1  C3  UNL     1      -3.609  36.244  -1.996  1.00  0.00     0.149 A 
HETATM    2  N4  UNL     1      -4.424  35.859  -1.060  1.00  0.00    -0.287 N 
ATOM      3  H4  UNL     1      -4.085  35.756  -0.103  1.00  0.00     0.188 HD
HETATM    4  N5  UNL     1      -5.663  35.605  -1.337  1.00  0.00    -0.268 N 
ATOM      5  H5  UNL     1      -6.401  35.298  -0.704  1.00  0.00     0.195 HD
HETATM    6  S1  UNL     1      -5.766  35.903  -2.987  1.00  0.00     0.019 SA
HETATM    7  C4  UNL     1      -4.146  36.359  -3.260  1.00  0.00     0.138 A 
HETATM    8  N6  UNL     1      -3.470  36.764  -4.471  1.00  0.00    -0.090 NA
ENDROOT
BRANCH   1   9
HETATM    9  C2  UNL     1      -2.178  36.548  -1.733  1.00  0.00     0.278 C 
HETATM   10  N3  UNL     1      -1.744  37.157  -0.527  1.00  0.00    -0.298 N 
HETATM   11  C1  UNL     1      -0.678  37.843  -0.467  1.00  0.00     0.203 C 
ATOM     12  H3  UNL     1      -2.305  37.041   0.317  1.00  0.00     0.171 HD
HETATM   13  N1  UNL     1       0.189  38.086  -1.551  1.00  0.00    -0.066 NA
HETATM   14  N2  UNL     1      -0.328  38.419   0.807  1.00  0.00    -0.066 NA
HETATM   15  O1  UNL     1      -1.305  36.266  -2.585  1.00  0.00    -0.265 OA
ENDBRANCH   1   9
TORSDOF 1
ENDMDL
