MODEL 1
REMARK VINA RESULT: -5.889266624      0.000      0.000
REMARK  2 active torsions:
REMARK  status: ('A' for Active; 'I' for Inactive)
REMARK    1  A    between atoms: C2_3  and  C3_4 
REMARK    2  A    between atoms: C6_15  and  N5_16 
ROOT
HETATM    1  N1  UNL     1      -3.839  36.529  -6.444  1.00  0.00    -0.197 NA
HETATM    2  C1  UNL     1      -4.434  36.226  -5.499  1.00  0.00     0.065 C 
HETATM    3  C2  UNL     1      -5.182  35.845  -4.276  1.00  0.00     0.185 C 
ENDROOT
BRANCH   3   4
HETATM    4  C3  UNL     1      -4.400  36.267  -3.087  1.00  0.00     0.070 C 
HETATM    5  N2  UNL     1      -3.125  36.656  -3.232  1.00  0.00    -0.318 N 
HETATM    6  C4  UNL     1      -2.175  36.877  -2.276  1.00  0.00     0.315 C 
ATOM      7  H2  UNL     1      -2.821  36.809  -4.194  1.00  0.00     0.169 HD
HETATM    8  O1  UNL     1      -0.988  37.016  -2.652  1.00  0.00    -0.262 OA
HETATM    9  C5  UNL     1      -2.408  36.961  -0.930  1.00  0.00     0.328 C 
HETATM   10  O2  UNL     1      -1.538  37.607  -0.288  1.00  0.00    -0.261 OA
HETATM   11  N3  UNL     1      -3.418  36.468  -0.168  1.00  0.00    -0.260 N 
HETATM   12  N4  UNL     1      -4.626  36.186  -0.616  1.00  0.00    -0.281 N 
ATOM     13  H3  UNL     1      -3.229  36.303   0.820  1.00  0.00     0.190 HD
HETATM   14  C6  UNL     1      -5.100  36.214  -1.894  1.00  0.00     0.137 C 
ATOM     15  H4  UNL     1      -5.302  35.908   0.094  1.00  0.00     0.188 HD
BRANCH  14  16
HETATM   16  N5  UNL     1      -6.378  36.188  -2.046  1.00  0.00    -0.383 N 
ATOM     17  H52 UNL     1      -6.746  35.576  -2.775  1.00  0.00     0.157 HD
ATOM     18  H51 UNL     1      -6.880  36.798  -1.401  1.00  0.00     0.157 HD
ENDBRANCH  14  16
ENDBRANCH   3   4
TORSDOF 2
ENDMDL
MODEL 2
REMARK VINA RESULT: -5.649330557      1.199      1.398
REMARK  2 active torsions:
REMARK  status: ('A' for Active; 'I' for Inactive)
REMARK    1  A    between atoms: C2_3  and  C3_4 
REMARK    2  A    between atoms: C6_15  and  N5_16 
ROOT
HETATM    1  N1  UNL     1      -4.798  35.530  -5.738  1.00  0.00    -0.197 NA
HETATM    2  C1  UNL     1      -5.010  35.774  -4.626  1.00  0.00     0.065 C 
HETATM    3  C2  UNL     1      -5.262  36.092  -3.200  1.00  0.00     0.185 C 
ENDROOT
BRANCH   3   4
HETATM    4  C3  UNL     1      -3.980  36.487  -2.564  1.00  0.00     0.070 C 
HETATM    5  N2  UNL     1      -2.941  36.853  -3.331  1.00  0.00    -0.318 N 
HETATM    6  C4  UNL     1      -1.636  37.046  -2.981  1.00  0.00     0.315 C 
ATOM      7  H2  UNL     1      -3.158  37.009  -4.315  1.00  0.00     0.169 HD
HETATM    8  O1  UNL     1      -0.796  37.166  -3.902  1.00  0.00    -0.262 OA
HETATM    9  C5  UNL     1      -1.159  37.122  -1.699  1.00  0.00     0.328 C 
HETATM   10  O2  UNL     1      -0.072  37.745  -1.582  1.00  0.00    -0.261 OA
HETATM   11  N3  UNL     1      -1.662  36.642  -0.533  1.00  0.00    -0.260 N 
HETATM   12  N4  UNL     1      -2.937  36.388  -0.314  1.00  0.00    -0.281 N 
ATOM     13  H3  UNL     1      -1.005  36.464   0.227  1.00  0.00     0.190 HD
HETATM   14  C6  UNL     1      -3.987  36.437  -1.181  1.00  0.00     0.137 C 
ATOM     15  H4  UNL     1      -3.171  36.116   0.641  1.00  0.00     0.188 HD
BRANCH  14  16
HETATM   16  N5  UNL     1      -5.170  36.436  -0.670  1.00  0.00    -0.383 N 
ATOM     17  H52 UNL     1      -5.745  37.263  -0.833  1.00  0.00     0.157 HD
ATOM     18  H51 UNL     1      -5.391  35.587  -0.151  1.00  0.00     0.157 HD
ENDBRANCH  14  16
ENDBRANCH   3   4
TORSDOF 2
ENDMDL
MODEL 3
REMARK VINA RESULT: -5.479883946      2.377      3.814
REMARK  2 active torsions:
REMARK  status: ('A' for Active; 'I' for Inactive)
REMARK    1  A    between atoms: C2_3  and  C3_4 
REMARK    2  A    between atoms: C6_15  and  N5_16 
ROOT
HETATM    1  N1  UNL     1      -1.335  40.044  -2.922  1.00  0.00    -0.197 NA
HETATM    2  C1  UNL     1      -1.895  39.427  -2.118  1.00  0.00     0.065 C 
HETATM    3  C2  UNL     1      -2.620  38.625  -1.103  1.00  0.00     0.185 C 
ENDROOT
BRANCH   3   4
HETATM    4  C3  UNL     1      -3.458  37.616  -1.799  1.00  0.00     0.070 C 
HETATM    5  N2  UNL     1      -3.211  37.318  -3.084  1.00  0.00    -0.318 N 
HETATM    6  C4  UNL     1      -3.966  36.597  -3.964  1.00  0.00     0.315 C 
ATOM      7  H2  UNL     1      -2.334  37.682  -3.457  1.00  0.00     0.169 HD
HETATM    8  O1  UNL     1      -3.649  36.636  -5.175  1.00  0.00    -0.262 OA
HETATM    9  C5  UNL     1      -5.049  35.827  -3.636  1.00  0.00     0.328 C 
HETATM   10  O2  UNL     1      -5.309  34.913  -4.460  1.00  0.00    -0.261 OA
HETATM   11  N3  UNL     1      -5.890  35.882  -2.571  1.00  0.00    -0.260 N 
HETATM   12  N4  UNL     1      -5.582  36.397  -1.397  1.00  0.00    -0.281 N 
ATOM     13  H3  UNL     1      -6.828  35.497  -2.688  1.00  0.00     0.190 HD
HETATM   14  C6  UNL     1      -4.453  37.059  -1.016  1.00  0.00     0.137 C 
ATOM     15  H4  UNL     1      -6.288  36.284  -0.671  1.00  0.00     0.188 HD
BRANCH  14  16
HETATM   16  N5  UNL     1      -4.257  37.204   0.248  1.00  0.00    -0.383 N 
ATOM     17  H52 UNL     1      -4.760  37.961   0.711  1.00  0.00     0.157 HD
ATOM     18  H51 UNL     1      -3.605  36.526   0.643  1.00  0.00     0.157 HD
ENDBRANCH  14  16
ENDBRANCH   3   4
TORSDOF 2
ENDMDL
MODEL 4
REMARK VINA RESULT: -5.460015614      2.062      4.060
REMARK  2 active torsions:
REMARK  status: ('A' for Active; 'I' for Inactive)
REMARK    1  A    between atoms: C2_3  and  C3_4 
REMARK    2  A    between atoms: C6_15  and  N5_16 
ROOT
HETATM    1  N1  UNL     1      -1.936  37.727  -0.160  1.00  0.00    -0.197 NA
HETATM    2  C1  UNL     1      -3.014  37.568  -0.551  1.00  0.00     0.065 C 
HETATM    3  C2  UNL     1      -4.388  37.359  -1.069  1.00  0.00     0.185 C 
ENDROOT
BRANCH   3   4
HETATM    4  C3  UNL     1      -4.301  36.873  -2.469  1.00  0.00     0.070 C 
HETATM    5  N2  UNL     1      -3.323  37.321  -3.271  1.00  0.00    -0.318 N 
HETATM    6  C4  UNL     1      -3.179  37.177  -4.621  1.00  0.00     0.315 C 
ATOM      7  H2  UNL     1      -2.581  37.844  -2.805  1.00  0.00     0.169 HD
HETATM    8  O1  UNL     1      -2.306  37.871  -5.193  1.00  0.00    -0.262 OA
HETATM    9  C5  UNL     1      -3.911  36.334  -5.413  1.00  0.00     0.328 C 
HETATM   10  O2  UNL     1      -3.346  36.006  -6.489  1.00  0.00    -0.261 OA
HETATM   11  N3  UNL     1      -5.142  35.789  -5.234  1.00  0.00    -0.260 N 
HETATM   12  N4  UNL     1      -5.712  35.593  -4.061  1.00  0.00    -0.281 N 
ATOM     13  H3  UNL     1      -5.663  35.513  -6.066  1.00  0.00     0.190 HD
HETATM   14  C6  UNL     1      -5.283  35.964  -2.821  1.00  0.00     0.137 C 
ATOM     15  H4  UNL     1      -6.600  35.093  -4.084  1.00  0.00     0.188 HD
BRANCH  14  16
HETATM   16  N5  UNL     1      -5.855  35.405  -1.812  1.00  0.00    -0.383 N 
ATOM     17  H52 UNL     1      -6.845  35.176  -1.909  1.00  0.00     0.157 HD
ATOM     18  H51 UNL     1      -5.233  35.255  -1.018  1.00  0.00     0.157 HD
ENDBRANCH  14  16
ENDBRANCH   3   4
TORSDOF 2
ENDMDL
MODEL 5
REMARK VINA RESULT: -5.363742025      1.686      2.018
REMARK  2 active torsions:
REMARK  status: ('A' for Active; 'I' for Inactive)
REMARK    1  A    between atoms: C2_3  and  C3_4 
REMARK    2  A    between atoms: C6_15  and  N5_16 
ROOT
HETATM    1  N1  UNL     1      -2.357  38.588  -5.915  1.00  0.00    -0.197 NA
HETATM    2  C1  UNL     1      -2.992  37.672  -5.600  1.00  0.00     0.065 C 
HETATM    3  C2  UNL     1      -3.807  36.507  -5.178  1.00  0.00     0.185 C 
ENDROOT
BRANCH   3   4
HETATM    4  C3  UNL     1      -4.154  36.662  -3.743  1.00  0.00     0.070 C 
HETATM    5  N2  UNL     1      -3.445  37.501  -2.972  1.00  0.00    -0.318 N 
HETATM    6  C4  UNL     1      -3.450  37.639  -1.614  1.00  0.00     0.315 C 
ATOM      7  H2  UNL     1      -2.811  38.124  -3.473  1.00  0.00     0.169 HD
HETATM    8  O1  UNL     1      -2.543  38.329  -1.093  1.00  0.00    -0.262 OA
HETATM    9  C5  UNL     1      -4.369  37.087  -0.763  1.00  0.00     0.328 C 
HETATM   10  O2  UNL     1      -4.484  37.682   0.340  1.00  0.00    -0.261 OA
HETATM   11  N3  UNL     1      -5.178  36.006  -0.907  1.00  0.00    -0.260 N 
HETATM   12  N4  UNL     1      -5.582  35.520  -2.064  1.00  0.00    -0.281 N 
ATOM     13  H3  UNL     1      -5.496  35.537  -0.059  1.00  0.00     0.190 HD
HETATM   14  C6  UNL     1      -5.224  35.890  -3.327  1.00  0.00     0.137 C 
ATOM     15  H4  UNL     1      -6.259  34.760  -2.007  1.00  0.00     0.188 HD
BRANCH  14  16
HETATM   16  N5  UNL     1      -5.969  35.475  -4.292  1.00  0.00    -0.383 N 
ATOM     17  H52 UNL     1      -6.819  34.972  -4.038  1.00  0.00     0.157 HD
ATOM     18  H51 UNL     1      -5.607  35.706  -5.217  1.00  0.00     0.157 HD
ENDBRANCH  14  16
ENDBRANCH   3   4
TORSDOF 2
ENDMDL
