MODEL 1
REMARK VINA RESULT: -5.538064411      0.000      0.000
REMARK  3 active torsions:
REMARK  status: ('A' for Active; 'I' for Inactive)
REMARK    1  A    between atoms: C1_4  and  N2_5 
REMARK    2  A    between atoms: C1_4  and  C3_14 
REMARK    3  A    between atoms: N2_5  and  C2_7 
ROOT
HETATM    1  N1  UNL     1      -5.865  35.154  -1.704  1.00  0.00    -0.383 N 
ATOM      2  H11 UNL     1      -6.072  34.408  -2.369  1.00  0.00     0.157 HD
ATOM      3  H12 UNL     1      -6.195  35.063  -0.743  1.00  0.00     0.157 HD
HETATM    4  C1  UNL     1      -5.205  36.147  -2.125  1.00  0.00     0.143 C 
ENDROOT
BRANCH   4   5
HETATM    5  N2  UNL     1      -4.915  37.193  -1.192  1.00  0.00    -0.173 N 
ATOM      6  H2  UNL     1      -5.635  37.834  -0.858  1.00  0.00     0.186 HD
BRANCH   5   7
HETATM    7  C2  UNL     1      -3.671  37.281  -0.791  1.00  0.00     0.709 A 
HETATM    8  N3  UNL     1      -2.855  36.307  -0.415  1.00  0.00    -0.117 N 
HETATM    9  N4  UNL     1      -1.703  36.871  -0.096  1.00  0.00     0.006 NA
ATOM     10  H3  UNL     1      -3.075  35.311  -0.378  1.00  0.00     0.202 HD
HETATM   11  N5  UNL     1      -1.779  38.180  -0.266  1.00  0.00     0.006 NA
HETATM   12  N6  UNL     1      -2.996  38.458  -0.698  1.00  0.00    -0.117 N 
ATOM     13  H6  UNL     1      -3.362  39.385  -0.920  1.00  0.00     0.202 HD
ENDBRANCH   5   7
ENDBRANCH   4   5
BRANCH   4  14
HETATM   14  C3  UNL     1      -4.731  36.276  -3.505  1.00  0.00     0.092 A 
HETATM   15  C4  UNL     1      -5.351  35.611  -4.535  1.00  0.00     0.121 A 
HETATM   16  N7  UNL     1      -4.900  35.740  -5.811  1.00  0.00    -0.372 N 
HETATM   17  C5  UNL     1      -3.839  36.524  -6.071  1.00  0.00     0.104 A 
ATOM     18  H7  UNL     1      -5.366  35.243  -6.570  1.00  0.00     0.164 HD
HETATM   19  C6  UNL     1      -3.220  37.189  -5.035  1.00  0.00     0.105 A 
HETATM   20  N8  UNL     1      -3.667  37.061  -3.779  1.00  0.00    -0.360 N 
ATOM     21  H8  UNL     1      -3.198  37.560  -3.022  1.00  0.00     0.165 HD
ENDBRANCH   4  14
TORSDOF 3
ENDMDL
MODEL 2
REMARK VINA RESULT: -5.439247484      1.815      4.811
REMARK  3 active torsions:
REMARK  status: ('A' for Active; 'I' for Inactive)
REMARK    1  A    between atoms: C1_4  and  N2_5 
REMARK    2  A    between atoms: C1_4  and  C3_14 
REMARK    3  A    between atoms: N2_5  and  C2_7 
ROOT
HETATM    1  N1  UNL     1      -3.613  35.617  -0.636  1.00  0.00    -0.383 N 
ATOM      2  H11 UNL     1      -2.861  35.343  -0.004  1.00  0.00     0.157 HD
ATOM      3  H12 UNL     1      -4.367  34.955  -0.821  1.00  0.00     0.157 HD
HETATM    4  C1  UNL     1      -3.555  36.771  -1.150  1.00  0.00     0.143 C 
ENDROOT
BRANCH   4   5
HETATM    5  N2  UNL     1      -4.610  37.155  -2.038  1.00  0.00    -0.173 N 
ATOM      6  H2  UNL     1      -5.318  37.838  -1.770  1.00  0.00     0.186 HD
BRANCH   5   7
HETATM    7  C2  UNL     1      -4.615  36.579  -3.214  1.00  0.00     0.709 A 
HETATM    8  N3  UNL     1      -5.452  35.664  -3.681  1.00  0.00    -0.117 N 
HETATM    9  N4  UNL     1      -5.065  35.382  -4.914  1.00  0.00     0.006 NA
ATOM     10  H3  UNL     1      -6.243  35.255  -3.184  1.00  0.00     0.202 HD
HETATM   11  N5  UNL     1      -4.003  36.103  -5.230  1.00  0.00     0.006 NA
HETATM   12  N6  UNL     1      -3.704  36.856  -4.186  1.00  0.00    -0.117 N 
ATOM     13  H6  UNL     1      -2.933  37.521  -4.121  1.00  0.00     0.202 HD
ENDBRANCH   5   7
ENDBRANCH   4   5
BRANCH   4  14
HETATM   14  C3  UNL     1      -2.471  37.721  -0.884  1.00  0.00     0.092 A 
HETATM   15  C4  UNL     1      -1.223  37.289  -0.505  1.00  0.00     0.121 A 
HETATM   16  N7  UNL     1      -0.228  38.181  -0.261  1.00  0.00    -0.372 N 
HETATM   17  C5  UNL     1      -0.463  39.499  -0.390  1.00  0.00     0.104 A 
ATOM     18  H7  UNL     1       0.696  37.852   0.020  1.00  0.00     0.164 HD
HETATM   19  C6  UNL     1      -1.716  39.929  -0.770  1.00  0.00     0.105 A 
HETATM   20  N8  UNL     1      -2.695  39.047  -1.010  1.00  0.00    -0.360 N 
ATOM     21  H8  UNL     1      -3.618  39.380  -1.291  1.00  0.00     0.165 HD
ENDBRANCH   4  14
TORSDOF 3
ENDMDL
MODEL 3
REMARK VINA RESULT: -5.424010440      1.884      4.865
REMARK  3 active torsions:
REMARK  status: ('A' for Active; 'I' for Inactive)
REMARK    1  A    between atoms: C1_4  and  N2_5 
REMARK    2  A    between atoms: C1_4  and  C3_14 
REMARK    3  A    between atoms: N2_5  and  C2_7 
ROOT
HETATM    1  N1  UNL     1      -3.449  35.673  -0.594  1.00  0.00    -0.383 N 
ATOM      2  H11 UNL     1      -2.676  35.400   0.013  1.00  0.00     0.157 HD
ATOM      3  H12 UNL     1      -4.186  34.995  -0.789  1.00  0.00     0.157 HD
HETATM    4  C1  UNL     1      -3.437  36.847  -1.065  1.00  0.00     0.143 C 
ENDROOT
BRANCH   4   5
HETATM    5  N2  UNL     1      -4.522  37.230  -1.917  1.00  0.00    -0.173 N 
ATOM      6  H2  UNL     1      -5.200  37.939  -1.640  1.00  0.00     0.186 HD
BRANCH   5   7
HETATM    7  C2  UNL     1      -4.594  36.618  -3.072  1.00  0.00     0.709 A 
HETATM    8  N3  UNL     1      -5.494  35.736  -3.484  1.00  0.00    -0.117 N 
HETATM    9  N4  UNL     1      -5.161  35.394  -4.717  1.00  0.00     0.006 NA
ATOM     10  H3  UNL     1      -6.291  35.389  -2.952  1.00  0.00     0.202 HD
HETATM   11  N5  UNL     1      -4.070  36.043  -5.087  1.00  0.00     0.006 NA
HETATM   12  N6  UNL     1      -3.699  36.811  -4.078  1.00  0.00    -0.117 N 
ATOM     13  H6  UNL     1      -2.890  37.433  -4.057  1.00  0.00     0.202 HD
ENDBRANCH   5   7
ENDBRANCH   4   5
BRANCH   4  14
HETATM   14  C3  UNL     1      -2.378  37.820  -0.784  1.00  0.00     0.092 A 
HETATM   15  C4  UNL     1      -2.567  39.161  -1.013  1.00  0.00     0.121 A 
HETATM   16  N7  UNL     1      -1.576  40.053  -0.748  1.00  0.00    -0.372 N 
HETATM   17  C5  UNL     1      -0.400  39.622  -0.258  1.00  0.00     0.104 A 
ATOM     18  H7  UNL     1      -1.723  41.047  -0.921  1.00  0.00     0.164 HD
HETATM   19  C6  UNL     1      -0.215  38.276  -0.029  1.00  0.00     0.105 A 
HETATM   20  N8  UNL     1      -1.194  37.399  -0.291  1.00  0.00    -0.360 N 
ATOM     21  H8  UNL     1      -1.042  36.405  -0.117  1.00  0.00     0.165 HD
ENDBRANCH   4  14
TORSDOF 3
ENDMDL
MODEL 4
REMARK VINA RESULT: -5.330025663      2.646      6.258
REMARK  3 active torsions:
REMARK  status: ('A' for Active; 'I' for Inactive)
REMARK    1  A    between atoms: C1_4  and  N2_5 
REMARK    2  A    between atoms: C1_4  and  C3_14 
REMARK    3  A    between atoms: N2_5  and  C2_7 
ROOT
HETATM    1  N1  UNL     1      -2.982  38.137  -6.964  1.00  0.00    -0.383 N 
ATOM      2  H11 UNL     1      -3.668  38.808  -6.618  1.00  0.00     0.157 HD
ATOM      3  H12 UNL     1      -2.399  38.394  -7.761  1.00  0.00     0.157 HD
HETATM    4  C1  UNL     1      -2.905  37.022  -6.373  1.00  0.00     0.143 C 
ENDROOT
BRANCH   4   5
HETATM    5  N2  UNL     1      -1.943  36.079  -6.859  1.00  0.00    -0.173 N 
ATOM      6  H2  UNL     1      -0.983  36.062  -6.515  1.00  0.00     0.186 HD
BRANCH   5   7
HETATM    7  C2  UNL     1      -2.366  35.240  -7.772  1.00  0.00     0.709 A 
HETATM    8  N3  UNL     1      -3.316  35.417  -8.678  1.00  0.00    -0.117 N 
HETATM    9  N4  UNL     1      -3.393  34.299  -9.379  1.00  0.00     0.006 NA
ATOM     10  H3  UNL     1      -3.880  36.257  -8.810  1.00  0.00     0.202 HD
HETATM   11  N5  UNL     1      -2.510  33.423  -8.930  1.00  0.00     0.006 NA
HETATM   12  N6  UNL     1      -1.859  33.987  -7.929  1.00  0.00    -0.117 N 
ATOM     13  H6  UNL     1      -1.114  33.562  -7.375  1.00  0.00     0.202 HD
ENDBRANCH   5   7
ENDBRANCH   4   5
BRANCH   4  14
HETATM   14  C3  UNL     1      -3.743  36.653  -5.229  1.00  0.00     0.092 A 
HETATM   15  C4  UNL     1      -3.432  37.067  -3.957  1.00  0.00     0.121 A 
HETATM   16  N7  UNL     1      -4.218  36.717  -2.904  1.00  0.00    -0.372 N 
HETATM   17  C5  UNL     1      -5.310  35.959  -3.107  1.00  0.00     0.104 A 
ATOM     18  H7  UNL     1      -3.980  37.029  -1.963  1.00  0.00     0.164 HD
HETATM   19  C6  UNL     1      -5.619  35.546  -4.385  1.00  0.00     0.105 A 
HETATM   20  N8  UNL     1      -4.842  35.892  -5.420  1.00  0.00    -0.360 N 
ATOM     21  H8  UNL     1      -5.083  35.578  -6.361  1.00  0.00     0.165 HD
ENDBRANCH   4  14
TORSDOF 3
ENDMDL
MODEL 5
REMARK VINA RESULT: -5.302297485      1.840      4.777
REMARK  3 active torsions:
REMARK  status: ('A' for Active; 'I' for Inactive)
REMARK    1  A    between atoms: C1_4  and  N2_5 
REMARK    2  A    between atoms: C1_4  and  C3_14 
REMARK    3  A    between atoms: N2_5  and  C2_7 
ROOT
HETATM    1  N1  UNL     1      -5.508  35.284  -4.711  1.00  0.00    -0.383 N 
ATOM      2  H11 UNL     1      -5.955  34.753  -3.964  1.00  0.00     0.157 HD
ATOM      3  H12 UNL     1      -5.691  35.023  -5.680  1.00  0.00     0.157 HD
HETATM    4  C1  UNL     1      -4.749  36.239  -4.377  1.00  0.00     0.143 C 
ENDROOT
BRANCH   4   5
HETATM    5  N2  UNL     1      -4.121  36.984  -5.425  1.00  0.00    -0.173 N 
ATOM      6  H2  UNL     1      -4.425  37.925  -5.675  1.00  0.00     0.186 HD
BRANCH   5   7
HETATM    7  C2  UNL     1      -3.132  36.389  -6.045  1.00  0.00     0.709 A 
HETATM    8  N3  UNL     1      -3.189  35.538  -7.059  1.00  0.00    -0.117 N 
HETATM    9  N4  UNL     1      -1.943  35.202  -7.350  1.00  0.00     0.006 NA
ATOM     10  H3  UNL     1      -4.032  35.205  -7.527  1.00  0.00     0.202 HD
HETATM   11  N5  UNL     1      -1.106  35.827  -6.538  1.00  0.00     0.006 NA
HETATM   12  N6  UNL     1      -1.825  36.571  -5.717  1.00  0.00    -0.117 N 
ATOM     13  H6  UNL     1      -1.466  37.172  -4.974  1.00  0.00     0.202 HD
ENDBRANCH   5   7
ENDBRANCH   4   5
BRANCH   4  14
HETATM   14  C3  UNL     1      -4.486  36.614  -2.985  1.00  0.00     0.092 A 
HETATM   15  C4  UNL     1      -5.256  36.123  -1.959  1.00  0.00     0.121 A 
HETATM   16  N7  UNL     1      -5.001  36.479  -0.672  1.00  0.00    -0.372 N 
HETATM   17  C5  UNL     1      -3.987  37.319  -0.398  1.00  0.00     0.104 A 
ATOM     18  H7  UNL     1      -5.577  36.110   0.084  1.00  0.00     0.164 HD
HETATM   19  C6  UNL     1      -3.217  37.809  -1.430  1.00  0.00     0.105 A 
HETATM   20  N8  UNL     1      -3.471  37.456  -2.697  1.00  0.00    -0.360 N 
ATOM     21  H8  UNL     1      -2.892  37.827  -3.451  1.00  0.00     0.165 HD
ENDBRANCH   4  14
TORSDOF 3
ENDMDL
