MODEL 1
REMARK VINA RESULT: -4.889039224      0.000      0.000
REMARK  2 active torsions:
REMARK  status: ('A' for Active; 'I' for Inactive)
REMARK    1  A    between atoms: S1_3  and  C2_6 
REMARK    2  A    between atoms: C3_11  and  N4_12 
ROOT
HETATM    1  N1  UNL     1      -2.194  39.991  -1.222  1.00  0.00    -0.179 NA
HETATM    2  C1  UNL     1      -2.742  38.991  -1.010  1.00  0.00     0.202 C 
HETATM    3  S1  UNL     1      -3.541  37.481  -0.686  1.00  0.00     0.303 S 
HETATM    4  O1  UNL     1      -2.475  36.539  -0.190  1.00  0.00    -0.204 OA
HETATM    5  O2  UNL     1      -4.607  37.703   0.364  1.00  0.00    -0.204 OA
ENDROOT
BRANCH   3   6
HETATM    6  C2  UNL     1      -4.309  36.841  -2.109  1.00  0.00     0.247 A 
HETATM    7  N2  UNL     1      -5.517  36.256  -2.130  1.00  0.00    -0.260 N 
HETATM    8  N3  UNL     1      -5.830  35.872  -3.356  1.00  0.00    -0.130 N 
ATOM      9  H2  UNL     1      -6.112  36.126  -1.311  1.00  0.00     0.190 HD
HETATM   10  C3  UNL     1      -4.779  36.233  -4.120  1.00  0.00     0.692 A 
ATOM     11  H3  UNL     1      -6.684  35.403  -3.659  1.00  0.00     0.205 HD
HETATM   12  N5  UNL     1      -3.835  36.830  -3.369  1.00  0.00    -0.163 N 
ATOM     13  H5  UNL     1      -2.941  37.200  -3.691  1.00  0.00     0.186 HD
BRANCH  10  14
HETATM   14  N4  UNL     1      -4.715  36.020  -5.397  1.00  0.00    -0.233 N 
ATOM     15  H42 UNL     1      -3.978  35.510  -5.884  1.00  0.00     0.174 HD
ATOM     16  H41 UNL     1      -5.416  36.352  -6.060  1.00  0.00     0.174 HD
ENDBRANCH  10  14
ENDBRANCH   3   6
TORSDOF 2
ENDMDL
MODEL 2
REMARK VINA RESULT: -4.837953453      1.238      1.416
REMARK  2 active torsions:
REMARK  status: ('A' for Active; 'I' for Inactive)
REMARK    1  A    between atoms: S1_3  and  C2_6 
REMARK    2  A    between atoms: C3_11  and  N4_12 
ROOT
HETATM    1  N1  UNL     1      -2.399  38.993  -1.224  1.00  0.00    -0.179 NA
HETATM    2  C1  UNL     1      -3.094  38.075  -1.376  1.00  0.00     0.202 C 
HETATM    3  S1  UNL     1      -4.116  36.686  -1.594  1.00  0.00     0.303 S 
HETATM    4  O1  UNL     1      -3.373  35.519  -0.995  1.00  0.00    -0.204 OA
HETATM    5  O2  UNL     1      -5.429  36.924  -0.880  1.00  0.00    -0.204 OA
ENDROOT
BRANCH   3   6
HETATM    6  C2  UNL     1      -4.459  36.397  -3.273  1.00  0.00     0.247 A 
HETATM    7  N2  UNL     1      -5.433  35.594  -3.728  1.00  0.00    -0.260 N 
HETATM    8  N3  UNL     1      -5.446  35.576  -5.051  1.00  0.00    -0.130 N 
ATOM      9  H2  UNL     1      -6.076  35.069  -3.135  1.00  0.00     0.190 HD
HETATM   10  C3  UNL     1      -4.445  36.399  -5.426  1.00  0.00     0.692 A 
ATOM     11  H3  UNL     1      -6.079  35.053  -5.657  1.00  0.00     0.205 HD
HETATM   12  N5  UNL     1      -3.828  36.911  -4.346  1.00  0.00    -0.163 N 
ATOM     13  H5  UNL     1      -3.041  37.559  -4.341  1.00  0.00     0.186 HD
BRANCH  10  14
HETATM   14  N4  UNL     1      -4.143  36.641  -6.663  1.00  0.00    -0.233 N 
ATOM     15  H42 UNL     1      -3.258  37.020  -7.001  1.00  0.00     0.174 HD
ATOM     16  H41 UNL     1      -4.779  36.471  -7.443  1.00  0.00     0.174 HD
ENDBRANCH  10  14
ENDBRANCH   3   6
TORSDOF 2
ENDMDL
MODEL 3
REMARK VINA RESULT: -4.803621387      2.266      2.620
REMARK  2 active torsions:
REMARK  status: ('A' for Active; 'I' for Inactive)
REMARK    1  A    between atoms: S1_3  and  C2_6 
REMARK    2  A    between atoms: C3_11  and  N4_12 
ROOT
HETATM    1  N1  UNL     1       0.211  37.438  -2.991  1.00  0.00    -0.179 NA
HETATM    2  C1  UNL     1      -0.592  37.803  -2.237  1.00  0.00     0.202 C 
HETATM    3  S1  UNL     1      -1.781  38.341  -1.089  1.00  0.00     0.303 S 
HETATM    4  O1  UNL     1      -1.183  38.112   0.275  1.00  0.00    -0.204 OA
HETATM    5  O2  UNL     1      -2.063  39.809  -1.324  1.00  0.00    -0.204 OA
ENDROOT
BRANCH   3   6
HETATM    6  C2  UNL     1      -3.277  37.471  -1.255  1.00  0.00     0.247 A 
HETATM    7  N2  UNL     1      -3.994  36.979  -0.233  1.00  0.00    -0.260 N 
HETATM    8  N3  UNL     1      -5.081  36.368  -0.675  1.00  0.00    -0.130 N 
ATOM      9  H2  UNL     1      -3.737  37.066   0.751  1.00  0.00     0.190 HD
HETATM   10  C3  UNL     1      -5.034  36.486  -2.017  1.00  0.00     0.692 A 
ATOM     11  H3  UNL     1      -5.800  35.905  -0.119  1.00  0.00     0.205 HD
HETATM   12  N5  UNL     1      -3.931  37.162  -2.391  1.00  0.00    -0.163 N 
ATOM     13  H5  UNL     1      -3.648  37.393  -3.343  1.00  0.00     0.186 HD
BRANCH  10  14
HETATM   14  N4  UNL     1      -5.938  36.006  -2.811  1.00  0.00    -0.233 N 
ATOM     15  H42 UNL     1      -6.239  35.032  -2.859  1.00  0.00     0.174 HD
ATOM     16  H41 UNL     1      -6.455  36.571  -3.486  1.00  0.00     0.174 HD
ENDBRANCH  10  14
ENDBRANCH   3   6
TORSDOF 2
ENDMDL
MODEL 4
REMARK VINA RESULT: -4.697008475      2.440      2.928
REMARK  2 active torsions:
REMARK  status: ('A' for Active; 'I' for Inactive)
REMARK    1  A    between atoms: S1_3  and  C2_6 
REMARK    2  A    between atoms: C3_11  and  N4_12 
ROOT
HETATM    1  N1  UNL     1      -0.262  38.516   0.880  1.00  0.00    -0.179 NA
HETATM    2  C1  UNL     1      -0.772  38.306  -0.141  1.00  0.00     0.202 C 
HETATM    3  S1  UNL     1      -1.537  38.017  -1.675  1.00  0.00     0.303 S 
HETATM    4  O1  UNL     1      -1.641  39.359  -2.353  1.00  0.00    -0.204 OA
HETATM    5  O2  UNL     1      -0.683  37.062  -2.479  1.00  0.00    -0.204 OA
ENDROOT
BRANCH   3   6
HETATM    6  C2  UNL     1      -3.112  37.304  -1.485  1.00  0.00     0.247 A 
HETATM    7  N2  UNL     1      -3.646  36.930  -0.312  1.00  0.00    -0.260 N 
HETATM    8  N3  UNL     1      -4.854  36.421  -0.488  1.00  0.00    -0.130 N 
ATOM      9  H2  UNL     1      -3.184  37.025   0.593  1.00  0.00     0.190 HD
HETATM   10  C3  UNL     1      -5.074  36.484  -1.818  1.00  0.00     0.692 A 
ATOM     11  H3  UNL     1      -5.484  36.059   0.227  1.00  0.00     0.205 HD
HETATM   12  N5  UNL     1      -4.013  37.024  -2.445  1.00  0.00    -0.163 N 
ATOM     13  H5  UNL     1      -3.913  37.189  -3.446  1.00  0.00     0.186 HD
BRANCH  10  14
HETATM   14  N4  UNL     1      -6.165  36.073  -2.383  1.00  0.00    -0.233 N 
ATOM     15  H42 UNL     1      -6.296  35.179  -2.857  1.00  0.00     0.174 HD
ATOM     16  H41 UNL     1      -7.027  36.619  -2.410  1.00  0.00     0.174 HD
ENDBRANCH  10  14
ENDBRANCH   3   6
TORSDOF 2
ENDMDL
MODEL 5
REMARK VINA RESULT: -4.655438096      2.175      2.500
REMARK  2 active torsions:
REMARK  status: ('A' for Active; 'I' for Inactive)
REMARK    1  A    between atoms: S1_3  and  C2_6 
REMARK    2  A    between atoms: C3_11  and  N4_12 
ROOT
HETATM    1  N1  UNL     1      -4.776  37.404  -0.167  1.00  0.00    -0.179 NA
HETATM    2  C1  UNL     1      -4.034  37.201  -1.036  1.00  0.00     0.202 C 
HETATM    3  S1  UNL     1      -2.912  36.921  -2.335  1.00  0.00     0.303 S 
HETATM    4  O1  UNL     1      -2.041  38.148  -2.410  1.00  0.00    -0.204 OA
HETATM    5  O2  UNL     1      -2.094  35.687  -2.022  1.00  0.00    -0.204 OA
ENDROOT
BRANCH   3   6
HETATM    6  C2  UNL     1      -3.730  36.657  -3.846  1.00  0.00     0.247 A 
HETATM    7  N2  UNL     1      -4.864  35.953  -3.990  1.00  0.00    -0.260 N 
HETATM    8  N3  UNL     1      -5.242  35.929  -5.257  1.00  0.00    -0.130 N 
ATOM      9  H2  UNL     1      -5.365  35.499  -3.227  1.00  0.00     0.190 HD
HETATM   10  C3  UNL     1      -4.310  36.645  -5.919  1.00  0.00     0.692 A 
ATOM     11  H3  UNL     1      -6.063  35.468  -5.650  1.00  0.00     0.205 HD
HETATM   12  N5  UNL     1      -3.374  37.100  -5.067  1.00  0.00    -0.163 N 
ATOM     13  H5  UNL     1      -2.558  37.666  -5.299  1.00  0.00     0.186 HD
BRANCH  10  14
HETATM   14  N4  UNL     1      -4.339  36.849  -7.199  1.00  0.00    -0.233 N 
ATOM     15  H42 UNL     1      -4.641  37.705  -7.664  1.00  0.00     0.174 HD
ATOM     16  H41 UNL     1      -4.052  36.152  -7.888  1.00  0.00     0.174 HD
ENDBRANCH  10  14
ENDBRANCH   3   6
TORSDOF 2
ENDMDL
