MODEL 1
REMARK VINA RESULT: -7.379086540      0.000      0.000
REMARK  5 active torsions:
REMARK  status: ('A' for Active; 'I' for Inactive)
REMARK    1  A    between atoms: N1_2  and  S1_4 
REMARK    2  A    between atoms: S1_4  and  N2_7 
REMARK    3  A    between atoms: N2_7  and  C2_9 
REMARK    4  A    between atoms: C2_9  and  C3_10 
REMARK    5  A    between atoms: N3_16  and  C8_17 
ROOT
HETATM    1  C2  UNL     1      -6.325  23.046   5.855  1.00  0.00     0.139 C 
HETATM    2  C6  UNL     1      -6.084  22.063   6.954  1.00  0.00     0.143 C 
HETATM    3  C7  UNL     1      -6.747  20.810   6.513  1.00  0.00     0.227 C 
HETATM    4  O3  UNL     1      -6.920  19.777   7.266  1.00  0.00    -0.273 OA
HETATM    5  N3  UNL     1      -7.148  20.929   5.163  1.00  0.00    -0.282 N 
HETATM    6  C15 UNL     1      -7.252  22.334   4.866  1.00  0.00     0.353 C 
HETATM    7  F1  UNL     1      -6.804  22.558   3.550  1.00  0.00    -0.179 F 
HETATM    8  F2  UNL     1      -8.525  22.815   4.979  1.00  0.00    -0.179 F 
ENDROOT
BRANCH   1   9
HETATM    9  N2  UNL     1      -5.151  23.353   5.145  1.00  0.00    -0.284 N 
ATOM     10  H2  UNL     1      -5.197  23.386   4.127  1.00  0.00     0.175 HD
BRANCH   9  11
HETATM   11  S1  UNL     1      -3.697  23.666   5.875  1.00  0.00     0.315 S 
HETATM   12  O1  UNL     1      -3.422  22.502   6.848  1.00  0.00    -0.183 OA
HETATM   13  O2  UNL     1      -2.514  23.662   4.961  1.00  0.00    -0.183 OA
BRANCH  11  14
HETATM   14  N1  UNL     1      -3.680  25.069   6.889  1.00  0.00    -0.307 N 
HETATM   15  C1  UNL     1      -3.110  26.212   6.245  1.00  0.00     0.161 C 
ATOM     16  H1  UNL     1      -4.038  25.080   7.845  1.00  0.00     0.173 HD
ENDBRANCH  11  14
ENDBRANCH   9  11
ENDBRANCH   1   9
BRANCH   1  17
HETATM   17  C3  UNL     1      -7.024  24.245   6.462  1.00  0.00     0.015 C 
HETATM   18  C4  UNL     1      -6.761  24.385   7.932  1.00  0.00     0.012 C 
HETATM   19  C5  UNL     1      -6.686  25.539   5.716  1.00  0.00     0.012 C 
ENDBRANCH   1  17
BRANCH   5  20
HETATM   20  C8  UNL     1      -7.419  19.787   4.252  1.00  0.00     0.094 C 
HETATM   21  C9  UNL     1      -6.166  18.942   4.382  1.00  0.00     0.036 C 
HETATM   22  C10 UNL     1      -6.249  17.614   3.560  1.00  0.00     0.082 C 
HETATM   23  C11 UNL     1      -7.605  17.431   3.249  1.00  0.00    -0.183 C 
HETATM   24  C12 UNL     1      -8.971  17.315   2.966  1.00  0.00     0.080 C 
HETATM   25  C13 UNL     1      -9.644  18.615   3.537  1.00  0.00     0.013 C 
HETATM   26  C14 UNL     1      -8.735  19.305   4.563  1.00  0.00     0.026 C 
ENDBRANCH   5  20
TORSDOF 5
ENDMDL
MODEL 2
REMARK VINA RESULT: -7.236050843      2.842      3.451
REMARK  5 active torsions:
REMARK  status: ('A' for Active; 'I' for Inactive)
REMARK    1  A    between atoms: N1_2  and  S1_4 
REMARK    2  A    between atoms: S1_4  and  N2_7 
REMARK    3  A    between atoms: N2_7  and  C2_9 
REMARK    4  A    between atoms: C2_9  and  C3_10 
REMARK    5  A    between atoms: N3_16  and  C8_17 
ROOT
HETATM    1  C2  UNL     1      -6.461  22.152   4.796  1.00  0.00     0.139 C 
HETATM    2  C6  UNL     1      -5.503  21.922   3.673  1.00  0.00     0.143 C 
HETATM    3  C7  UNL     1      -5.700  20.507   3.270  1.00  0.00     0.227 C 
HETATM    4  O3  UNL     1      -4.932  19.872   2.452  1.00  0.00    -0.273 OA
HETATM    5  N3  UNL     1      -6.843  19.980   3.915  1.00  0.00    -0.282 N 
HETATM    6  C15 UNL     1      -7.089  20.785   5.083  1.00  0.00     0.353 C 
HETATM    7  F1  UNL     1      -8.479  20.929   5.256  1.00  0.00    -0.179 F 
HETATM    8  F2  UNL     1      -6.563  20.252   6.225  1.00  0.00    -0.179 F 
ENDROOT
BRANCH   1   9
HETATM    9  N2  UNL     1      -7.519  23.004   4.431  1.00  0.00    -0.284 N 
ATOM     10  H2  UNL     1      -8.446  22.810   4.807  1.00  0.00     0.175 HD
BRANCH   9  11
HETATM   11  S1  UNL     1      -7.337  24.306   3.422  1.00  0.00     0.315 S 
HETATM   12  O1  UNL     1      -8.753  24.777   3.035  1.00  0.00    -0.183 OA
HETATM   13  O2  UNL     1      -6.712  25.511   4.048  1.00  0.00    -0.183 OA
BRANCH  11  14
HETATM   14  N1  UNL     1      -6.588  23.949   1.902  1.00  0.00    -0.307 N 
HETATM   15  C1  UNL     1      -6.843  24.948   0.911  1.00  0.00     0.161 C 
ATOM     16  H1  UNL     1      -6.025  23.115   1.733  1.00  0.00     0.173 HD
ENDBRANCH  11  14
ENDBRANCH   9  11
ENDBRANCH   1   9
BRANCH   1  17
HETATM   17  C3  UNL     1      -5.658  22.624   5.990  1.00  0.00     0.015 C 
HETATM   18  C4  UNL     1      -4.346  23.238   5.599  1.00  0.00     0.012 C 
HETATM   19  C5  UNL     1      -6.466  23.572   6.880  1.00  0.00     0.012 C 
ENDBRANCH   1  17
BRANCH   5  20
HETATM   20  C8  UNL     1      -7.613  18.798   3.450  1.00  0.00     0.094 C 
HETATM   21  C9  UNL     1      -6.646  17.651   3.674  1.00  0.00     0.036 C 
HETATM   22  C10 UNL     1      -7.272  16.260   3.326  1.00  0.00     0.082 C 
HETATM   23  C11 UNL     1      -8.659  16.461   3.265  1.00  0.00    -0.183 C 
HETATM   24  C12 UNL     1     -10.032  16.733   3.211  1.00  0.00     0.080 C 
HETATM   25  C13 UNL     1     -10.176  18.281   3.430  1.00  0.00     0.013 C 
HETATM   26  C14 UNL     1      -8.909  18.873   4.063  1.00  0.00     0.026 C 
ENDBRANCH   5  20
TORSDOF 5
ENDMDL
MODEL 3
REMARK VINA RESULT: -7.221664778      2.931      7.019
REMARK  5 active torsions:
REMARK  status: ('A' for Active; 'I' for Inactive)
REMARK    1  A    between atoms: N1_2  and  S1_4 
REMARK    2  A    between atoms: S1_4  and  N2_7 
REMARK    3  A    between atoms: N2_7  and  C2_9 
REMARK    4  A    between atoms: C2_9  and  C3_10 
REMARK    5  A    between atoms: N3_16  and  C8_17 
ROOT
HETATM    1  C2  UNL     1      -5.515  25.106   5.074  1.00  0.00     0.139 C 
HETATM    2  C6  UNL     1      -4.039  25.216   5.280  1.00  0.00     0.143 C 
HETATM    3  C7  UNL     1      -3.873  26.070   6.483  1.00  0.00     0.227 C 
HETATM    4  O3  UNL     1      -2.744  26.550   6.881  1.00  0.00    -0.273 OA
HETATM    5  N3  UNL     1      -5.126  26.267   7.108  1.00  0.00    -0.282 N 
HETATM    6  C15 UNL     1      -6.143  26.033   6.117  1.00  0.00     0.353 C 
HETATM    7  F1  UNL     1      -7.237  25.388   6.727  1.00  0.00    -0.179 F 
HETATM    8  F2  UNL     1      -6.592  27.179   5.525  1.00  0.00    -0.179 F 
ENDROOT
BRANCH   1   9
HETATM    9  N2  UNL     1      -5.998  23.814   5.350  1.00  0.00    -0.284 N 
ATOM     10  H2  UNL     1      -6.983  23.709   5.591  1.00  0.00     0.175 HD
BRANCH   9  11
HETATM   11  S1  UNL     1      -5.051  22.455   5.305  1.00  0.00     0.315 S 
HETATM   12  O1  UNL     1      -4.574  22.287   3.849  1.00  0.00    -0.183 OA
HETATM   13  O2  UNL     1      -3.785  22.537   6.095  1.00  0.00    -0.183 OA
BRANCH  11  14
HETATM   14  N1  UNL     1      -5.886  20.976   5.643  1.00  0.00    -0.307 N 
HETATM   15  C1  UNL     1      -7.086  21.177   6.395  1.00  0.00     0.161 C 
ATOM     16  H1  UNL     1      -5.558  20.060   5.338  1.00  0.00     0.173 HD
ENDBRANCH  11  14
ENDBRANCH   9  11
ENDBRANCH   1   9
BRANCH   1  17
HETATM   17  C3  UNL     1      -5.818  25.604   3.676  1.00  0.00     0.015 C 
HETATM   18  C4  UNL     1      -4.616  25.579   2.779  1.00  0.00     0.012 C 
HETATM   19  C5  UNL     1      -6.991  24.849   3.045  1.00  0.00     0.012 C 
ENDBRANCH   1  17
BRANCH   5  20
HETATM   20  C8  UNL     1      -5.315  26.659   8.529  1.00  0.00     0.094 C 
HETATM   21  C9  UNL     1      -6.055  27.979   8.422  1.00  0.00     0.036 C 
HETATM   22  C10 UNL     1      -6.447  28.563   9.819  1.00  0.00     0.082 C 
HETATM   23  C11 UNL     1      -6.321  27.506  10.733  1.00  0.00    -0.183 C 
HETATM   24  C12 UNL     1      -6.166  26.411  11.592  1.00  0.00     0.080 C 
HETATM   25  C13 UNL     1      -5.599  25.243  10.708  1.00  0.00     0.013 C 
HETATM   26  C14 UNL     1      -5.836  25.512   9.215  1.00  0.00     0.026 C 
ENDBRANCH   5  20
TORSDOF 5
ENDMDL
MODEL 4
REMARK VINA RESULT: -7.132729936      2.757      6.462
REMARK  5 active torsions:
REMARK  status: ('A' for Active; 'I' for Inactive)
REMARK    1  A    between atoms: N1_2  and  S1_4 
REMARK    2  A    between atoms: S1_4  and  N2_7 
REMARK    3  A    between atoms: N2_7  and  C2_9 
REMARK    4  A    between atoms: C2_9  and  C3_10 
REMARK    5  A    between atoms: N3_16  and  C8_17 
ROOT
HETATM    1  C2  UNL     1      -5.865  23.649   4.268  1.00  0.00     0.139 C 
HETATM    2  C6  UNL     1      -4.942  22.636   4.864  1.00  0.00     0.143 C 
HETATM    3  C7  UNL     1      -4.395  23.274   6.088  1.00  0.00     0.227 C 
HETATM    4  O3  UNL     1      -3.424  22.792   6.785  1.00  0.00    -0.273 OA
HETATM    5  N3  UNL     1      -5.098  24.471   6.360  1.00  0.00    -0.282 N 
HETATM    6  C15 UNL     1      -5.702  24.905   5.127  1.00  0.00     0.353 C 
HETATM    7  F1  UNL     1      -6.967  25.456   5.406  1.00  0.00    -0.179 F 
HETATM    8  F2  UNL     1      -4.959  25.841   4.464  1.00  0.00    -0.179 F 
ENDROOT
BRANCH   1   9
HETATM    9  N2  UNL     1      -7.215  23.270   4.373  1.00  0.00    -0.284 N 
ATOM     10  H2  UNL     1      -7.929  23.984   4.233  1.00  0.00     0.175 HD
BRANCH   9  11
HETATM   11  S1  UNL     1      -7.707  21.724   4.713  1.00  0.00     0.315 S 
HETATM   12  O1  UNL     1      -9.214  21.653   4.400  1.00  0.00    -0.183 OA
HETATM   13  O2  UNL     1      -7.105  20.663   3.850  1.00  0.00    -0.183 OA
BRANCH  11  14
HETATM   14  N1  UNL     1      -7.608  21.281   6.384  1.00  0.00    -0.307 N 
HETATM   15  C1  UNL     1      -7.272  19.904   6.573  1.00  0.00     0.161 C 
ATOM     16  H1  UNL     1      -7.771  21.934   7.152  1.00  0.00     0.173 HD
ENDBRANCH  11  14
ENDBRANCH   9  11
ENDBRANCH   1   9
BRANCH   1  17
HETATM   17  C3  UNL     1      -5.396  23.915   2.852  1.00  0.00     0.015 C 
HETATM   18  C4  UNL     1      -4.662  22.750   2.257  1.00  0.00     0.012 C 
HETATM   19  C5  UNL     1      -6.547  24.361   1.946  1.00  0.00     0.012 C 
ENDBRANCH   1  17
BRANCH   5  20
HETATM   20  C8  UNL     1      -5.164  25.136   7.686  1.00  0.00     0.094 C 
HETATM   21  C9  UNL     1      -5.036  26.607   7.337  1.00  0.00     0.036 C 
HETATM   22  C10 UNL     1      -5.161  27.535   8.590  1.00  0.00     0.082 C 
HETATM   23  C11 UNL     1      -5.724  26.746   9.605  1.00  0.00    -0.183 C 
HETATM   24  C12 UNL     1      -6.279  25.901  10.574  1.00  0.00     0.080 C 
HETATM   25  C13 UNL     1      -6.377  24.482   9.908  1.00  0.00     0.013 C 
HETATM   26  C14 UNL     1      -6.292  24.581   8.379  1.00  0.00     0.026 C 
ENDBRANCH   5  20
TORSDOF 5
ENDMDL
MODEL 5
REMARK VINA RESULT: -7.097188169      2.700      6.209
REMARK  5 active torsions:
REMARK  status: ('A' for Active; 'I' for Inactive)
REMARK    1  A    between atoms: N1_2  and  S1_4 
REMARK    2  A    between atoms: S1_4  and  N2_7 
REMARK    3  A    between atoms: N2_7  and  C2_9 
REMARK    4  A    between atoms: C2_9  and  C3_10 
REMARK    5  A    between atoms: N3_16  and  C8_17 
ROOT
HETATM    1  C2  UNL     1      -5.664  23.616   3.875  1.00  0.00     0.139 C 
HETATM    2  C6  UNL     1      -4.407  23.145   4.530  1.00  0.00     0.143 C 
HETATM    3  C7  UNL     1      -4.348  23.862   5.829  1.00  0.00     0.227 C 
HETATM    4  O3  UNL     1      -3.322  23.865   6.610  1.00  0.00    -0.273 OA
HETATM    5  N3  UNL     1      -5.574  24.525   6.067  1.00  0.00    -0.282 N 
HETATM    6  C15 UNL     1      -6.219  24.708   4.793  1.00  0.00     0.353 C 
HETATM    7  F1  UNL     1      -7.607  24.534   4.952  1.00  0.00    -0.179 F 
HETATM    8  F2  UNL     1      -5.997  25.942   4.249  1.00  0.00    -0.179 F 
ENDROOT
BRANCH   1   9
HETATM    9  N2  UNL     1      -6.646  22.611   3.819  1.00  0.00    -0.284 N 
ATOM     10  H2  UNL     1      -7.584  22.869   3.513  1.00  0.00     0.175 HD
BRANCH   9  11
HETATM   11  S1  UNL     1      -6.360  21.029   4.222  1.00  0.00     0.315 S 
HETATM   12  O1  UNL     1      -7.657  20.248   3.931  1.00  0.00    -0.183 OA
HETATM   13  O2  UNL     1      -5.327  20.340   3.389  1.00  0.00    -0.183 OA
BRANCH  11  14
HETATM   14  N1  UNL     1      -6.073  20.749   5.906  1.00  0.00    -0.307 N 
HETATM   15  C1  UNL     1      -7.192  20.150   6.565  1.00  0.00     0.161 C 
ATOM     16  H1  UNL     1      -5.200  20.985   6.377  1.00  0.00     0.173 HD
ENDBRANCH  11  14
ENDBRANCH   9  11
ENDBRANCH   1   9
BRANCH   1  17
HETATM   17  C3  UNL     1      -5.286  24.200   2.530  1.00  0.00     0.015 C 
HETATM   18  C4  UNL     1      -4.127  23.490   1.896  1.00  0.00     0.012 C 
HETATM   19  C5  UNL     1      -6.483  24.258   1.577  1.00  0.00     0.012 C 
ENDBRANCH   1  17
BRANCH   5  20
HETATM   20  C8  UNL     1      -6.065  24.953   7.402  1.00  0.00     0.094 C 
HETATM   21  C9  UNL     1      -6.317  23.635   8.111  1.00  0.00     0.036 C 
HETATM   22  C10 UNL     1      -6.772  23.829   9.595  1.00  0.00     0.082 C 
HETATM   23  C11 UNL     1      -6.453  25.153   9.932  1.00  0.00    -0.183 C 
HETATM   24  C12 UNL     1      -6.116  26.486  10.198  1.00  0.00     0.080 C 
HETATM   25  C13 UNL     1      -5.565  27.072   8.849  1.00  0.00     0.013 C 
HETATM   26  C14 UNL     1      -5.154  25.951   7.884  1.00  0.00     0.026 C 
ENDBRANCH   5  20
TORSDOF 5
ENDMDL
