MODEL 1
REMARK VINA RESULT: -7.102961362      0.000      0.000
REMARK  6 active torsions:
REMARK  status: ('A' for Active; 'I' for Inactive)
REMARK    1  A    between atoms: C2_2  and  C4_5 
REMARK    2  A    between atoms: C4_5  and  N1_6 
REMARK       I    between atoms: N1_6  and  C5_8 
REMARK       I    between atoms: C5_8  and  N5_24 
REMARK    3  A    between atoms: N2_9  and  C6_11 
REMARK    4  A    between atoms: C6_11  and  C7_12 
REMARK    5  A    between atoms: C7_12  and  C8_13 
REMARK    6  A    between atoms: C8_13  and  N3_14 
ROOT
HETATM    1  N1  UNL     1      -5.595  21.905   5.285  1.00  0.00    -0.223 N 
ATOM      2  H1  UNL     1      -4.824  22.549   5.106  1.00  0.00     0.177 HD
HETATM    3  C5  UNL     1      -6.136  21.131   4.225  1.00  0.00     0.672 C 
HETATM    4  N2  UNL     1      -5.966  21.474   3.014  1.00  0.00    -0.226 N 
ATOM      5  H2  UNL     1      -6.376  20.880   2.295  1.00  0.00     0.177 HD
HETATM    6  N5  UNL     1      -6.871  19.965   4.508  1.00  0.00    -0.214 N 
HETATM    7  C15 UNL     1      -8.290  20.016   4.711  1.00  0.00     0.167 C 
HETATM    8  C16 UNL     1      -8.891  18.680   4.261  1.00  0.00     0.188 C 
HETATM    9  O1  UNL     1      -8.103  18.123   3.242  1.00  0.00    -0.388 OA
HETATM   10  C17 UNL     1      -6.880  17.655   3.749  1.00  0.00     0.188 C 
HETATM   11  C18 UNL     1      -6.191  18.703   4.595  1.00  0.00     0.167 C 
ENDROOT
BRANCH   4  12
HETATM   12  C6  UNL     1      -5.233  22.644   2.580  1.00  0.00     0.139 C 
BRANCH  12  13
HETATM   13  C7  UNL     1      -4.961  22.439   1.084  1.00  0.00     0.040 C 
BRANCH  13  14
HETATM   14  C8  UNL     1      -4.902  20.955   0.779  1.00  0.00     0.122 C 
BRANCH  14  15
HETATM   15  N3  UNL     1      -4.441  20.780  -0.562  1.00  0.00    -0.380 N 
HETATM   16  C9  UNL     1      -3.220  20.522  -0.899  1.00  0.00     0.072 C 
HETATM   17  C10 UNL     1      -3.023  20.393  -2.349  1.00  0.00     0.076 C 
HETATM   18  N4  UNL     1      -2.280  20.407   0.172  1.00  0.00    -0.380 N 
HETATM   19  C11 UNL     1      -1.602  20.644  -2.783  1.00  0.00     0.007 C 
HETATM   20  C12 UNL     1      -0.740  19.506  -2.283  1.00  0.00     0.002 C 
HETATM   21  C13 UNL     1      -0.139  19.973  -0.958  1.00  0.00     0.020 C 
HETATM   22  C14 UNL     1      -1.076  19.629   0.155  1.00  0.00     0.121 C 
ATOM     23  H4  UNL     1      -2.484  20.926   1.026  1.00  0.00     0.160 HD
ATOM     24  H3  UNL     1      -5.128  20.866  -1.311  1.00  0.00     0.160 HD
ENDBRANCH  14  15
ENDBRANCH  13  14
ENDBRANCH  12  13
ENDBRANCH   4  12
BRANCH   1  25
HETATM   25  C4  UNL     1      -6.143  21.778   6.626  1.00  0.00     0.180 C 
BRANCH  25  26
HETATM   26  C2  UNL     1      -7.048  22.917   6.981  1.00  0.00     0.112 C 
HETATM   27  C1  UNL     1      -6.777  24.155   6.155  1.00  0.00     0.053 C 
HETATM   28  C3  UNL     1      -6.782  23.281   8.428  1.00  0.00     0.053 C 
HETATM   29  F1  UNL     1      -8.386  22.555   6.880  1.00  0.00    -0.242 F 
ENDBRANCH  25  26
ENDBRANCH   1  25
TORSDOF 6
ENDMDL
MODEL 2
REMARK VINA RESULT: -7.095701104      2.705      4.435
REMARK  6 active torsions:
REMARK  status: ('A' for Active; 'I' for Inactive)
REMARK    1  A    between atoms: C2_2  and  C4_5 
REMARK    2  A    between atoms: C4_5  and  N1_6 
REMARK       I    between atoms: N1_6  and  C5_8 
REMARK       I    between atoms: C5_8  and  N5_24 
REMARK    3  A    between atoms: N2_9  and  C6_11 
REMARK    4  A    between atoms: C6_11  and  C7_12 
REMARK    5  A    between atoms: C7_12  and  C8_13 
REMARK    6  A    between atoms: C8_13  and  N3_14 
ROOT
HETATM    1  N1  UNL     1      -5.575  21.948   5.385  1.00  0.00    -0.223 N 
ATOM      2  H1  UNL     1      -4.811  22.608   5.238  1.00  0.00     0.177 HD
HETATM    3  C5  UNL     1      -6.097  21.209   4.291  1.00  0.00     0.672 C 
HETATM    4  N2  UNL     1      -5.922  21.601   3.096  1.00  0.00    -0.226 N 
ATOM      5  H2  UNL     1      -6.318  21.031   2.350  1.00  0.00     0.177 HD
HETATM    6  N5  UNL     1      -6.819  20.024   4.521  1.00  0.00    -0.214 N 
HETATM    7  C15 UNL     1      -8.241  20.049   4.714  1.00  0.00     0.167 C 
HETATM    8  C16 UNL     1      -8.821  18.724   4.207  1.00  0.00     0.188 C 
HETATM    9  O1  UNL     1      -8.017  18.217   3.174  1.00  0.00    -0.388 OA
HETATM   10  C17 UNL     1      -6.792  17.745   3.673  1.00  0.00     0.188 C 
HETATM   11  C18 UNL     1      -6.123  18.768   4.565  1.00  0.00     0.167 C 
ENDROOT
BRANCH   4  12
HETATM   12  C6  UNL     1      -5.201  22.797   2.713  1.00  0.00     0.139 C 
BRANCH  12  13
HETATM   13  C7  UNL     1      -4.295  22.386   1.546  1.00  0.00     0.040 C 
BRANCH  13  14
HETATM   14  C8  UNL     1      -4.717  23.127   0.292  1.00  0.00     0.122 C 
BRANCH  14  15
HETATM   15  N3  UNL     1      -5.821  23.977   0.612  1.00  0.00    -0.380 N 
HETATM   16  C9  UNL     1      -6.464  24.708  -0.237  1.00  0.00     0.072 C 
HETATM   17  C10 UNL     1      -7.557  25.485   0.363  1.00  0.00     0.076 C 
HETATM   18  N4  UNL     1      -6.018  24.643  -1.594  1.00  0.00    -0.380 N 
HETATM   19  C11 UNL     1      -7.936  26.702  -0.441  1.00  0.00     0.007 C 
HETATM   20  C12 UNL     1      -8.593  26.244  -1.725  1.00  0.00     0.002 C 
HETATM   21  C13 UNL     1      -7.491  26.212  -2.783  1.00  0.00     0.020 C 
HETATM   22  C14 UNL     1      -6.823  24.876  -2.757  1.00  0.00     0.121 C 
ATOM     23  H4  UNL     1      -5.037  24.409  -1.748  1.00  0.00     0.160 HD
ATOM     24  H3  UNL     1      -6.124  24.008   1.585  1.00  0.00     0.160 HD
ENDBRANCH  14  15
ENDBRANCH  13  14
ENDBRANCH  12  13
ENDBRANCH   4  12
BRANCH   1  25
HETATM   25  C4  UNL     1      -6.132  21.762   6.715  1.00  0.00     0.180 C 
BRANCH  25  26
HETATM   26  C2  UNL     1      -7.061  22.871   7.103  1.00  0.00     0.112 C 
HETATM   27  C1  UNL     1      -6.836  24.128   6.294  1.00  0.00     0.053 C 
HETATM   28  C3  UNL     1      -6.780  23.219   8.552  1.00  0.00     0.053 C 
HETATM   29  F1  UNL     1      -8.390  22.475   7.018  1.00  0.00    -0.242 F 
ENDBRANCH  25  26
ENDBRANCH   1  25
TORSDOF 6
ENDMDL
MODEL 3
REMARK VINA RESULT: -7.043513671      6.332     10.432
REMARK  6 active torsions:
REMARK  status: ('A' for Active; 'I' for Inactive)
REMARK    1  A    between atoms: C2_2  and  C4_5 
REMARK    2  A    between atoms: C4_5  and  N1_6 
REMARK       I    between atoms: N1_6  and  C5_8 
REMARK       I    between atoms: C5_8  and  N5_24 
REMARK    3  A    between atoms: N2_9  and  C6_11 
REMARK    4  A    between atoms: C6_11  and  C7_12 
REMARK    5  A    between atoms: C7_12  and  C8_13 
REMARK    6  A    between atoms: C8_13  and  N3_14 
ROOT
HETATM    1  N1  UNL     1      -5.483  23.194   7.977  1.00  0.00    -0.223 N 
ATOM      2  H1  UNL     1      -5.469  22.677   8.856  1.00  0.00     0.177 HD
HETATM    3  C5  UNL     1      -5.202  24.586   7.967  1.00  0.00     0.672 C 
HETATM    4  N2  UNL     1      -5.309  25.280   9.025  1.00  0.00    -0.226 N 
ATOM      5  H2  UNL     1      -5.094  26.275   8.960  1.00  0.00     0.177 HD
HETATM    6  N5  UNL     1      -4.798  25.215   6.776  1.00  0.00    -0.214 N 
HETATM    7  C15 UNL     1      -5.761  25.772   5.869  1.00  0.00     0.167 C 
HETATM    8  C16 UNL     1      -5.114  26.955   5.143  1.00  0.00     0.188 C 
HETATM    9  O1  UNL     1      -4.142  27.545   5.966  1.00  0.00    -0.388 OA
HETATM   10  C17 UNL     1      -3.014  26.717   6.087  1.00  0.00     0.188 C 
HETATM   11  C18 UNL     1      -3.400  25.302   6.460  1.00  0.00     0.167 C 
ENDROOT
BRANCH   4  12
HETATM   12  C6  UNL     1      -5.712  24.766  10.317  1.00  0.00     0.139 C 
BRANCH  12  13
HETATM   13  C7  UNL     1      -5.749  25.976  11.259  1.00  0.00     0.040 C 
BRANCH  13  14
HETATM   14  C8  UNL     1      -5.492  27.243  10.466  1.00  0.00     0.122 C 
BRANCH  14  15
HETATM   15  N3  UNL     1      -6.602  28.126  10.641  1.00  0.00    -0.380 N 
HETATM   16  C9  UNL     1      -6.944  29.061   9.816  1.00  0.00     0.072 C 
HETATM   17  C10 UNL     1      -8.126  29.821  10.243  1.00  0.00     0.076 C 
HETATM   18  N4  UNL     1      -6.132  29.201   8.648  1.00  0.00    -0.380 N 
HETATM   19  C11 UNL     1      -8.204  31.196   9.632  1.00  0.00     0.007 C 
HETATM   20  C12 UNL     1      -8.488  31.049   8.154  1.00  0.00     0.002 C 
HETATM   21  C13 UNL     1      -7.133  31.101   7.449  1.00  0.00     0.020 C 
HETATM   22  C14 UNL     1      -6.561  29.722   7.382  1.00  0.00     0.121 C 
ATOM     23  H4  UNL     1      -5.160  28.902   8.720  1.00  0.00     0.160 HD
ATOM     24  H3  UNL     1      -7.168  28.009  11.481  1.00  0.00     0.160 HD
ENDBRANCH  14  15
ENDBRANCH  13  14
ENDBRANCH  12  13
ENDBRANCH   4  12
BRANCH   1  25
HETATM   25  C4  UNL     1      -5.790  22.509   6.732  1.00  0.00     0.180 C 
BRANCH  25  26
HETATM   26  C2  UNL     1      -7.218  22.065   6.665  1.00  0.00     0.112 C 
HETATM   27  C1  UNL     1      -7.355  20.568   6.505  1.00  0.00     0.053 C 
HETATM   28  C3  UNL     1      -7.839  22.700   5.436  1.00  0.00     0.053 C 
HETATM   29  F1  UNL     1      -7.940  22.499   7.769  1.00  0.00    -0.242 F 
ENDBRANCH  25  26
ENDBRANCH   1  25
TORSDOF 6
ENDMDL
MODEL 4
REMARK VINA RESULT: -6.951466336      2.925      7.918
REMARK  6 active torsions:
REMARK  status: ('A' for Active; 'I' for Inactive)
REMARK    1  A    between atoms: C2_2  and  C4_5 
REMARK    2  A    between atoms: C4_5  and  N1_6 
REMARK       I    between atoms: N1_6  and  C5_8 
REMARK       I    between atoms: C5_8  and  N5_24 
REMARK    3  A    between atoms: N2_9  and  C6_11 
REMARK    4  A    between atoms: C6_11  and  C7_12 
REMARK    5  A    between atoms: C7_12  and  C8_13 
REMARK    6  A    between atoms: C8_13  and  N3_14 
ROOT
HETATM    1  N1  UNL     1      -6.293  20.269   3.529  1.00  0.00    -0.223 N 
ATOM      2  H1  UNL     1      -6.004  21.173   3.902  1.00  0.00     0.177 HD
HETATM    3  C5  UNL     1      -7.233  19.475   4.237  1.00  0.00     0.672 C 
HETATM    4  N2  UNL     1      -7.439  19.659   5.477  1.00  0.00    -0.226 N 
ATOM      5  H2  UNL     1      -8.126  19.060   5.934  1.00  0.00     0.177 HD
HETATM    6  N5  UNL     1      -7.953  18.470   3.568  1.00  0.00    -0.214 N 
HETATM    7  C15 UNL     1      -7.442  17.132   3.471  1.00  0.00     0.167 C 
HETATM    8  C16 UNL     1      -8.629  16.165   3.405  1.00  0.00     0.188 C 
HETATM    9  O1  UNL     1      -9.725  16.709   4.091  1.00  0.00    -0.388 OA
HETATM   10  C17 UNL     1     -10.280  17.787   3.383  1.00  0.00     0.188 C 
HETATM   11  C18 UNL     1      -9.220  18.785   2.969  1.00  0.00     0.167 C 
ENDROOT
BRANCH   4  12
HETATM   12  C6  UNL     1      -6.772  20.654   6.289  1.00  0.00     0.139 C 
BRANCH  12  13
HETATM   13  C7  UNL     1      -7.668  21.898   6.250  1.00  0.00     0.040 C 
BRANCH  13  14
HETATM   14  C8  UNL     1      -7.391  22.760   7.466  1.00  0.00     0.122 C 
BRANCH  14  15
HETATM   15  N3  UNL     1      -6.930  24.040   7.026  1.00  0.00    -0.380 N 
HETATM   16  C9  UNL     1      -6.549  24.998   7.803  1.00  0.00     0.072 C 
HETATM   17  C10 UNL     1      -6.124  26.207   7.085  1.00  0.00     0.076 C 
HETATM   18  N4  UNL     1      -6.601  24.733   9.207  1.00  0.00    -0.380 N 
HETATM   19  C11 UNL     1      -6.210  27.459   7.918  1.00  0.00     0.007 C 
HETATM   20  C12 UNL     1      -5.153  27.392   8.997  1.00  0.00     0.002 C 
HETATM   21  C13 UNL     1      -5.843  26.832  10.241  1.00  0.00     0.020 C 
HETATM   22  C14 UNL     1      -5.775  25.339  10.210  1.00  0.00     0.121 C 
ATOM     23  H4  UNL     1      -7.289  24.050   9.524  1.00  0.00     0.160 HD
ATOM     24  H3  UNL     1      -6.900  24.208   6.020  1.00  0.00     0.160 HD
ENDBRANCH  14  15
ENDBRANCH  13  14
ENDBRANCH  12  13
ENDBRANCH   4  12
BRANCH   1  25
HETATM   25  C4  UNL     1      -5.743  19.790   2.272  1.00  0.00     0.180 C 
BRANCH  25  26
HETATM   26  C2  UNL     1      -4.954  20.843   1.558  1.00  0.00     0.112 C 
HETATM   27  C1  UNL     1      -3.590  20.355   1.125  1.00  0.00     0.053 C 
HETATM   28  C3  UNL     1      -4.729  21.985   2.530  1.00  0.00     0.053 C 
HETATM   29  F1  UNL     1      -5.651  21.353   0.469  1.00  0.00    -0.242 F 
ENDBRANCH  25  26
ENDBRANCH   1  25
TORSDOF 6
ENDMDL
MODEL 5
REMARK VINA RESULT: -6.911007685      3.068      5.675
REMARK  6 active torsions:
REMARK  status: ('A' for Active; 'I' for Inactive)
REMARK    1  A    between atoms: C2_2  and  C4_5 
REMARK    2  A    between atoms: C4_5  and  N1_6 
REMARK       I    between atoms: N1_6  and  C5_8 
REMARK       I    between atoms: C5_8  and  N5_24 
REMARK    3  A    between atoms: N2_9  and  C6_11 
REMARK    4  A    between atoms: C6_11  and  C7_12 
REMARK    5  A    between atoms: C7_12  and  C8_13 
REMARK    6  A    between atoms: C8_13  and  N3_14 
ROOT
HETATM    1  N1  UNL     1      -5.595  22.092   5.295  1.00  0.00    -0.223 N 
ATOM      2  H1  UNL     1      -4.835  22.755   5.137  1.00  0.00     0.177 HD
HETATM    3  C5  UNL     1      -6.127  21.348   4.209  1.00  0.00     0.672 C 
HETATM    4  N2  UNL     1      -5.968  21.739   3.011  1.00  0.00    -0.226 N 
ATOM      5  H2  UNL     1      -6.372  21.165   2.272  1.00  0.00     0.177 HD
HETATM    6  N5  UNL     1      -6.840  20.160   4.451  1.00  0.00    -0.214 N 
HETATM    7  C15 UNL     1      -8.260  20.179   4.662  1.00  0.00     0.167 C 
HETATM    8  C16 UNL     1      -8.840  18.851   4.165  1.00  0.00     0.188 C 
HETATM    9  O1  UNL     1      -8.048  18.346   3.123  1.00  0.00    -0.388 OA
HETATM   10  C17 UNL     1      -6.815  17.880   3.607  1.00  0.00     0.188 C 
HETATM   11  C18 UNL     1      -6.139  18.908   4.489  1.00  0.00     0.167 C 
ENDROOT
BRANCH   4  12
HETATM   12  C6  UNL     1      -5.258  22.936   2.618  1.00  0.00     0.139 C 
BRANCH  12  13
HETATM   13  C7  UNL     1      -5.340  22.990   1.087  1.00  0.00     0.040 C 
BRANCH  13  14
HETATM   14  C8  UNL     1      -6.083  24.242   0.663  1.00  0.00     0.122 C 
BRANCH  14  15
HETATM   15  N3  UNL     1      -6.532  24.927   1.835  1.00  0.00    -0.380 N 
HETATM   16  C9  UNL     1      -7.028  26.120   1.852  1.00  0.00     0.072 C 
HETATM   17  C10 UNL     1      -7.407  26.582   3.194  1.00  0.00     0.076 C 
HETATM   18  N4  UNL     1      -7.125  26.783   0.589  1.00  0.00    -0.380 N 
HETATM   19  C11 UNL     1      -7.454  28.083   3.318  1.00  0.00     0.007 C 
HETATM   20  C12 UNL     1      -8.623  28.595   2.507  1.00  0.00     0.002 C 
HETATM   21  C13 UNL     1      -8.060  28.989   1.142  1.00  0.00     0.020 C 
HETATM   22  C14 UNL     1      -8.077  27.797   0.241  1.00  0.00     0.121 C 
ATOM     23  H4  UNL     1      -6.457  26.509  -0.131  1.00  0.00     0.160 HD
ATOM     24  H3  UNL     1      -6.454  24.437   2.725  1.00  0.00     0.160 HD
ENDBRANCH  14  15
ENDBRANCH  13  14
ENDBRANCH  12  13
ENDBRANCH   4  12
BRANCH   1  25
HETATM   25  C4  UNL     1      -6.133  21.906   6.632  1.00  0.00     0.180 C 
BRANCH  25  26
HETATM   26  C2  UNL     1      -7.054  23.016   7.034  1.00  0.00     0.112 C 
HETATM   27  C1  UNL     1      -6.809  24.287   6.251  1.00  0.00     0.053 C 
HETATM   28  C3  UNL     1      -6.782  23.334   8.491  1.00  0.00     0.053 C 
HETATM   29  F1  UNL     1      -8.386  22.636   6.931  1.00  0.00    -0.242 F 
ENDBRANCH  25  26
ENDBRANCH   1  25
TORSDOF 6
ENDMDL
