MODEL 1
REMARK VINA RESULT: -6.777607853      0.000      0.000
REMARK  7 active torsions:
REMARK  status: ('A' for Active; 'I' for Inactive)
REMARK    1  A    between atoms: N1_5  and  C5_6 
REMARK    2  A    between atoms: C5_6  and  C6_7 
REMARK    3  A    between atoms: C6_7  and  C7_8 
REMARK    4  A    between atoms: C7_8  and  N2_9 
REMARK    5  A    between atoms: N2_9  and  C8_11 
REMARK    6  A    between atoms: C8_11  and  N3_13 
REMARK    7  A    between atoms: N3_13  and  C9_15 
ROOT
HETATM    1  C8  UNL     1      -5.187  22.771   7.188  1.00  0.00     0.167 C 
HETATM    2  S1  UNL     1      -4.518  22.843   5.677  1.00  0.00    -0.041 SA
ENDROOT
BRANCH   1   3
HETATM    3  N2  UNL     1      -6.008  21.700   7.561  1.00  0.00    -0.367 N 
ATOM      4  H2  UNL     1      -5.733  21.146   8.372  1.00  0.00     0.161 HD
BRANCH   3   5
HETATM    5  C7  UNL     1      -7.208  21.337   6.874  1.00  0.00     0.123 C 
BRANCH   5   6
HETATM    6  C6  UNL     1      -7.250  19.874   6.567  1.00  0.00     0.050 C 
BRANCH   6   7
HETATM    7  C5  UNL     1      -6.767  19.629   5.155  1.00  0.00     0.274 C 
BRANCH   7   8
HETATM    8  N1  UNL     1      -7.632  18.887   4.328  1.00  0.00     0.088 N 
HETATM    9  C4  UNL     1      -8.563  19.622   3.527  1.00  0.00     0.272 C 
HETATM   10  C3  UNL     1      -9.766  18.728   3.332  1.00  0.00     0.034 C 
HETATM   11  C2  UNL     1      -9.463  17.298   3.140  1.00  0.00    -0.015 C 
HETATM   12  C1  UNL     1     -10.283  16.510   4.176  1.00  0.00     0.010 C 
HETATM   13  C16 UNL     1      -8.065  16.844   3.228  1.00  0.00     0.034 C 
HETATM   14  C15 UNL     1      -7.023  17.901   3.471  1.00  0.00     0.272 C 
ENDBRANCH   7   8
ENDBRANCH   6   7
ENDBRANCH   5   6
ENDBRANCH   3   5
ENDBRANCH   1   3
BRANCH   1  15
HETATM   15  N3  UNL     1      -4.862  23.824   8.061  1.00  0.00    -0.361 N 
ATOM     16  H3  UNL     1      -3.984  23.768   8.576  1.00  0.00     0.162 HD
BRANCH  15  17
HETATM   17  C9  UNL     1      -5.720  25.007   8.275  1.00  0.00     0.103 C 
HETATM   18  C10 UNL     1      -6.325  24.900   9.613  1.00  0.00     0.056 C 
HETATM   19  C11 UNL     1      -6.389  26.151  10.445  1.00  0.00     0.176 C 
HETATM   20 CL1  UNL     1      -5.248  26.070  11.798  1.00  0.00    -0.115 Cl
HETATM   21  C12 UNL     1      -6.179  27.373   9.669  1.00  0.00     0.238 C 
HETATM   22  O1  UNL     1      -6.815  28.418   9.953  1.00  0.00    -0.272 OA
HETATM   23  N4  UNL     1      -5.266  27.410   8.594  1.00  0.00    -0.353 N 
HETATM   24  C13 UNL     1      -4.670  28.653   8.102  1.00  0.00     0.152 C 
HETATM   25  C14 UNL     1      -4.890  26.188   7.946  1.00  0.00     0.150 C 
ENDBRANCH  15  17
ENDBRANCH   1  15
TORSDOF 7
ENDMDL
MODEL 2
REMARK VINA RESULT: -6.697946208      1.868      2.345
REMARK  7 active torsions:
REMARK  status: ('A' for Active; 'I' for Inactive)
REMARK    1  A    between atoms: N1_5  and  C5_6 
REMARK    2  A    between atoms: C5_6  and  C6_7 
REMARK    3  A    between atoms: C6_7  and  C7_8 
REMARK    4  A    between atoms: C7_8  and  N2_9 
REMARK    5  A    between atoms: N2_9  and  C8_11 
REMARK    6  A    between atoms: C8_11  and  N3_13 
REMARK    7  A    between atoms: N3_13  and  C9_15 
ROOT
HETATM    1  C8  UNL     1      -6.438  24.456   5.910  1.00  0.00     0.167 C 
HETATM    2  S1  UNL     1      -6.835  24.810   4.344  1.00  0.00    -0.041 SA
ENDROOT
BRANCH   1   3
HETATM    3  N2  UNL     1      -5.807  23.249   6.237  1.00  0.00    -0.367 N 
ATOM      4  H2  UNL     1      -4.870  23.083   5.869  1.00  0.00     0.161 HD
BRANCH   3   5
HETATM    5  C7  UNL     1      -6.395  22.236   7.055  1.00  0.00     0.123 C 
BRANCH   5   6
HETATM    6  C6  UNL     1      -7.528  21.550   6.360  1.00  0.00     0.050 C 
BRANCH   6   7
HETATM    7  C5  UNL     1      -7.266  20.063   6.293  1.00  0.00     0.274 C 
BRANCH   7   8
HETATM    8  N1  UNL     1      -7.681  19.416   5.112  1.00  0.00     0.088 N 
HETATM    9  C4  UNL     1      -8.708  20.051   4.344  1.00  0.00     0.272 C 
HETATM   10  C3  UNL     1      -9.459  18.950   3.630  1.00  0.00     0.034 C 
HETATM   11  C2  UNL     1      -8.625  17.839   3.134  1.00  0.00    -0.015 C 
HETATM   12  C1  UNL     1      -9.220  16.534   3.688  1.00  0.00     0.010 C 
HETATM   13  C16 UNL     1      -7.182  17.840   3.426  1.00  0.00     0.034 C 
HETATM   14  C15 UNL     1      -6.646  19.020   4.190  1.00  0.00     0.272 C 
ENDBRANCH   7   8
ENDBRANCH   6   7
ENDBRANCH   5   6
ENDBRANCH   3   5
ENDBRANCH   1   3
BRANCH   1  15
HETATM   15  N3  UNL     1      -6.748  25.438   6.866  1.00  0.00    -0.361 N 
ATOM     16  H3  UNL     1      -7.726  25.701   6.985  1.00  0.00     0.162 HD
BRANCH  15  17
HETATM   17  C9  UNL     1      -5.737  26.113   7.707  1.00  0.00     0.103 C 
HETATM   18  C10 UNL     1      -5.607  27.504   7.242  1.00  0.00     0.056 C 
HETATM   19  C11 UNL     1      -5.500  28.576   8.292  1.00  0.00     0.176 C 
HETATM   20 CL1  UNL     1      -6.980  29.548   8.357  1.00  0.00    -0.115 Cl
HETATM   21  C12 UNL     1      -5.169  28.056   9.618  1.00  0.00     0.238 C 
HETATM   22  O1  UNL     1      -4.418  28.710  10.383  1.00  0.00    -0.272 OA
HETATM   23  N4  UNL     1      -5.679  26.820  10.069  1.00  0.00    -0.353 N 
HETATM   24  C13 UNL     1      -5.785  26.475  11.488  1.00  0.00     0.152 C 
HETATM   25  C14 UNL     1      -6.123  25.849   9.112  1.00  0.00     0.150 C 
ENDBRANCH  15  17
ENDBRANCH   1  15
TORSDOF 7
ENDMDL
MODEL 3
REMARK VINA RESULT: -6.683323733      3.250      9.175
REMARK  7 active torsions:
REMARK  status: ('A' for Active; 'I' for Inactive)
REMARK    1  A    between atoms: N1_5  and  C5_6 
REMARK    2  A    between atoms: C5_6  and  C6_7 
REMARK    3  A    between atoms: C6_7  and  C7_8 
REMARK    4  A    between atoms: C7_8  and  N2_9 
REMARK    5  A    between atoms: N2_9  and  C8_11 
REMARK    6  A    between atoms: C8_11  and  N3_13 
REMARK    7  A    between atoms: N3_13  and  C9_15 
ROOT
HETATM    1  C8  UNL     1      -4.784  23.240   7.569  1.00  0.00     0.167 C 
HETATM    2  S1  UNL     1      -3.917  23.216   6.160  1.00  0.00    -0.041 SA
ENDROOT
BRANCH   1   3
HETATM    3  N2  UNL     1      -4.635  24.286   8.488  1.00  0.00    -0.367 N 
ATOM      4  H2  UNL     1      -3.691  24.615   8.690  1.00  0.00     0.161 HD
BRANCH   3   5
HETATM    5  C7  UNL     1      -5.726  24.921   9.158  1.00  0.00     0.123 C 
BRANCH   5   6
HETATM    6  C6  UNL     1      -6.124  26.196   8.485  1.00  0.00     0.050 C 
BRANCH   6   7
HETATM    7  C5  UNL     1      -5.240  27.327   8.959  1.00  0.00     0.274 C 
BRANCH   7   8
HETATM    8  N1  UNL     1      -5.903  28.513   9.333  1.00  0.00     0.088 N 
HETATM    9  C4  UNL     1      -6.717  28.466  10.509  1.00  0.00     0.272 C 
HETATM   10  C3  UNL     1      -7.815  29.486  10.316  1.00  0.00     0.034 C 
HETATM   11  C2  UNL     1      -7.405  30.735   9.647  1.00  0.00    -0.015 C 
HETATM   12  C1  UNL     1      -8.351  30.949   8.454  1.00  0.00     0.010 C 
HETATM   13  C16 UNL     1      -6.022  30.864   9.159  1.00  0.00     0.034 C 
HETATM   14  C15 UNL     1      -5.099  29.706   9.421  1.00  0.00     0.272 C 
ENDBRANCH   7   8
ENDBRANCH   6   7
ENDBRANCH   5   6
ENDBRANCH   3   5
ENDBRANCH   1   3
BRANCH   1  15
HETATM   15  N3  UNL     1      -5.679  22.174   7.763  1.00  0.00    -0.361 N 
ATOM     16  H3  UNL     1      -5.396  21.415   8.382  1.00  0.00     0.162 HD
BRANCH  15  17
HETATM   17  C9  UNL     1      -7.008  22.091   7.123  1.00  0.00     0.103 C 
HETATM   18  C10 UNL     1      -7.243  23.345   6.387  1.00  0.00     0.056 C 
HETATM   19  C11 UNL     1      -7.869  23.239   5.023  1.00  0.00     0.176 C 
HETATM   20 CL1  UNL     1      -6.690  23.616   3.755  1.00  0.00    -0.115 Cl
HETATM   21  C12 UNL     1      -8.495  21.941   4.773  1.00  0.00     0.238 C 
HETATM   22  O1  UNL     1      -9.554  21.869   4.103  1.00  0.00    -0.272 OA
HETATM   23  N4  UNL     1      -7.930  20.747   5.272  1.00  0.00    -0.353 N 
HETATM   24  C13 UNL     1      -8.210  19.434   4.689  1.00  0.00     0.152 C 
HETATM   25  C14 UNL     1      -7.037  20.804   6.392  1.00  0.00     0.150 C 
ENDBRANCH  15  17
ENDBRANCH   1  15
TORSDOF 7
ENDMDL
MODEL 4
REMARK VINA RESULT: -6.621260294      4.212      9.448
REMARK  7 active torsions:
REMARK  status: ('A' for Active; 'I' for Inactive)
REMARK    1  A    between atoms: N1_5  and  C5_6 
REMARK    2  A    between atoms: C5_6  and  C6_7 
REMARK    3  A    between atoms: C6_7  and  C7_8 
REMARK    4  A    between atoms: C7_8  and  N2_9 
REMARK    5  A    between atoms: N2_9  and  C8_11 
REMARK    6  A    between atoms: C8_11  and  N3_13 
REMARK    7  A    between atoms: N3_13  and  C9_15 
ROOT
HETATM    1  C8  UNL     1      -7.532  23.287   5.069  1.00  0.00     0.167 C 
HETATM    2  S1  UNL     1      -7.705  24.269   3.749  1.00  0.00    -0.041 SA
ENDROOT
BRANCH   1   3
HETATM    3  N2  UNL     1      -6.840  23.724   6.205  1.00  0.00    -0.367 N 
ATOM      4  H2  UNL     1      -6.053  24.359   6.072  1.00  0.00     0.161 HD
BRANCH   3   5
HETATM    5  C7  UNL     1      -7.169  23.334   7.540  1.00  0.00     0.123 C 
BRANCH   5   6
HETATM    6  C6  UNL     1      -6.816  24.396   8.531  1.00  0.00     0.050 C 
BRANCH   6   7
HETATM    7  C5  UNL     1      -6.346  25.639   7.810  1.00  0.00     0.274 C 
BRANCH   7   8
HETATM    8  N1  UNL     1      -6.225  26.801   8.597  1.00  0.00     0.088 N 
HETATM    9  C4  UNL     1      -5.666  26.651   9.905  1.00  0.00     0.272 C 
HETATM   10  C3  UNL     1      -6.271  27.738  10.763  1.00  0.00     0.034 C 
HETATM   11  C2  UNL     1      -6.459  29.038  10.091  1.00  0.00    -0.015 C 
HETATM   12  C1  UNL     1      -7.932  29.442  10.275  1.00  0.00     0.010 C 
HETATM   13  C16 UNL     1      -6.131  29.159   8.661  1.00  0.00     0.034 C 
HETATM   14  C15 UNL     1      -5.576  27.934   7.986  1.00  0.00     0.272 C 
ENDBRANCH   7   8
ENDBRANCH   6   7
ENDBRANCH   5   6
ENDBRANCH   3   5
ENDBRANCH   1   3
BRANCH   1  15
HETATM   15  N3  UNL     1      -8.135  22.021   4.982  1.00  0.00    -0.361 N 
ATOM     16  H3  UNL     1      -9.152  21.976   4.924  1.00  0.00     0.162 HD
BRANCH  15  17
HETATM   17  C9  UNL     1      -7.380  20.751   4.970  1.00  0.00     0.103 C 
HETATM   18  C10 UNL     1      -8.341  19.644   5.112  1.00  0.00     0.056 C 
HETATM   19  C11 UNL     1      -8.128  18.429   4.251  1.00  0.00     0.176 C 
HETATM   20 CL1  UNL     1      -9.367  18.323   2.989  1.00  0.00    -0.115 Cl
HETATM   21  C12 UNL     1      -6.790  18.364   3.663  1.00  0.00     0.238 C 
HETATM   22  O1  UNL     1      -6.213  17.257   3.528  1.00  0.00    -0.272 OA
HETATM   23  N4  UNL     1      -6.119  19.531   3.237  1.00  0.00    -0.353 N 
HETATM   24  C13 UNL     1      -5.040  19.509   2.248  1.00  0.00     0.152 C 
HETATM   25  C14 UNL     1      -6.501  20.802   3.780  1.00  0.00     0.150 C 
ENDBRANCH  15  17
ENDBRANCH   1  15
TORSDOF 7
ENDMDL
MODEL 5
REMARK VINA RESULT: -6.611800602      3.094      3.700
REMARK  7 active torsions:
REMARK  status: ('A' for Active; 'I' for Inactive)
REMARK    1  A    between atoms: N1_5  and  C5_6 
REMARK    2  A    between atoms: C5_6  and  C6_7 
REMARK    3  A    between atoms: C6_7  and  C7_8 
REMARK    4  A    between atoms: C7_8  and  N2_9 
REMARK    5  A    between atoms: N2_9  and  C8_11 
REMARK    6  A    between atoms: C8_11  and  N3_13 
REMARK    7  A    between atoms: N3_13  and  C9_15 
ROOT
HETATM    1  C8  UNL     1      -6.659  24.825   3.364  1.00  0.00     0.167 C 
HETATM    2  S1  UNL     1      -7.434  26.121   2.690  1.00  0.00    -0.041 SA
ENDROOT
BRANCH   1   3
HETATM    3  N2  UNL     1      -6.542  23.614   2.670  1.00  0.00    -0.367 N 
ATOM      4  H2  UNL     1      -7.377  23.237   2.222  1.00  0.00     0.161 HD
BRANCH   3   5
HETATM    5  C7  UNL     1      -5.324  22.876   2.550  1.00  0.00     0.123 C 
BRANCH   5   6
HETATM    6  C6  UNL     1      -5.287  21.712   3.488  1.00  0.00     0.050 C 
BRANCH   6   7
HETATM    7  C5  UNL     1      -5.647  20.443   2.749  1.00  0.00     0.274 C 
BRANCH   7   8
HETATM    8  N1  UNL     1      -6.582  19.603   3.386  1.00  0.00     0.088 N 
HETATM    9  C4  UNL     1      -6.266  18.209   3.460  1.00  0.00     0.272 C 
HETATM   10  C3  UNL     1      -7.583  17.468   3.479  1.00  0.00     0.034 C 
HETATM   11  C2  UNL     1      -8.657  18.112   4.257  1.00  0.00    -0.015 C 
HETATM   12  C1  UNL     1      -9.877  18.248   3.331  1.00  0.00     0.010 C 
HETATM   13  C16 UNL     1      -8.407  19.425   4.873  1.00  0.00     0.034 C 
HETATM   14  C15 UNL     1      -7.031  20.006   4.695  1.00  0.00     0.272 C 
ENDBRANCH   7   8
ENDBRANCH   6   7
ENDBRANCH   5   6
ENDBRANCH   3   5
ENDBRANCH   1   3
BRANCH   1  15
HETATM   15  N3  UNL     1      -6.115  25.026   4.645  1.00  0.00    -0.361 N 
ATOM     16  H3  UNL     1      -5.128  25.272   4.715  1.00  0.00     0.162 HD
BRANCH  15  17
HETATM   17  C9  UNL     1      -6.892  24.900   5.895  1.00  0.00     0.103 C 
HETATM   18  C10 UNL     1      -7.266  23.486   6.064  1.00  0.00     0.056 C 
HETATM   19  C11 UNL     1      -7.154  22.902   7.446  1.00  0.00     0.176 C 
HETATM   20 CL1  UNL     1      -5.804  21.759   7.542  1.00  0.00    -0.115 Cl
HETATM   21  C12 UNL     1      -7.045  23.915   8.495  1.00  0.00     0.238 C 
HETATM   22  O1  UNL     1      -7.594  23.733   9.609  1.00  0.00    -0.272 OA
HETATM   23  N4  UNL     1      -6.325  25.112   8.286  1.00  0.00    -0.353 N 
HETATM   24  C13 UNL     1      -5.787  25.916   9.384  1.00  0.00     0.152 C 
HETATM   25  C14 UNL     1      -6.097  25.573   6.948  1.00  0.00     0.150 C 
ENDBRANCH  15  17
ENDBRANCH   1  15
TORSDOF 7
ENDMDL
