MODEL 1
REMARK VINA RESULT: -5.579081766      0.000      0.000
REMARK  4 active torsions:
REMARK  status: ('A' for Active; 'I' for Inactive)
REMARK    1  A    between atoms: C2_2  and  N1_3 
REMARK    2  A    between atoms: C2_2  and  C8_10 
REMARK    3  A    between atoms: C8_10  and  N2_11 
REMARK    4  A    between atoms: C8_10  and  N3_15 
ROOT
HETATM    1  C1  UNL     1       9.443 -15.490  40.743  1.00  0.00     0.036 C 
HETATM    2  C2  UNL     1      10.318 -14.483  40.023  1.00  0.00     0.135 C 
ENDROOT
BRANCH   2   3
HETATM    3  N1  UNL     1      11.323 -13.940  40.860  1.00  0.00    -0.388 N 
HETATM    4  C3  UNL     1      12.560 -14.168  40.768  1.00  0.00    -0.018 C 
HETATM    5  C4  UNL     1      13.696 -13.657  41.585  1.00  0.00     0.052 C 
HETATM    6  C7  UNL     1      13.211 -15.052  39.762  1.00  0.00     0.052 C 
HETATM    7  C5  UNL     1      14.490 -14.929  41.817  1.00  0.00     0.006 C 
HETATM    8  C6  UNL     1      14.372 -15.660  40.512  1.00  0.00     0.006 C 
ATOM      9  H1  UNL     1      11.020 -13.310  41.602  1.00  0.00     0.159 HD
ENDBRANCH   2   3
BRANCH   2  10
HETATM   10  C8  UNL     1       9.405 -13.332  39.606  1.00  0.00     0.399 C 
BRANCH  10  11
HETATM   11  N2  UNL     1      10.216 -12.259  39.131  1.00  0.00    -0.048 N 
ATOM     12  H23 UNL     1      10.777 -11.836  39.871  1.00  0.00     0.276 HD
ATOM     13  H22 UNL     1      10.983 -12.580  38.541  1.00  0.00     0.276 HD
ATOM     14  H21 UNL     1       9.616 -11.582  38.659  1.00  0.00     0.276 HD
ENDBRANCH  10  11
BRANCH  10  15
HETATM   15  N3  UNL     1       8.504 -13.870  38.605  1.00  0.00    -0.048 N 
ATOM     16  H33 UNL     1       8.985 -14.247  37.788  1.00  0.00     0.276 HD
ATOM     17  H32 UNL     1       8.049 -14.737  38.893  1.00  0.00     0.276 HD
ATOM     18  H31 UNL     1       7.847 -13.122  38.380  1.00  0.00     0.276 HD
ENDBRANCH  10  15
ENDBRANCH   2  10
TORSDOF 4
ENDMDL
MODEL 2
REMARK VINA RESULT: -5.539196466      3.286      5.770
REMARK  4 active torsions:
REMARK  status: ('A' for Active; 'I' for Inactive)
REMARK    1  A    between atoms: C2_2  and  N1_3 
REMARK    2  A    between atoms: C2_2  and  C8_10 
REMARK    3  A    between atoms: C8_10  and  N2_11 
REMARK    4  A    between atoms: C8_10  and  N3_15 
ROOT
HETATM    1  C1  UNL     1      16.688 -12.683  42.789  1.00  0.00     0.036 C 
HETATM    2  C2  UNL     1      15.769 -13.887  42.741  1.00  0.00     0.135 C 
ENDROOT
BRANCH   2   3
HETATM    3  N1  UNL     1      14.425 -13.533  42.468  1.00  0.00    -0.388 N 
HETATM    4  C3  UNL     1      13.639 -14.156  41.703  1.00  0.00    -0.018 C 
HETATM    5  C4  UNL     1      12.221 -13.878  41.345  1.00  0.00     0.052 C 
HETATM    6  C7  UNL     1      13.968 -15.389  40.933  1.00  0.00     0.052 C 
HETATM    7  C5  UNL     1      12.250 -14.074  39.841  1.00  0.00     0.006 C 
HETATM    8  C6  UNL     1      13.177 -15.238  39.656  1.00  0.00     0.006 C 
ATOM      9  H1  UNL     1      14.060 -12.701  42.932  1.00  0.00     0.159 HD
ENDBRANCH   2   3
BRANCH   2  10
HETATM   10  C8  UNL     1      15.798 -14.515  44.133  1.00  0.00     0.399 C 
BRANCH  10  11
HETATM   11  N2  UNL     1      17.134 -14.930  44.414  1.00  0.00    -0.048 N 
ATOM     12  H23 UNL     1      17.614 -15.289  43.589  1.00  0.00     0.276 HD
ATOM     13  H22 UNL     1      17.755 -14.146  44.608  1.00  0.00     0.276 HD
ATOM     14  H21 UNL     1      17.109 -15.607  45.178  1.00  0.00     0.276 HD
ENDBRANCH  10  11
BRANCH  10  15
HETATM   15  N3  UNL     1      15.296 -13.505  45.044  1.00  0.00    -0.048 N 
ATOM     16  H33 UNL     1      15.631 -12.565  44.832  1.00  0.00     0.276 HD
ATOM     17  H32 UNL     1      14.301 -13.312  44.928  1.00  0.00     0.276 HD
ATOM     18  H31 UNL     1      15.542 -13.820  45.983  1.00  0.00     0.276 HD
ENDBRANCH  10  15
ENDBRANCH   2  10
TORSDOF 4
ENDMDL
MODEL 3
REMARK VINA RESULT: -5.477008809      3.397      5.728
REMARK  4 active torsions:
REMARK  status: ('A' for Active; 'I' for Inactive)
REMARK    1  A    between atoms: C2_2  and  N1_3 
REMARK    2  A    between atoms: C2_2  and  C8_10 
REMARK    3  A    between atoms: C8_10  and  N2_11 
REMARK    4  A    between atoms: C8_10  and  N3_15 
ROOT
HETATM    1  C1  UNL     1      16.892 -12.902  42.384  1.00  0.00     0.036 C 
HETATM    2  C2  UNL     1      15.914 -13.957  42.861  1.00  0.00     0.135 C 
ENDROOT
BRANCH   2   3
HETATM    3  N1  UNL     1      14.565 -13.596  42.620  1.00  0.00    -0.388 N 
HETATM    4  C3  UNL     1      13.773 -14.190  41.838  1.00  0.00    -0.018 C 
HETATM    5  C4  UNL     1      12.350 -13.902  41.509  1.00  0.00     0.052 C 
HETATM    6  C7  UNL     1      14.096 -15.388  41.014  1.00  0.00     0.052 C 
HETATM    7  C5  UNL     1      12.361 -14.035  39.998  1.00  0.00     0.006 C 
HETATM    8  C6  UNL     1      13.290 -15.188  39.754  1.00  0.00     0.006 C 
ATOM      9  H1  UNL     1      14.203 -12.786  43.122  1.00  0.00     0.159 HD
ENDBRANCH   2   3
BRANCH   2  10
HETATM   10  C8  UNL     1      16.090 -14.061  44.375  1.00  0.00     0.399 C 
BRANCH  10  11
HETATM   11  N2  UNL     1      14.986 -13.415  45.006  1.00  0.00    -0.048 N 
ATOM     12  H23 UNL     1      15.018 -13.488  46.022  1.00  0.00     0.276 HD
ATOM     13  H22 UNL     1      15.037 -12.399  44.938  1.00  0.00     0.276 HD
ATOM     14  H21 UNL     1      14.122 -13.790  44.613  1.00  0.00     0.276 HD
ENDBRANCH  10  11
BRANCH  10  15
HETATM   15  N3  UNL     1      16.187 -15.477  44.675  1.00  0.00    -0.048 N 
ATOM     16  H33 UNL     1      15.405 -16.022  44.314  1.00  0.00     0.276 HD
ATOM     17  H32 UNL     1      16.924 -15.953  44.152  1.00  0.00     0.276 HD
ATOM     18  H31 UNL     1      16.298 -15.547  45.687  1.00  0.00     0.276 HD
ENDBRANCH  10  15
ENDBRANCH   2  10
TORSDOF 4
ENDMDL
MODEL 4
REMARK VINA RESULT: -5.247683142      1.307      2.055
REMARK  4 active torsions:
REMARK  status: ('A' for Active; 'I' for Inactive)
REMARK    1  A    between atoms: C2_2  and  N1_3 
REMARK    2  A    between atoms: C2_2  and  C8_10 
REMARK    3  A    between atoms: C8_10  and  N2_11 
REMARK    4  A    between atoms: C8_10  and  N3_15 
ROOT
HETATM    1  C1  UNL     1      10.552 -12.301  39.291  1.00  0.00     0.036 C 
HETATM    2  C2  UNL     1       9.842 -13.579  39.689  1.00  0.00     0.135 C 
ENDROOT
BRANCH   2   3
HETATM    3  N1  UNL     1      10.654 -14.727  39.518  1.00  0.00    -0.388 N 
HETATM    4  C3  UNL     1      11.663 -15.026  40.213  1.00  0.00    -0.018 C 
HETATM    5  C4  UNL     1      12.581 -16.195  40.123  1.00  0.00     0.052 C 
HETATM    6  C7  UNL     1      12.202 -14.233  41.353  1.00  0.00     0.052 C 
HETATM    7  C5  UNL     1      13.934 -15.520  40.249  1.00  0.00     0.006 C 
HETATM    8  C6  UNL     1      13.695 -14.440  41.262  1.00  0.00     0.006 C 
ATOM      9  H1  UNL     1      10.400 -15.368  38.766  1.00  0.00     0.159 HD
ENDBRANCH   2   3
BRANCH   2  10
HETATM   10  C8  UNL     1       8.647 -13.725  38.750  1.00  0.00     0.399 C 
BRANCH  10  11
HETATM   11  N2  UNL     1       8.728 -12.708  37.752  1.00  0.00    -0.048 N 
ATOM     12  H23 UNL     1       9.533 -12.826  37.138  1.00  0.00     0.276 HD
ATOM     13  H22 UNL     1       7.998 -12.795  37.045  1.00  0.00     0.276 HD
ATOM     14  H21 UNL     1       8.717 -11.799  38.215  1.00  0.00     0.276 HD
ENDBRANCH  10  11
BRANCH  10  15
HETATM   15  N3  UNL     1       8.711 -15.072  38.217  1.00  0.00    -0.048 N 
ATOM     16  H33 UNL     1       8.231 -15.760  38.796  1.00  0.00     0.276 HD
ATOM     17  H32 UNL     1       8.149 -15.204  37.375  1.00  0.00     0.276 HD
ATOM     18  H31 UNL     1       9.701 -15.278  38.080  1.00  0.00     0.276 HD
ENDBRANCH  10  15
ENDBRANCH   2  10
TORSDOF 4
ENDMDL
MODEL 5
REMARK VINA RESULT: -4.924091356      1.718      4.678
REMARK  4 active torsions:
REMARK  status: ('A' for Active; 'I' for Inactive)
REMARK    1  A    between atoms: C2_2  and  N1_3 
REMARK    2  A    between atoms: C2_2  and  C8_10 
REMARK    3  A    between atoms: C8_10  and  N2_11 
REMARK    4  A    between atoms: C8_10  and  N3_15 
ROOT
HETATM    1  C1  UNL     1      13.162 -15.598  39.694  1.00  0.00     0.036 C 
HETATM    2  C2  UNL     1      12.708 -14.617  40.756  1.00  0.00     0.135 C 
ENDROOT
BRANCH   2   3
HETATM    3  N1  UNL     1      12.034 -13.498  40.209  1.00  0.00    -0.388 N 
HETATM    4  C3  UNL     1      10.798 -13.430  39.965  1.00  0.00    -0.018 C 
HETATM    5  C4  UNL     1       9.989 -12.316  39.397  1.00  0.00     0.052 C 
HETATM    6  C7  UNL     1       9.801 -14.511  40.204  1.00  0.00     0.052 C 
HETATM    7  C5  UNL     1       9.136 -13.056  38.384  1.00  0.00     0.006 C 
HETATM    8  C6  UNL     1       8.816 -14.350  39.073  1.00  0.00     0.006 C 
ATOM      9  H1  UNL     1      12.597 -12.676  39.993  1.00  0.00     0.159 HD
ENDBRANCH   2   3
BRANCH   2  10
HETATM   10  C8  UNL     1      13.973 -14.096  41.437  1.00  0.00     0.399 C 
BRANCH  10  11
HETATM   11  N2  UNL     1      13.659 -13.779  42.792  1.00  0.00    -0.048 N 
ATOM     12  H23 UNL     1      13.921 -12.826  43.042  1.00  0.00     0.276 HD
ATOM     13  H22 UNL     1      12.656 -13.695  42.953  1.00  0.00     0.276 HD
ATOM     14  H21 UNL     1      14.095 -14.476  43.397  1.00  0.00     0.276 HD
ENDBRANCH  10  11
BRANCH  10  15
HETATM   15  N3  UNL     1      14.969 -15.140  41.296  1.00  0.00    -0.048 N 
ATOM     16  H33 UNL     1      15.192 -15.358  40.325  1.00  0.00     0.276 HD
ATOM     17  H32 UNL     1      15.906 -14.847  41.576  1.00  0.00     0.276 HD
ATOM     18  H31 UNL     1      14.620 -15.941  41.822  1.00  0.00     0.276 HD
ENDBRANCH  10  15
ENDBRANCH   2  10
TORSDOF 4
ENDMDL
