MODEL 1
REMARK VINA RESULT: -4.651198391      0.000      0.000
REMARK  3 active torsions:
REMARK  status: ('A' for Active; 'I' for Inactive)
REMARK    1  A    between atoms: C2_2  and  N1_3 
REMARK    2  A    between atoms: C2_2  and  C3_7 
REMARK    3  A    between atoms: N2_12  and  N3_14 
ROOT
HETATM    1  C3  UNL     1      11.305 -14.579  40.641  1.00  0.00     0.113 C 
HETATM    2  C4  UNL     1      11.170 -13.079  40.730  1.00  0.00     0.028 C 
HETATM    3  C5  UNL     1      10.849 -12.491  39.350  1.00  0.00     0.010 C 
HETATM    4  C6  UNL     1       9.413 -12.925  39.016  1.00  0.00     0.077 C 
HETATM    5  C7  UNL     1       9.421 -14.396  38.978  1.00  0.00     0.091 C 
HETATM    6  N2  UNL     1       8.575 -15.024  38.247  1.00  0.00    -0.296 N 
ATOM      7  H2  UNL     1       7.915 -14.463  37.709  1.00  0.00     0.187 HD
HETATM    8  N4  UNL     1      10.344 -15.159  39.730  1.00  0.00    -0.372 N 
ATOM      9  H4  UNL     1      10.330 -16.173  39.625  1.00  0.00     0.161 HD
ENDROOT
BRANCH   1  10
HETATM   10  C2  UNL     1      12.682 -14.925  40.111  1.00  0.00     0.202 C 
HETATM   11  C1  UNL     1      12.766 -16.372  39.716  1.00  0.00     0.042 C 
BRANCH  10  12
HETATM   12  N1  UNL     1      13.631 -14.610  41.142  1.00  0.00    -0.073 N 
ATOM     13  H13 UNL     1      13.419 -15.104  42.010  1.00  0.00     0.274 HD
ATOM     14  H12 UNL     1      14.545 -15.019  40.948  1.00  0.00     0.274 HD
ATOM     15  H11 UNL     1      13.695 -13.603  41.291  1.00  0.00     0.274 HD
ENDBRANCH  10  12
ENDBRANCH   1  10
BRANCH   6  16
HETATM   16  N3  UNL     1       8.483 -16.394  38.127  1.00  0.00    -0.344 N 
ATOM     17  H32 UNL     1       9.124 -16.832  37.466  1.00  0.00     0.176 HD
ATOM     18  H31 UNL     1       7.834 -16.990  38.641  1.00  0.00     0.176 HD
ENDBRANCH   6  16
TORSDOF 3
ENDMDL
MODEL 2
REMARK VINA RESULT: -4.498097258      8.001      8.824
REMARK  3 active torsions:
REMARK  status: ('A' for Active; 'I' for Inactive)
REMARK    1  A    between atoms: C2_2  and  N1_3 
REMARK    2  A    between atoms: C2_2  and  C3_7 
REMARK    3  A    between atoms: N2_12  and  N3_14 
ROOT
HETATM    1  C3  UNL     1      16.775 -13.494  46.096  1.00  0.00     0.113 C 
HETATM    2  C4  UNL     1      17.543 -13.165  44.840  1.00  0.00     0.028 C 
HETATM    3  C5  UNL     1      16.662 -12.366  43.872  1.00  0.00     0.010 C 
HETATM    4  C6  UNL     1      16.467 -10.979  44.504  1.00  0.00     0.077 C 
HETATM    5  C7  UNL     1      15.783 -11.199  45.787  1.00  0.00     0.091 C 
HETATM    6  N2  UNL     1      15.037 -10.281  46.283  1.00  0.00    -0.296 N 
ATOM      7  H2  UNL     1      14.948  -9.415  45.753  1.00  0.00     0.187 HD
HETATM    8  N4  UNL     1      15.917 -12.408  46.509  1.00  0.00    -0.372 N 
ATOM      9  H4  UNL     1      15.379 -12.518  47.369  1.00  0.00     0.161 HD
ENDROOT
BRANCH   1  10
HETATM   10  C2  UNL     1      15.881 -14.690  45.834  1.00  0.00     0.202 C 
HETATM   11  C1  UNL     1      15.360 -15.272  47.117  1.00  0.00     0.042 C 
BRANCH  10  12
HETATM   12  N1  UNL     1      16.654 -15.653  45.101  1.00  0.00    -0.073 N 
ATOM     13  H13 UNL     1      16.870 -15.321  44.160  1.00  0.00     0.274 HD
ATOM     14  H12 UNL     1      17.605 -15.725  45.464  1.00  0.00     0.274 HD
ATOM     15  H11 UNL     1      16.191 -16.561  45.081  1.00  0.00     0.274 HD
ENDBRANCH  10  12
ENDBRANCH   1  10
BRANCH   6  16
HETATM   16  N3  UNL     1      14.345 -10.368  47.472  1.00  0.00    -0.344 N 
ATOM     17  H32 UNL     1      14.721 -11.016  48.165  1.00  0.00     0.176 HD
ATOM     18  H31 UNL     1      13.503  -9.843  47.706  1.00  0.00     0.176 HD
ENDBRANCH   6  16
TORSDOF 3
ENDMDL
MODEL 3
REMARK VINA RESULT: -4.456989927      1.859      2.516
REMARK  3 active torsions:
REMARK  status: ('A' for Active; 'I' for Inactive)
REMARK    1  A    between atoms: C2_2  and  N1_3 
REMARK    2  A    between atoms: C2_2  and  C3_7 
REMARK    3  A    between atoms: N2_12  and  N3_14 
ROOT
HETATM    1  C3  UNL     1       9.786 -14.760  40.575  1.00  0.00     0.113 C 
HETATM    2  C4  UNL     1      11.006 -14.024  41.073  1.00  0.00     0.028 C 
HETATM    3  C5  UNL     1      11.793 -13.439  39.894  1.00  0.00     0.010 C 
HETATM    4  C6  UNL     1      10.938 -12.297  39.324  1.00  0.00     0.077 C 
HETATM    5  C7  UNL     1       9.678 -12.906  38.872  1.00  0.00     0.091 C 
HETATM    6  N2  UNL     1       9.008 -12.366  37.920  1.00  0.00    -0.296 N 
ATOM      7  H2  UNL     1       9.387 -11.514  37.508  1.00  0.00     0.187 HD
HETATM    8  N4  UNL     1       9.166 -14.088  39.456  1.00  0.00    -0.372 N 
ATOM      9  H4  UNL     1       8.312 -14.488  39.066  1.00  0.00     0.161 HD
ENDROOT
BRANCH   1  10
HETATM   10  C2  UNL     1      10.196 -16.136  40.093  1.00  0.00     0.202 C 
HETATM   11  C1  UNL     1      11.640 -16.163  39.680  1.00  0.00     0.042 C 
BRANCH  10  12
HETATM   12  N1  UNL     1       9.334 -16.484  38.998  1.00  0.00    -0.073 N 
ATOM     13  H13 UNL     1       9.402 -17.476  38.769  1.00  0.00     0.274 HD
ATOM     14  H12 UNL     1       8.352 -16.453  39.270  1.00  0.00     0.274 HD
ATOM     15  H11 UNL     1       9.516 -15.898  38.184  1.00  0.00     0.274 HD
ENDBRANCH  10  12
ENDBRANCH   1  10
BRANCH   6  16
HETATM   16  N3  UNL     1       7.819 -12.840  37.410  1.00  0.00    -0.344 N 
ATOM     17  H32 UNL     1       7.575 -13.799  37.656  1.00  0.00     0.176 HD
ATOM     18  H31 UNL     1       7.178 -12.313  36.816  1.00  0.00     0.176 HD
ENDBRANCH   6  16
TORSDOF 3
ENDMDL
MODEL 4
REMARK VINA RESULT: -4.408383173      2.363      3.233
REMARK  3 active torsions:
REMARK  status: ('A' for Active; 'I' for Inactive)
REMARK    1  A    between atoms: C2_2  and  N1_3 
REMARK    2  A    between atoms: C2_2  and  C3_7 
REMARK    3  A    between atoms: N2_12  and  N3_14 
ROOT
HETATM    1  C3  UNL     1      13.070 -14.241  40.592  1.00  0.00     0.113 C 
HETATM    2  C4  UNL     1      12.944 -15.115  39.369  1.00  0.00     0.028 C 
HETATM    3  C5  UNL     1      12.009 -16.297  39.655  1.00  0.00     0.010 C 
HETATM    4  C6  UNL     1      10.594 -15.713  39.781  1.00  0.00     0.077 C 
HETATM    5  C7  UNL     1      10.629 -14.777  40.915  1.00  0.00     0.091 C 
HETATM    6  N2  UNL     1       9.562 -14.542  41.587  1.00  0.00    -0.296 N 
ATOM      7  H2  UNL     1       8.713 -15.025  41.299  1.00  0.00     0.187 HD
HETATM    8  N4  UNL     1      11.817 -14.114  41.302  1.00  0.00    -0.372 N 
ATOM      9  H4  UNL     1      11.788 -13.514  42.126  1.00  0.00     0.161 HD
ENDROOT
BRANCH   1  10
HETATM   10  C2  UNL     1      14.062 -14.865  41.552  1.00  0.00     0.202 C 
HETATM   11  C1  UNL     1      14.608 -13.847  42.512  1.00  0.00     0.042 C 
BRANCH  10  12
HETATM   12  N1  UNL     1      15.110 -15.454  40.765  1.00  0.00    -0.073 N 
ATOM     13  H13 UNL     1      15.630 -14.746  40.246  1.00  0.00     0.274 HD
ATOM     14  H12 UNL     1      15.866 -15.806  41.351  1.00  0.00     0.274 HD
ATOM     15  H11 UNL     1      14.745 -16.179  40.148  1.00  0.00     0.274 HD
ENDBRANCH  10  12
ENDBRANCH   1  10
BRANCH   6  16
HETATM   16  N3  UNL     1       9.469 -13.690  42.666  1.00  0.00    -0.344 N 
ATOM     17  H32 UNL     1      10.281 -13.099  42.845  1.00  0.00     0.176 HD
ATOM     18  H31 UNL     1       8.664 -13.607  43.287  1.00  0.00     0.176 HD
ENDBRANCH   6  16
TORSDOF 3
ENDMDL
MODEL 5
REMARK VINA RESULT: -4.378429563      2.194      4.482
REMARK  3 active torsions:
REMARK  status: ('A' for Active; 'I' for Inactive)
REMARK    1  A    between atoms: C2_2  and  N1_3 
REMARK    2  A    between atoms: C2_2  and  C3_7 
REMARK    3  A    between atoms: N2_12  and  N3_14 
ROOT
HETATM    1  C3  UNL     1      10.759 -14.472  40.880  1.00  0.00     0.113 C 
HETATM    2  C4  UNL     1      10.909 -15.659  39.962  1.00  0.00     0.028 C 
HETATM    3  C5  UNL     1      12.190 -15.528  39.128  1.00  0.00     0.010 C 
HETATM    4  C6  UNL     1      13.363 -15.721  40.100  1.00  0.00     0.077 C 
HETATM    5  C7  UNL     1      13.264 -14.641  41.093  1.00  0.00     0.091 C 
HETATM    6  N2  UNL     1      14.317 -14.214  41.687  1.00  0.00    -0.296 N 
ATOM      7  H2  UNL     1      15.203 -14.654  41.439  1.00  0.00     0.187 HD
HETATM    8  N4  UNL     1      12.026 -14.042  41.426  1.00  0.00    -0.372 N 
ATOM      9  H4  UNL     1      12.028 -13.266  42.087  1.00  0.00     0.161 HD
ENDROOT
BRANCH   1  10
HETATM   10  C2  UNL     1      10.195 -13.303  40.097  1.00  0.00     0.202 C 
HETATM   11  C1  UNL     1       9.180 -13.761  39.089  1.00  0.00     0.042 C 
BRANCH  10  12
HETATM   12  N1  UNL     1      11.299 -12.639  39.461  1.00  0.00    -0.073 N 
ATOM     13  H13 UNL     1      11.217 -12.668  38.444  1.00  0.00     0.274 HD
ATOM     14  H12 UNL     1      11.255 -11.629  39.593  1.00  0.00     0.274 HD
ATOM     15  H11 UNL     1      12.191 -13.019  39.776  1.00  0.00     0.274 HD
ENDBRANCH  10  12
ENDBRANCH   1  10
BRANCH   6  16
HETATM   16  N3  UNL     1      14.353 -13.212  42.632  1.00  0.00    -0.344 N 
ATOM     17  H32 UNL     1      15.222 -13.120  43.158  1.00  0.00     0.176 HD
ATOM     18  H31 UNL     1      13.590 -12.567  42.840  1.00  0.00     0.176 HD
ENDBRANCH   6  16
TORSDOF 3
ENDMDL
