MODEL 1
REMARK VINA RESULT: -7.044948684      0.000      0.000
REMARK  7 active torsions:
REMARK  status: ('A' for Active; 'I' for Inactive)
REMARK    1  A    between atoms: N1_1  and  N2_4 
REMARK    2  A    between atoms: N2_4  and  C1_5 
REMARK    3  A    between atoms: C2_13  and  N5_14 
REMARK       I    between atoms: N5_14  and  C3_16 
REMARK    4  A    between atoms: C3_16  and  C4_18 
REMARK    5  A    between atoms: C4_18  and  C5_19 
REMARK    6  A    between atoms: C5_19  and  N6_20 
REMARK    7  A    between atoms: C5_19  and  C7_25 
REMARK       I    between atoms: N6_20  and  C6_22 
ROOT
HETATM    1  N5  UNL     1      18.208  33.359  15.521  1.00  0.00    -0.313 N 
ATOM      2  H5  UNL     1      18.199  32.666  16.269  1.00  0.00     0.170 HD
HETATM    3  C3  UNL     1      19.415  33.589  14.859  1.00  0.00     0.225 C 
HETATM    4  O3  UNL     1      19.565  34.401  13.925  1.00  0.00    -0.273 OA
ENDROOT
BRANCH   1   5
HETATM    5  C2  UNL     1      16.964  34.043  15.213  1.00  0.00     0.136 C 
HETATM    6  C1  UNL     1      15.880  34.296  16.161  1.00  0.00     0.276 C 
HETATM    7  N3  UNL     1      14.601  34.391  15.484  1.00  0.00    -0.275 N 
HETATM    8  S1  UNL     1      15.140  35.233  14.070  1.00  0.00     0.322 S 
ATOM      9  H3  UNL     1      13.674  34.066  15.757  1.00  0.00     0.176 HD
HETATM   10  O1  UNL     1      15.170  36.694  14.246  1.00  0.00    -0.182 OA
HETATM   11  O2  UNL     1      14.269  34.784  12.937  1.00  0.00    -0.182 OA
HETATM   12  N4  UNL     1      16.700  34.505  14.011  1.00  0.00    -0.253 N 
ATOM     13  H4  UNL     1      17.307  34.443  13.194  1.00  0.00     0.181 HD
BRANCH   6  14
HETATM   14  N2  UNL     1      16.148  35.476  16.952  1.00  0.00    -0.114 NA
BRANCH  14  15
HETATM   15  N1  UNL     1      14.988  35.969  17.515  1.00  0.00    -0.346 N 
ATOM     16  H12 UNL     1      14.540  36.837  17.219  1.00  0.00     0.172 HD
ATOM     17  H11 UNL     1      14.650  35.353  18.255  1.00  0.00     0.172 HD
ENDBRANCH  14  15
ENDBRANCH   6  14
ENDBRANCH   1   5
BRANCH   3  18
HETATM   18  C4  UNL     1      20.623  32.824  15.278  1.00  0.00     0.139 C 
BRANCH  18  19
HETATM   19  C5  UNL     1      21.254  33.365  16.540  1.00  0.00     0.195 C 
BRANCH  19  20
HETATM   20  N6  UNL     1      21.234  34.785  16.617  1.00  0.00    -0.330 N 
HETATM   21  C6  UNL     1      20.345  35.571  17.337  1.00  0.00     0.329 C 
HETATM   22  N7  UNL     1      20.468  37.024  17.332  1.00  0.00    -0.040 NA
HETATM   23  O4  UNL     1      19.393  35.160  18.032  1.00  0.00    -0.251 OA
ATOM     24  H6  UNL     1      21.951  35.279  16.086  1.00  0.00     0.164 HD
ENDBRANCH  19  20
BRANCH  19  25
HETATM   25  C7  UNL     1      22.548  32.729  16.829  1.00  0.00     0.197 C 
HETATM   26  O5  UNL     1      22.647  31.519  17.154  1.00  0.00    -0.646 OA
HETATM   27  O6  UNL     1      23.717  33.466  16.749  1.00  0.00    -0.646 OA
ENDBRANCH  19  25
ENDBRANCH  18  19
ENDBRANCH   3  18
TORSDOF 7
ENDMDL
MODEL 2
REMARK VINA RESULT: -6.928742518      3.924      5.581
REMARK  7 active torsions:
REMARK  status: ('A' for Active; 'I' for Inactive)
REMARK    1  A    between atoms: N1_1  and  N2_4 
REMARK    2  A    between atoms: N2_4  and  C1_5 
REMARK    3  A    between atoms: C2_13  and  N5_14 
REMARK       I    between atoms: N5_14  and  C3_16 
REMARK    4  A    between atoms: C3_16  and  C4_18 
REMARK    5  A    between atoms: C4_18  and  C5_19 
REMARK    6  A    between atoms: C5_19  and  N6_20 
REMARK    7  A    between atoms: C5_19  and  C7_25 
REMARK       I    between atoms: N6_20  and  C6_22 
ROOT
HETATM    1  N5  UNL     1      13.467  35.126  13.840  1.00  0.00    -0.313 N 
ATOM      2  H5  UNL     1      13.492  34.158  13.517  1.00  0.00     0.170 HD
HETATM    3  C3  UNL     1      14.596  35.625  14.491  1.00  0.00     0.225 C 
HETATM    4  O3  UNL     1      14.702  36.787  14.930  1.00  0.00    -0.273 OA
ENDROOT
BRANCH   1   5
HETATM    5  C2  UNL     1      12.260  35.894  13.591  1.00  0.00     0.136 C 
HETATM    6  C1  UNL     1      11.267  35.602  12.558  1.00  0.00     0.276 C 
HETATM    7  N3  UNL     1      10.575  36.804  12.138  1.00  0.00    -0.275 N 
HETATM    8  S1  UNL     1      10.462  37.570  13.687  1.00  0.00     0.322 S 
ATOM      9  H3  UNL     1      10.254  37.105  11.218  1.00  0.00     0.176 HD
HETATM   10  O1  UNL     1       9.281  37.144  14.456  1.00  0.00    -0.182 OA
HETATM   11  O2  UNL     1      10.520  39.048  13.449  1.00  0.00    -0.182 OA
HETATM   12  N4  UNL     1      11.951  36.958  14.299  1.00  0.00    -0.253 N 
ATOM     13  H4  UNL     1      12.493  37.348  15.069  1.00  0.00     0.181 HD
BRANCH   6  14
HETATM   14  N2  UNL     1      10.339  34.586  13.005  1.00  0.00    -0.114 NA
BRANCH  14  15
HETATM   15  N1  UNL     1       9.114  34.728  12.383  1.00  0.00    -0.346 N 
ATOM     16  H12 UNL     1       8.302  35.161  12.825  1.00  0.00     0.172 HD
ATOM     17  H11 UNL     1       9.138  34.345  11.438  1.00  0.00     0.172 HD
ENDBRANCH  14  15
ENDBRANCH   6  14
ENDBRANCH   1   5
BRANCH   3  18
HETATM   18  C4  UNL     1      15.768  34.727  14.690  1.00  0.00     0.139 C 
BRANCH  18  19
HETATM   19  C5  UNL     1      16.073  34.471  16.147  1.00  0.00     0.195 C 
BRANCH  19  20
HETATM   20  N6  UNL     1      17.076  35.332  16.674  1.00  0.00    -0.330 N 
HETATM   21  C6  UNL     1      18.297  35.647  16.094  1.00  0.00     0.329 C 
HETATM   22  N7  UNL     1      19.215  36.568  16.752  1.00  0.00    -0.040 NA
HETATM   23  O4  UNL     1      18.732  35.210  15.009  1.00  0.00    -0.251 OA
ATOM     24  H6  UNL     1      16.875  35.764  17.576  1.00  0.00     0.164 HD
ENDBRANCH  19  20
BRANCH  19  25
HETATM   25  C7  UNL     1      16.248  33.040  16.434  1.00  0.00     0.197 C 
HETATM   26  O5  UNL     1      17.265  32.398  16.068  1.00  0.00    -0.646 OA
HETATM   27  O6  UNL     1      15.274  32.346  17.130  1.00  0.00    -0.646 OA
ENDBRANCH  19  25
ENDBRANCH  18  19
ENDBRANCH   3  18
TORSDOF 7
ENDMDL
MODEL 3
REMARK VINA RESULT: -6.900022232      3.717      7.865
REMARK  7 active torsions:
REMARK  status: ('A' for Active; 'I' for Inactive)
REMARK    1  A    between atoms: N1_1  and  N2_4 
REMARK    2  A    between atoms: N2_4  and  C1_5 
REMARK    3  A    between atoms: C2_13  and  N5_14 
REMARK       I    between atoms: N5_14  and  C3_16 
REMARK    4  A    between atoms: C3_16  and  C4_18 
REMARK    5  A    between atoms: C4_18  and  C5_19 
REMARK    6  A    between atoms: C5_19  and  N6_20 
REMARK    7  A    between atoms: C5_19  and  C7_25 
REMARK       I    between atoms: N6_20  and  C6_22 
ROOT
HETATM    1  N5  UNL     1      15.373  36.127  15.240  1.00  0.00    -0.313 N 
ATOM      2  H5  UNL     1      15.278  36.346  14.249  1.00  0.00     0.170 HD
HETATM    3  C3  UNL     1      14.745  36.970  16.158  1.00  0.00     0.225 C 
HETATM    4  O3  UNL     1      14.776  36.816  17.395  1.00  0.00    -0.273 OA
ENDROOT
BRANCH   1   5
HETATM    5  C2  UNL     1      16.153  34.957  15.606  1.00  0.00     0.136 C 
HETATM    6  C1  UNL     1      17.120  34.280  14.743  1.00  0.00     0.276 C 
HETATM    7  N3  UNL     1      17.245  32.878  15.091  1.00  0.00    -0.275 N 
HETATM    8  S1  UNL     1      17.125  33.045  16.810  1.00  0.00     0.322 S 
ATOM      9  H3  UNL     1      17.366  32.052  14.505  1.00  0.00     0.176 HD
HETATM   10  O1  UNL     1      18.419  33.332  17.452  1.00  0.00    -0.182 OA
HETATM   11  O2  UNL     1      16.464  31.803  17.324  1.00  0.00    -0.182 OA
HETATM   12  N4  UNL     1      16.045  34.387  16.786  1.00  0.00    -0.253 N 
ATOM     13  H4  UNL     1      15.435  34.684  17.546  1.00  0.00     0.181 HD
BRANCH   6  14
HETATM   14  N2  UNL     1      18.402  34.950  14.778  1.00  0.00    -0.114 NA
BRANCH  14  15
HETATM   15  N1  UNL     1      19.271  34.403  13.856  1.00  0.00    -0.346 N 
ATOM     16  H12 UNL     1      19.740  34.944  13.130  1.00  0.00     0.172 HD
ATOM     17  H11 UNL     1      19.376  33.398  14.003  1.00  0.00     0.172 HD
ENDBRANCH  14  15
ENDBRANCH   6  14
ENDBRANCH   1   5
BRANCH   3  18
HETATM   18  C4  UNL     1      13.981  38.144  15.651  1.00  0.00     0.139 C 
BRANCH  18  19
HETATM   19  C5  UNL     1      12.485  37.941  15.707  1.00  0.00     0.195 C 
BRANCH  19  20
HETATM   20  N6  UNL     1      11.904  37.665  14.438  1.00  0.00    -0.330 N 
HETATM   21  C6  UNL     1      11.947  36.465  13.742  1.00  0.00     0.329 C 
HETATM   22  N7  UNL     1      11.281  36.331  12.452  1.00  0.00    -0.040 NA
HETATM   23  O4  UNL     1      12.523  35.420  14.110  1.00  0.00    -0.251 OA
ATOM     24  H6  UNL     1      11.403  38.432  13.992  1.00  0.00     0.164 HD
ENDBRANCH  19  20
BRANCH  19  25
HETATM   25  C7  UNL     1      11.814  38.981  16.502  1.00  0.00     0.197 C 
HETATM   26  O5  UNL     1      11.626  40.145  16.068  1.00  0.00    -0.646 OA
HETATM   27  O6  UNL     1      11.362  38.695  17.778  1.00  0.00    -0.646 OA
ENDBRANCH  19  25
ENDBRANCH  18  19
ENDBRANCH   3  18
TORSDOF 7
ENDMDL
MODEL 4
REMARK VINA RESULT: -6.838777134      3.772      7.804
REMARK  7 active torsions:
REMARK  status: ('A' for Active; 'I' for Inactive)
REMARK    1  A    between atoms: N1_1  and  N2_4 
REMARK    2  A    between atoms: N2_4  and  C1_5 
REMARK    3  A    between atoms: C2_13  and  N5_14 
REMARK       I    between atoms: N5_14  and  C3_16 
REMARK    4  A    between atoms: C3_16  and  C4_18 
REMARK    5  A    between atoms: C4_18  and  C5_19 
REMARK    6  A    between atoms: C5_19  and  N6_20 
REMARK    7  A    between atoms: C5_19  and  C7_25 
REMARK       I    between atoms: N6_20  and  C6_22 
ROOT
HETATM    1  N5  UNL     1      15.522  36.339  15.303  1.00  0.00    -0.313 N 
ATOM      2  H5  UNL     1      15.647  36.716  14.363  1.00  0.00     0.170 HD
HETATM    3  C3  UNL     1      14.700  37.044  16.184  1.00  0.00     0.225 C 
HETATM    4  O3  UNL     1      14.457  36.694  17.356  1.00  0.00    -0.273 OA
ENDROOT
BRANCH   1   5
HETATM    5  C2  UNL     1      16.210  35.104  15.637  1.00  0.00     0.136 C 
HETATM    6  C1  UNL     1      17.133  34.385  14.761  1.00  0.00     0.276 C 
HETATM    7  N3  UNL     1      17.152  32.968  15.066  1.00  0.00    -0.275 N 
HETATM    8  S1  UNL     1      17.029  33.091  16.788  1.00  0.00     0.322 S 
ATOM      9  H3  UNL     1      17.218  32.153  14.456  1.00  0.00     0.176 HD
HETATM   10  O1  UNL     1      18.334  33.263  17.448  1.00  0.00    -0.182 OA
HETATM   11  O2  UNL     1      16.274  31.886  17.259  1.00  0.00    -0.182 OA
HETATM   12  N4  UNL     1      16.051  34.508  16.798  1.00  0.00    -0.253 N 
ATOM     13  H4  UNL     1      15.457  34.827  17.564  1.00  0.00     0.181 HD
BRANCH   6  14
HETATM   14  N2  UNL     1      18.461  34.957  14.825  1.00  0.00    -0.114 NA
BRANCH  14  15
HETATM   15  N1  UNL     1      19.281  34.415  13.856  1.00  0.00    -0.346 N 
ATOM     16  H12 UNL     1      18.977  34.224  12.901  1.00  0.00     0.172 HD
ATOM     17  H11 UNL     1      20.215  34.237  14.226  1.00  0.00     0.172 HD
ENDBRANCH  14  15
ENDBRANCH   6  14
ENDBRANCH   1   5
BRANCH   3  18
HETATM   18  C4  UNL     1      14.058  38.304  15.717  1.00  0.00     0.139 C 
BRANCH  18  19
HETATM   19  C5  UNL     1      12.570  38.161  15.498  1.00  0.00     0.195 C 
BRANCH  19  20
HETATM   20  N6  UNL     1      11.839  37.962  16.701  1.00  0.00    -0.330 N 
HETATM   21  C6  UNL     1      10.642  38.567  17.062  1.00  0.00     0.329 C 
HETATM   22  N7  UNL     1      10.000  38.242  18.330  1.00  0.00    -0.040 NA
HETATM   23  O4  UNL     1      10.010  39.409  16.391  1.00  0.00    -0.251 OA
ATOM     24  H6  UNL     1      12.236  37.304  17.371  1.00  0.00     0.164 HD
ENDBRANCH  19  20
BRANCH  19  25
HETATM   25  C7  UNL     1      12.259  37.230  14.402  1.00  0.00     0.197 C 
HETATM   26  O5  UNL     1      13.124  36.851  13.573  1.00  0.00    -0.646 OA
HETATM   27  O6  UNL     1      10.974  36.737  14.254  1.00  0.00    -0.646 OA
ENDBRANCH  19  25
ENDBRANCH  18  19
ENDBRANCH   3  18
TORSDOF 7
ENDMDL
MODEL 5
REMARK VINA RESULT: -6.789120017      3.760      5.951
REMARK  7 active torsions:
REMARK  status: ('A' for Active; 'I' for Inactive)
REMARK    1  A    between atoms: N1_1  and  N2_4 
REMARK    2  A    between atoms: N2_4  and  C1_5 
REMARK    3  A    between atoms: C2_13  and  N5_14 
REMARK       I    between atoms: N5_14  and  C3_16 
REMARK    4  A    between atoms: C3_16  and  C4_18 
REMARK    5  A    between atoms: C4_18  and  C5_19 
REMARK    6  A    between atoms: C5_19  and  N6_20 
REMARK    7  A    between atoms: C5_19  and  C7_25 
REMARK       I    between atoms: N6_20  and  C6_22 
ROOT
HETATM    1  N5  UNL     1      14.131  37.011  15.168  1.00  0.00    -0.313 N 
ATOM      2  H5  UNL     1      14.588  36.153  14.859  1.00  0.00     0.170 HD
HETATM    3  C3  UNL     1      14.800  37.811  16.094  1.00  0.00     0.225 C 
HETATM    4  O3  UNL     1      14.359  38.885  16.550  1.00  0.00    -0.273 OA
ENDROOT
BRANCH   1   5
HETATM    5  C2  UNL     1      12.823  37.320  14.614  1.00  0.00     0.136 C 
HETATM    6  C1  UNL     1      12.252  36.726  13.407  1.00  0.00     0.276 C 
HETATM    7  N3  UNL     1      11.305  37.624  12.775  1.00  0.00    -0.275 N 
HETATM    8  S1  UNL     1      10.590  38.269  14.214  1.00  0.00     0.322 S 
ATOM      9  H3  UNL     1      11.119  37.816  11.791  1.00  0.00     0.176 HD
HETATM   10  O1  UNL     1       9.483  37.443  14.726  1.00  0.00    -0.182 OA
HETATM   11  O2  UNL     1      10.192  39.681  13.909  1.00  0.00    -0.182 OA
HETATM   12  N4  UNL     1      12.018  38.196  15.174  1.00  0.00    -0.253 N 
ATOM     13  H4  UNL     1      12.204  38.732  16.021  1.00  0.00     0.181 HD
BRANCH   6  14
HETATM   14  N2  UNL     1      11.651  35.442  13.696  1.00  0.00    -0.114 NA
BRANCH  14  15
HETATM   15  N1  UNL     1      11.347  34.765  12.532  1.00  0.00    -0.346 N 
ATOM     16  H12 UNL     1      10.669  35.097  11.844  1.00  0.00     0.172 HD
ATOM     17  H11 UNL     1      11.887  33.903  12.459  1.00  0.00     0.172 HD
ENDBRANCH  14  15
ENDBRANCH   6  14
ENDBRANCH   1   5
BRANCH   3  18
HETATM   18  C4  UNL     1      16.136  37.374  16.590  1.00  0.00     0.139 C 
BRANCH  18  19
HETATM   19  C5  UNL     1      16.599  36.078  15.969  1.00  0.00     0.195 C 
BRANCH  19  20
HETATM   20  N6  UNL     1      16.138  34.924  16.661  1.00  0.00    -0.330 N 
HETATM   21  C6  UNL     1      15.108  34.075  16.280  1.00  0.00     0.329 C 
HETATM   22  N7  UNL     1      14.765  32.914  17.091  1.00  0.00    -0.040 NA
HETATM   23  O4  UNL     1      14.394  34.194  15.263  1.00  0.00    -0.251 OA
ATOM     24  H6  UNL     1      16.617  34.695  17.532  1.00  0.00     0.164 HD
ENDBRANCH  19  20
BRANCH  19  25
HETATM   25  C7  UNL     1      18.034  36.098  15.649  1.00  0.00     0.197 C 
HETATM   26  O5  UNL     1      18.805  37.000  16.064  1.00  0.00    -0.646 OA
HETATM   27  O6  UNL     1      18.585  35.100  14.865  1.00  0.00    -0.646 OA
ENDBRANCH  19  25
ENDBRANCH  18  19
ENDBRANCH   3  18
TORSDOF 7
ENDMDL
