MODEL 1
REMARK VINA RESULT: -6.508170569      0.000      0.000
REMARK  8 active torsions:
REMARK  status: ('A' for Active; 'I' for Inactive)
REMARK    1  A    between atoms: N1_2  and  C2_4 
REMARK    2  A    between atoms: C3_5  and  C4_6 
REMARK       I    between atoms: C4_6  and  N2_8 
REMARK    3  A    between atoms: N2_8  and  C5_10 
REMARK    4  A    between atoms: C5_10  and  C6_11 
REMARK    5  A    between atoms: C5_10  and  C7_14 
REMARK    6  A    between atoms: C7_14  and  O3_15 
REMARK    7  A    between atoms: C7_14  and  O4_17 
REMARK    8  A    between atoms: N7_27  and  O6_28 
ROOT
HETATM    1  C2  UNL     1      16.894  35.960  16.997  1.00  0.00     0.166 C 
HETATM    2  C3  UNL     1      17.811  35.232  16.234  1.00  0.00     0.120 C 
HETATM    3  C8  UNL     1      17.654  34.920  14.876  1.00  0.00     0.140 C 
HETATM    4  N4  UNL     1      18.845  34.681  14.155  1.00  0.00    -0.081 NA
HETATM    5  N5  UNL     1      16.478  34.826  14.194  1.00  0.00    -0.295 N 
ATOM      6  H5  UNL     1      16.552  34.520  13.224  1.00  0.00     0.172 HD
HETATM    7  C9  UNL     1      15.228  35.084  14.638  1.00  0.00     0.342 C 
HETATM    8  O5  UNL     1      14.340  34.933  13.757  1.00  0.00    -0.245 OA
HETATM    9  N6  UNL     1      14.805  35.473  15.867  1.00  0.00    -0.223 N 
ATOM     10  H6  UNL     1      13.796  35.481  16.013  1.00  0.00     0.194 HD
HETATM   11  N7  UNL     1      15.563  35.851  16.919  1.00  0.00    -0.141 N 
ENDROOT
BRANCH   2  12
HETATM   12  C4  UNL     1      19.021  34.772  16.820  1.00  0.00     0.259 C 
HETATM   13  O1  UNL     1      18.954  33.738  17.565  1.00  0.00    -0.267 OA
HETATM   14  N2  UNL     1      20.311  35.333  16.681  1.00  0.00    -0.339 N 
ATOM     15  H2  UNL     1      20.447  36.166  16.109  1.00  0.00     0.163 HD
BRANCH  14  16
HETATM   16  C5  UNL     1      21.451  34.714  17.362  1.00  0.00     0.229 C 
BRANCH  16  17
HETATM   17  C6  UNL     1      22.144  33.748  16.470  1.00  0.00     0.258 C 
HETATM   18  N3  UNL     1      22.951  32.699  16.959  1.00  0.00    -0.060 NA
HETATM   19  O2  UNL     1      21.981  33.905  15.220  1.00  0.00    -0.274 OA
ENDBRANCH  16  17
BRANCH  16  20
HETATM   20  C7  UNL     1      22.461  35.752  17.780  1.00  0.00     0.285 C 
BRANCH  20  21
HETATM   21  O3  UNL     1      23.624  35.682  17.019  1.00  0.00    -0.369 OA
ATOM     22  H3  UNL     1      24.387  35.967  17.509  1.00  0.00     0.212 HD
ENDBRANCH  20  21
BRANCH  20  23
HETATM   23  O4  UNL     1      21.929  37.032  17.789  1.00  0.00    -0.369 OA
ATOM     24  H4  UNL     1      22.523  37.672  17.416  1.00  0.00     0.212 HD
ENDBRANCH  20  23
ENDBRANCH  16  20
ENDBRANCH  14  16
ENDBRANCH   2  12
BRANCH   1  25
HETATM   25  N1  UNL     1      17.375  36.777  17.799  1.00  0.00    -0.377 N 
HETATM   26  C1  UNL     1      17.784  38.123  17.674  1.00  0.00     0.148 C 
ATOM     27  H1  UNL     1      17.501  36.399  18.738  1.00  0.00     0.160 HD
ENDBRANCH   1  25
BRANCH  11  28
HETATM   28  O6  UNL     1      14.901  36.121  17.916  1.00  0.00    -0.266 OA
ATOM     29  H6  UNL     1      15.100  36.924  18.383  1.00  0.00     0.247 HD
ENDBRANCH  11  28
TORSDOF 8
ENDMDL
MODEL 2
REMARK VINA RESULT: -6.498121868      3.530      4.683
REMARK  8 active torsions:
REMARK  status: ('A' for Active; 'I' for Inactive)
REMARK    1  A    between atoms: N1_2  and  C2_4 
REMARK    2  A    between atoms: C3_5  and  C4_6 
REMARK       I    between atoms: C4_6  and  N2_8 
REMARK    3  A    between atoms: N2_8  and  C5_10 
REMARK    4  A    between atoms: C5_10  and  C6_11 
REMARK    5  A    between atoms: C5_10  and  C7_14 
REMARK    6  A    between atoms: C7_14  and  O3_15 
REMARK    7  A    between atoms: C7_14  and  O4_17 
REMARK    8  A    between atoms: N7_27  and  O6_28 
ROOT
HETATM    1  C2  UNL     1      13.965  38.021  16.024  1.00  0.00     0.166 C 
HETATM    2  C3  UNL     1      14.376  36.961  15.211  1.00  0.00     0.120 C 
HETATM    3  C8  UNL     1      13.670  36.485  14.098  1.00  0.00     0.140 C 
HETATM    4  N4  UNL     1      14.438  35.823  13.115  1.00  0.00    -0.081 NA
HETATM    5  N5  UNL     1      12.330  36.595  13.877  1.00  0.00    -0.295 N 
ATOM      6  H5  UNL     1      11.978  36.126  13.042  1.00  0.00     0.172 HD
HETATM    7  C9  UNL     1      11.408  37.245  14.621  1.00  0.00     0.342 C 
HETATM    8  O5  UNL     1      10.245  37.193  14.140  1.00  0.00    -0.245 OA
HETATM    9  N6  UNL     1      11.554  37.928  15.785  1.00  0.00    -0.223 N 
ATOM     10  H6  UNL     1      10.693  38.227  16.241  1.00  0.00     0.194 HD
HETATM   11  N7  UNL     1      12.706  38.259  16.408  1.00  0.00    -0.141 N 
ENDROOT
BRANCH   2  12
HETATM   12  C4  UNL     1      15.606  36.300  15.471  1.00  0.00     0.259 C 
HETATM   13  O1  UNL     1      16.678  36.973  15.308  1.00  0.00    -0.267 OA
HETATM   14  N2  UNL     1      15.792  34.964  15.891  1.00  0.00    -0.339 N 
ATOM     15  H2  UNL     1      14.985  34.357  16.038  1.00  0.00     0.163 HD
BRANCH  14  16
HETATM   16  C5  UNL     1      17.146  34.452  16.117  1.00  0.00     0.229 C 
BRANCH  16  17
HETATM   17  C6  UNL     1      17.115  33.180  16.887  1.00  0.00     0.258 C 
HETATM   18  N3  UNL     1      15.976  32.348  16.940  1.00  0.00    -0.060 NA
HETATM   19  O2  UNL     1      18.175  32.863  17.511  1.00  0.00    -0.274 OA
ENDBRANCH  16  17
BRANCH  16  20
HETATM   20  C7  UNL     1      17.846  34.175  14.811  1.00  0.00     0.285 C 
BRANCH  20  21
HETATM   21  O3  UNL     1      16.948  34.061  13.754  1.00  0.00    -0.369 OA
ATOM     22  H3  UNL     1      17.299  33.535  13.045  1.00  0.00     0.212 HD
ENDBRANCH  20  21
BRANCH  20  23
HETATM   23  O4  UNL     1      18.843  35.099  14.541  1.00  0.00    -0.369 OA
ATOM     24  H4  UNL     1      19.673  34.861  14.937  1.00  0.00     0.212 HD
ENDBRANCH  20  23
ENDBRANCH  16  20
ENDBRANCH  14  16
ENDBRANCH   2  12
BRANCH   1  25
HETATM   25  N1  UNL     1      14.855  38.801  16.399  1.00  0.00    -0.377 N 
HETATM   26  C1  UNL     1      15.435  39.066  17.660  1.00  0.00     0.148 C 
ATOM     27  H1  UNL     1      15.248  39.364  15.645  1.00  0.00     0.160 HD
ENDBRANCH   1  25
BRANCH  11  28
HETATM   28  O6  UNL     1      12.526  38.853  17.466  1.00  0.00    -0.266 OA
ATOM     29  H6  UNL     1      12.240  38.350  18.220  1.00  0.00     0.247 HD
ENDBRANCH  11  28
TORSDOF 8
ENDMDL
MODEL 3
REMARK VINA RESULT: -6.451359087      3.212      7.538
REMARK  8 active torsions:
REMARK  status: ('A' for Active; 'I' for Inactive)
REMARK    1  A    between atoms: N1_2  and  C2_4 
REMARK    2  A    between atoms: C3_5  and  C4_6 
REMARK       I    between atoms: C4_6  and  N2_8 
REMARK    3  A    between atoms: N2_8  and  C5_10 
REMARK    4  A    between atoms: C5_10  and  C6_11 
REMARK    5  A    between atoms: C5_10  and  C7_14 
REMARK    6  A    between atoms: C7_14  and  O3_15 
REMARK    7  A    between atoms: C7_14  and  O4_17 
REMARK    8  A    between atoms: N7_27  and  O6_28 
ROOT
HETATM    1  C2  UNL     1      16.449  36.398  15.701  1.00  0.00     0.166 C 
HETATM    2  C3  UNL     1      15.513  35.435  15.313  1.00  0.00     0.120 C 
HETATM    3  C8  UNL     1      15.371  34.173  15.905  1.00  0.00     0.140 C 
HETATM    4  N4  UNL     1      14.099  33.572  15.782  1.00  0.00    -0.081 NA
HETATM    5  N5  UNL     1      16.331  33.477  16.577  1.00  0.00    -0.295 N 
ATOM      6  H5  UNL     1      16.068  32.540  16.882  1.00  0.00     0.172 HD
HETATM    7  C9  UNL     1      17.585  33.868  16.891  1.00  0.00     0.342 C 
HETATM    8  O5  UNL     1      18.231  33.010  17.549  1.00  0.00    -0.245 OA
HETATM    9  N6  UNL     1      18.231  35.027  16.606  1.00  0.00    -0.223 N 
ATOM     10  H6  UNL     1      19.226  35.054  16.829  1.00  0.00     0.194 HD
HETATM   11  N7  UNL     1      17.713  36.149  16.061  1.00  0.00    -0.141 N 
ENDROOT
BRANCH   2  12
HETATM   12  C4  UNL     1      14.596  35.715  14.264  1.00  0.00     0.259 C 
HETATM   13  O1  UNL     1      15.063  35.767  13.078  1.00  0.00    -0.267 OA
HETATM   14  N2  UNL     1      13.207  35.949  14.376  1.00  0.00    -0.339 N 
ATOM     15  H2  UNL     1      12.758  35.931  15.292  1.00  0.00     0.163 HD
BRANCH  14  16
HETATM   16  C5  UNL     1      12.414  36.217  13.174  1.00  0.00     0.229 C 
BRANCH  16  17
HETATM   17  C6  UNL     1      11.721  34.988  12.707  1.00  0.00     0.258 C 
HETATM   18  N3  UNL     1      10.401  34.664  13.087  1.00  0.00    -0.060 NA
HETATM   19  O2  UNL     1      12.375  34.219  11.936  1.00  0.00    -0.274 OA
ENDBRANCH  16  17
BRANCH  16  20
HETATM   20  C7  UNL     1      11.359  37.260  13.441  1.00  0.00     0.285 C 
BRANCH  20  21
HETATM   21  O3  UNL     1      10.512  37.434  12.351  1.00  0.00    -0.369 OA
ATOM     22  H3  UNL     1      10.288  38.348  12.218  1.00  0.00     0.212 HD
ENDBRANCH  20  21
BRANCH  20  23
HETATM   23  O4  UNL     1      10.652  37.007  14.606  1.00  0.00    -0.369 OA
ATOM     24  H4  UNL     1       9.769  36.703  14.434  1.00  0.00     0.212 HD
ENDBRANCH  20  23
ENDBRANCH  16  20
ENDBRANCH  14  16
ENDBRANCH   2  12
BRANCH   1  25
HETATM   25  N1  UNL     1      16.050  37.574  15.717  1.00  0.00    -0.377 N 
HETATM   26  C1  UNL     1      15.395  38.356  16.694  1.00  0.00     0.148 C 
ATOM     27  H1  UNL     1      16.231  38.077  14.848  1.00  0.00     0.160 HD
ENDBRANCH   1  25
BRANCH  11  28
HETATM   28  O6  UNL     1      18.548  37.030  15.890  1.00  0.00    -0.266 OA
ATOM     29  H6  UNL     1      19.419  36.774  15.610  1.00  0.00     0.247 HD
ENDBRANCH  11  28
TORSDOF 8
ENDMDL
MODEL 4
REMARK VINA RESULT: -6.447466068      4.197      5.840
REMARK  8 active torsions:
REMARK  status: ('A' for Active; 'I' for Inactive)
REMARK    1  A    between atoms: N1_2  and  C2_4 
REMARK    2  A    between atoms: C3_5  and  C4_6 
REMARK       I    between atoms: C4_6  and  N2_8 
REMARK    3  A    between atoms: N2_8  and  C5_10 
REMARK    4  A    between atoms: C5_10  and  C6_11 
REMARK    5  A    between atoms: C5_10  and  C7_14 
REMARK    6  A    between atoms: C7_14  and  O3_15 
REMARK    7  A    between atoms: C7_14  and  O4_17 
REMARK    8  A    between atoms: N7_27  and  O6_28 
ROOT
HETATM    1  C2  UNL     1      13.024  38.272  16.764  1.00  0.00     0.166 C 
HETATM    2  C3  UNL     1      13.263  37.404  15.695  1.00  0.00     0.120 C 
HETATM    3  C8  UNL     1      12.422  37.252  14.584  1.00  0.00     0.140 C 
HETATM    4  N4  UNL     1      13.037  36.784  13.402  1.00  0.00    -0.081 NA
HETATM    5  N5  UNL     1      11.084  37.507  14.536  1.00  0.00    -0.295 N 
ATOM      6  H5  UNL     1      10.619  37.273  13.658  1.00  0.00     0.172 HD
HETATM    7  C9  UNL     1      10.295  38.030  15.499  1.00  0.00     0.342 C 
HETATM    8  O5  UNL     1       9.095  38.176  15.144  1.00  0.00    -0.245 OA
HETATM    9  N6  UNL     1      10.604  38.412  16.765  1.00  0.00    -0.223 N 
ATOM     10  H6  UNL     1       9.818  38.658  17.365  1.00  0.00     0.194 HD
HETATM   11  N7  UNL     1      11.831  38.504  17.322  1.00  0.00    -0.141 N 
ENDROOT
BRANCH   2  12
HETATM   12  C4  UNL     1      14.442  36.613  15.669  1.00  0.00     0.259 C 
HETATM   13  O1  UNL     1      15.558  37.229  15.593  1.00  0.00    -0.267 OA
HETATM   14  N2  UNL     1      14.534  35.203  15.713  1.00  0.00    -0.339 N 
ATOM     15  H2  UNL     1      13.687  34.638  15.767  1.00  0.00     0.163 HD
BRANCH  14  16
HETATM   16  C5  UNL     1      15.849  34.557  15.682  1.00  0.00     0.229 C 
BRANCH  16  17
HETATM   17  C6  UNL     1      15.823  33.262  16.411  1.00  0.00     0.258 C 
HETATM   18  N3  UNL     1      16.946  32.412  16.498  1.00  0.00    -0.060 NA
HETATM   19  O2  UNL     1      14.727  32.940  16.968  1.00  0.00    -0.274 OA
ENDBRANCH  16  17
BRANCH  16  20
HETATM   20  C7  UNL     1      16.279  34.272  14.266  1.00  0.00     0.285 C 
BRANCH  20  21
HETATM   21  O3  UNL     1      15.633  35.097  13.350  1.00  0.00    -0.369 OA
ATOM     22  H3  UNL     1      15.199  35.828  13.775  1.00  0.00     0.212 HD
ENDBRANCH  20  21
BRANCH  20  23
HETATM   23  O4  UNL     1      17.656  34.317  14.115  1.00  0.00    -0.369 OA
ATOM     24  H4  UNL     1      18.079  33.523  14.421  1.00  0.00     0.212 HD
ENDBRANCH  20  23
ENDBRANCH  16  20
ENDBRANCH  14  16
ENDBRANCH   2  12
BRANCH   1  25
HETATM   25  N1  UNL     1      14.013  38.876  17.209  1.00  0.00    -0.377 N 
HETATM   26  C1  UNL     1      14.368  40.243  17.254  1.00  0.00     0.148 C 
ATOM     27  H1  UNL     1      14.711  38.261  17.628  1.00  0.00     0.160 HD
ENDBRANCH   1  25
BRANCH  11  28
HETATM   28  O6  UNL     1      11.799  38.847  18.499  1.00  0.00    -0.266 OA
ATOM     29  H6  UNL     1      11.138  38.461  19.061  1.00  0.00     0.247 HD
ENDBRANCH  11  28
TORSDOF 8
ENDMDL
MODEL 5
REMARK VINA RESULT: -6.384634241      3.635      6.254
REMARK  8 active torsions:
REMARK  status: ('A' for Active; 'I' for Inactive)
REMARK    1  A    between atoms: N1_2  and  C2_4 
REMARK    2  A    between atoms: C3_5  and  C4_6 
REMARK       I    between atoms: C4_6  and  N2_8 
REMARK    3  A    between atoms: N2_8  and  C5_10 
REMARK    4  A    between atoms: C5_10  and  C6_11 
REMARK    5  A    between atoms: C5_10  and  C7_14 
REMARK    6  A    between atoms: C7_14  and  O3_15 
REMARK    7  A    between atoms: C7_14  and  O4_17 
REMARK    8  A    between atoms: N7_27  and  O6_28 
ROOT
HETATM    1  C2  UNL     1      11.918  36.581  13.711  1.00  0.00     0.166 C 
HETATM    2  C3  UNL     1      13.030  36.913  14.491  1.00  0.00     0.120 C 
HETATM    3  C8  UNL     1      13.048  37.909  15.476  1.00  0.00     0.140 C 
HETATM    4  N4  UNL     1      14.014  37.754  16.495  1.00  0.00    -0.081 NA
HETATM    5  N5  UNL     1      12.235  39.000  15.544  1.00  0.00    -0.295 N 
ATOM      6  H5  UNL     1      12.438  39.659  16.297  1.00  0.00     0.172 HD
HETATM    7  C9  UNL     1      11.196  39.323  14.744  1.00  0.00     0.342 C 
HETATM    8  O5  UNL     1      10.613  40.389  15.079  1.00  0.00    -0.245 OA
HETATM    9  N6  UNL     1      10.703  38.678  13.656  1.00  0.00    -0.223 N 
ATOM     10  H6  UNL     1       9.990  39.175  13.123  1.00  0.00     0.194 HD
HETATM   11  N7  UNL     1      11.044  37.454  13.198  1.00  0.00    -0.141 N 
ENDROOT
BRANCH   2  12
HETATM   12  C4  UNL     1      14.249  36.201  14.333  1.00  0.00     0.259 C 
HETATM   13  O1  UNL     1      14.716  36.095  13.150  1.00  0.00    -0.267 OA
HETATM   14  N2  UNL     1      15.020  35.581  15.342  1.00  0.00    -0.339 N 
ATOM     15  H2  UNL     1      14.711  35.614  16.314  1.00  0.00     0.163 HD
BRANCH  14  16
HETATM   16  C5  UNL     1      16.263  34.891  14.990  1.00  0.00     0.229 C 
BRANCH  16  17
HETATM   17  C6  UNL     1      17.447  35.736  15.298  1.00  0.00     0.258 C 
HETATM   18  N3  UNL     1      18.769  35.242  15.260  1.00  0.00    -0.060 NA
HETATM   19  O2  UNL     1      17.221  36.948  15.605  1.00  0.00    -0.274 OA
ENDBRANCH  16  17
BRANCH  16  20
HETATM   20  C7  UNL     1      16.408  33.605  15.763  1.00  0.00     0.285 C 
BRANCH  20  21
HETATM   21  O3  UNL     1      17.368  32.768  15.203  1.00  0.00    -0.369 OA
ATOM     22  H3  UNL     1      17.145  31.851  15.312  1.00  0.00     0.212 HD
ENDBRANCH  20  21
BRANCH  20  23
HETATM   23  O4  UNL     1      16.642  33.825  17.111  1.00  0.00    -0.369 OA
ATOM     24  H4  UNL     1      17.206  33.162  17.493  1.00  0.00     0.212 HD
ENDBRANCH  20  23
ENDBRANCH  16  20
ENDBRANCH  14  16
ENDBRANCH   2  12
BRANCH   1  25
HETATM   25  N1  UNL     1      11.740  35.371  13.499  1.00  0.00    -0.377 N 
HETATM   26  C1  UNL     1      11.742  34.588  12.323  1.00  0.00     0.148 C 
ATOM     27  H1  UNL     1      11.553  34.833  14.345  1.00  0.00     0.160 HD
ENDBRANCH   1  25
BRANCH  11  28
HETATM   28  O6  UNL     1      10.451  37.143  12.171  1.00  0.00    -0.266 OA
ATOM     29  H6  UNL     1      10.920  36.636  11.518  1.00  0.00     0.247 HD
ENDBRANCH  11  28
TORSDOF 8
ENDMDL
