MODEL 1
REMARK VINA RESULT: -7.514840845      0.000      0.000
REMARK  8 active torsions:
REMARK  status: ('A' for Active; 'I' for Inactive)
REMARK    1  A    between atoms: N1_1  and  N2_4 
REMARK    2  A    between atoms: N2_4  and  C1_6 
REMARK    3  A    between atoms: C1_6  and  C2_8 
REMARK    4  A    between atoms: C2_8  and  N3_9 
REMARK    5  A    between atoms: C2_8  and  N4_13 
REMARK    6  A    between atoms: N4_13  and  N5_15 
REMARK    7  A    between atoms: C5_19  and  C6_20 
REMARK    8  A    between atoms: C7_25  and  C8_26 
ROOT
HETATM    1  N5  UNL     1      15.019  36.993  15.340  1.00  0.00    -0.288 N 
ATOM      2  H5  UNL     1      15.341  37.734  15.963  1.00  0.00     0.188 HD
HETATM    3  C3  UNL     1      13.795  36.956  14.890  1.00  0.00     0.123 A 
HETATM    4  C4  UNL     1      13.334  35.976  14.053  1.00  0.00     0.084 A 
HETATM    5  C5  UNL     1      12.032  35.995  13.614  1.00  0.00     0.103 A 
HETATM    6  N7  UNL     1      11.254  37.006  14.040  1.00  0.00    -0.334 N 
ATOM      7  H7  UNL     1      10.283  37.045  13.728  1.00  0.00     0.168 HD
HETATM    8  C7  UNL     1      11.713  37.970  14.865  1.00  0.00     0.173 A 
HETATM    9  N9  UNL     1      12.986  37.931  15.281  1.00  0.00    -0.323 N 
ATOM     10  H9  UNL     1      13.337  38.658  15.905  1.00  0.00     0.169 HD
ENDROOT
BRANCH   1  11
HETATM   11  N4  UNL     1      15.867  35.962  14.924  1.00  0.00    -0.299 N 
ATOM     12  H4  UNL     1      16.227  35.912  13.970  1.00  0.00     0.183 HD
BRANCH  11  13
HETATM   13  C2  UNL     1      16.205  34.960  15.931  1.00  0.00     0.359 C 
BRANCH  13  14
HETATM   14  C1  UNL     1      17.392  34.162  15.494  1.00  0.00     0.143 C 
HETATM   15  S1  UNL     1      18.088  33.155  16.550  1.00  0.00    -0.060 SA
BRANCH  14  16
HETATM   16  N2  UNL     1      17.846  34.336  14.166  1.00  0.00    -0.297 N 
ATOM     17  H2  UNL     1      17.157  34.465  13.425  1.00  0.00     0.187 HD
BRANCH  16  18
HETATM   18  N1  UNL     1      19.198  34.336  13.833  1.00  0.00    -0.344 N 
ATOM     19  H12 UNL     1      19.608  35.214  13.515  1.00  0.00     0.176 HD
ATOM     20  H11 UNL     1      19.778  33.499  13.896  1.00  0.00     0.176 HD
ENDBRANCH  16  18
ENDBRANCH  14  16
ENDBRANCH  13  14
BRANCH  13  21
HETATM   21  N3  UNL     1      16.490  35.690  17.152  1.00  0.00    -0.051 N 
ATOM     22  H33 UNL     1      15.889  35.389  17.919  1.00  0.00     0.277 HD
ATOM     23  H32 UNL     1      17.392  35.424  17.548  1.00  0.00     0.277 HD
ATOM     24  H31 UNL     1      16.429  36.697  16.999  1.00  0.00     0.277 HD
ENDBRANCH  13  21
ENDBRANCH  11  13
ENDBRANCH   1  11
BRANCH   5  25
HETATM   25  C6  UNL     1      11.512  34.953  12.714  1.00  0.00     0.281 C 
HETATM   26  N6  UNL     1      10.165  34.528  12.864  1.00  0.00    -0.056 NA
HETATM   27  O1  UNL     1      12.287  34.490  11.855  1.00  0.00    -0.269 OA
ENDBRANCH   5  25
BRANCH   8  28
HETATM   28  C8  UNL     1      10.833  39.033  15.293  1.00  0.00     0.298 C 
HETATM   29  N8  UNL     1       9.745  38.752  16.139  1.00  0.00    -0.054 NA
HETATM   30  O2  UNL     1      11.012  40.221  14.926  1.00  0.00    -0.268 OA
ENDBRANCH   8  28
TORSDOF 8
ENDMDL
MODEL 2
REMARK VINA RESULT: -7.506242737      1.291      1.351
REMARK  8 active torsions:
REMARK  status: ('A' for Active; 'I' for Inactive)
REMARK    1  A    between atoms: N1_1  and  N2_4 
REMARK    2  A    between atoms: N2_4  and  C1_6 
REMARK    3  A    between atoms: C1_6  and  C2_8 
REMARK    4  A    between atoms: C2_8  and  N3_9 
REMARK    5  A    between atoms: C2_8  and  N4_13 
REMARK    6  A    between atoms: N4_13  and  N5_15 
REMARK    7  A    between atoms: C5_19  and  C6_20 
REMARK    8  A    between atoms: C7_25  and  C8_26 
ROOT
HETATM    1  N5  UNL     1      15.610  36.146  14.733  1.00  0.00    -0.288 N 
ATOM      2  H5  UNL     1      16.239  36.683  15.330  1.00  0.00     0.188 HD
HETATM    3  C3  UNL     1      14.353  36.470  14.592  1.00  0.00     0.123 A 
HETATM    4  C4  UNL     1      13.485  35.769  13.798  1.00  0.00     0.084 A 
HETATM    5  C5  UNL     1      12.173  36.164  13.691  1.00  0.00     0.103 A 
HETATM    6  N7  UNL     1      11.797  37.249  14.391  1.00  0.00    -0.334 N 
ATOM      7  H7  UNL     1      10.828  37.564  14.329  1.00  0.00     0.168 HD
HETATM    8  C7  UNL     1      12.658  37.936  15.173  1.00  0.00     0.173 A 
HETATM    9  N9  UNL     1      13.932  37.533  15.262  1.00  0.00    -0.323 N 
ATOM     10  H9  UNL     1      14.586  38.049  15.852  1.00  0.00     0.169 HD
ENDROOT
BRANCH   1  11
HETATM   11  N4  UNL     1      16.047  35.023  14.023  1.00  0.00    -0.299 N 
ATOM     12  H4  UNL     1      15.886  34.923  13.021  1.00  0.00     0.183 HD
BRANCH  11  13
HETATM   13  C2  UNL     1      16.746  34.003  14.799  1.00  0.00     0.359 C 
BRANCH  13  14
HETATM   14  C1  UNL     1      18.159  34.420  15.055  1.00  0.00     0.143 C 
HETATM   15  S1  UNL     1      18.572  34.911  16.538  1.00  0.00    -0.060 SA
BRANCH  14  16
HETATM   16  N2  UNL     1      19.067  34.360  13.972  1.00  0.00    -0.297 N 
ATOM     17  H2  UNL     1      18.803  34.794  13.087  1.00  0.00     0.187 HD
BRANCH  16  18
HETATM   18  N1  UNL     1      20.305  33.732  14.069  1.00  0.00    -0.344 N 
ATOM     19  H12 UNL     1      21.082  34.271  14.454  1.00  0.00     0.176 HD
ATOM     20  H11 UNL     1      20.455  32.768  13.771  1.00  0.00     0.176 HD
ENDBRANCH  16  18
ENDBRANCH  14  16
ENDBRANCH  13  14
BRANCH  13  21
HETATM   21  N3  UNL     1      16.012  33.863  16.043  1.00  0.00    -0.051 N 
ATOM     22  H33 UNL     1      16.372  33.093  16.608  1.00  0.00     0.277 HD
ATOM     23  H32 UNL     1      16.209  34.630  16.685  1.00  0.00     0.277 HD
ATOM     24  H31 UNL     1      15.012  33.766  15.868  1.00  0.00     0.277 HD
ENDBRANCH  13  21
ENDBRANCH  11  13
ENDBRANCH   1  11
BRANCH   5  25
HETATM   25  C6  UNL     1      11.219  35.429  12.845  1.00  0.00     0.281 C 
HETATM   26  N6  UNL     1       9.849  35.801  12.873  1.00  0.00    -0.056 NA
HETATM   27  O1  UNL     1      11.666  34.505  12.137  1.00  0.00    -0.269 OA
ENDBRANCH   5  25
BRANCH   8  28
HETATM   28  C8  UNL     1      12.201  39.094  15.904  1.00  0.00     0.298 C 
HETATM   29  N8  UNL     1      11.015  39.747  15.524  1.00  0.00    -0.054 NA
HETATM   30  O2  UNL     1      12.842  39.545  16.886  1.00  0.00    -0.268 OA
ENDBRANCH   8  28
TORSDOF 8
ENDMDL
MODEL 3
REMARK VINA RESULT: -7.428966735      1.498      3.468
REMARK  8 active torsions:
REMARK  status: ('A' for Active; 'I' for Inactive)
REMARK    1  A    between atoms: N1_1  and  N2_4 
REMARK    2  A    between atoms: N2_4  and  C1_6 
REMARK    3  A    between atoms: C1_6  and  C2_8 
REMARK    4  A    between atoms: C2_8  and  N3_9 
REMARK    5  A    between atoms: C2_8  and  N4_13 
REMARK    6  A    between atoms: N4_13  and  N5_15 
REMARK    7  A    between atoms: C5_19  and  C6_20 
REMARK    8  A    between atoms: C7_25  and  C8_26 
ROOT
HETATM    1  N5  UNL     1      16.002  35.778  14.254  1.00  0.00    -0.288 N 
ATOM      2  H5  UNL     1      16.218  34.989  13.643  1.00  0.00     0.188 HD
HETATM    3  C3  UNL     1      14.787  36.237  14.379  1.00  0.00     0.123 A 
HETATM    4  C4  UNL     1      14.466  37.293  15.190  1.00  0.00     0.084 A 
HETATM    5  C5  UNL     1      13.165  37.728  15.278  1.00  0.00     0.103 A 
HETATM    6  N7  UNL     1      12.247  37.076  14.542  1.00  0.00    -0.334 N 
ATOM      7  H7  UNL     1      11.274  37.379  14.590  1.00  0.00     0.168 HD
HETATM    8  C7  UNL     1      12.569  36.036  13.744  1.00  0.00     0.173 A 
HETATM    9  N9  UNL     1      13.844  35.629  13.674  1.00  0.00    -0.323 N 
ATOM     10  H9  UNL     1      14.091  34.843  13.072  1.00  0.00     0.169 HD
ENDROOT
BRANCH   1  11
HETATM   11  N4  UNL     1      16.992  36.424  15.000  1.00  0.00    -0.299 N 
ATOM     12  H4  UNL     1      17.181  37.422  14.897  1.00  0.00     0.183 HD
BRANCH  11  13
HETATM   13  C2  UNL     1      17.741  35.589  15.936  1.00  0.00     0.359 C 
BRANCH  13  14
HETATM   14  C1  UNL     1      18.075  34.274  15.308  1.00  0.00     0.143 C 
HETATM   15  S1  UNL     1      17.562  32.916  16.019  1.00  0.00    -0.060 SA
BRANCH  14  16
HETATM   16  N2  UNL     1      18.831  34.291  14.113  1.00  0.00    -0.297 N 
ATOM     17  H2  UNL     1      18.399  34.659  13.265  1.00  0.00     0.187 HD
BRANCH  16  18
HETATM   18  N1  UNL     1      20.141  33.824  14.051  1.00  0.00    -0.344 N 
ATOM     19  H12 UNL     1      20.824  34.393  13.550  1.00  0.00     0.176 HD
ATOM     20  H11 UNL     1      20.430  32.947  14.482  1.00  0.00     0.176 HD
ENDBRANCH  16  18
ENDBRANCH  14  16
ENDBRANCH  13  14
BRANCH  13  21
HETATM   21  N3  UNL     1      18.944  36.328  16.269  1.00  0.00    -0.051 N 
ATOM     22  H33 UNL     1      19.490  35.854  16.988  1.00  0.00     0.277 HD
ATOM     23  H32 UNL     1      19.626  36.297  15.511  1.00  0.00     0.277 HD
ATOM     24  H31 UNL     1      18.722  37.287  16.535  1.00  0.00     0.277 HD
ENDBRANCH  13  21
ENDBRANCH  11  13
ENDBRANCH   1  11
BRANCH   5  25
HETATM   25  C6  UNL     1      12.794  38.860  16.141  1.00  0.00     0.281 C 
HETATM   26  N6  UNL     1      11.424  39.218  16.252  1.00  0.00    -0.056 NA
HETATM   27  O1  UNL     1      13.710  39.456  16.740  1.00  0.00    -0.269 OA
ENDBRANCH   5  25
BRANCH   8  28
HETATM   28  C8  UNL     1      11.543  35.372  12.975  1.00  0.00     0.298 C 
HETATM   29  N8  UNL     1      10.198  35.761  13.107  1.00  0.00    -0.054 NA
HETATM   30  O2  UNL     1      11.819  34.441  12.178  1.00  0.00    -0.268 OA
ENDBRANCH   8  28
TORSDOF 8
ENDMDL
MODEL 4
REMARK VINA RESULT: -7.418926250      1.715      3.412
REMARK  8 active torsions:
REMARK  status: ('A' for Active; 'I' for Inactive)
REMARK    1  A    between atoms: N1_1  and  N2_4 
REMARK    2  A    between atoms: N2_4  and  C1_6 
REMARK    3  A    between atoms: C1_6  and  C2_8 
REMARK    4  A    between atoms: C2_8  and  N3_9 
REMARK    5  A    between atoms: C2_8  and  N4_13 
REMARK    6  A    between atoms: N4_13  and  N5_15 
REMARK    7  A    between atoms: C5_19  and  C6_20 
REMARK    8  A    between atoms: C7_25  and  C8_26 
ROOT
HETATM    1  N5  UNL     1      15.056  34.969  13.480  1.00  0.00    -0.288 N 
ATOM      2  H5  UNL     1      14.962  34.214  12.800  1.00  0.00     0.188 HD
HETATM    3  C3  UNL     1      14.045  35.726  13.809  1.00  0.00     0.123 A 
HETATM    4  C4  UNL     1      14.140  36.746  14.718  1.00  0.00     0.084 A 
HETATM    5  C5  UNL     1      13.037  37.508  15.021  1.00  0.00     0.103 A 
HETATM    6  N7  UNL     1      11.887  37.204  14.394  1.00  0.00    -0.334 N 
ATOM      7  H7  UNL     1      11.052  37.753  14.602  1.00  0.00     0.168 HD
HETATM    8  C7  UNL     1      11.800  36.196  13.499  1.00  0.00     0.173 A 
HETATM    9  N9  UNL     1      12.888  35.468  13.218  1.00  0.00    -0.323 N 
ATOM     10  H9  UNL     1      12.826  34.706  12.541  1.00  0.00     0.169 HD
ENDROOT
BRANCH   1  11
HETATM   11  N4  UNL     1      16.274  35.247  14.108  1.00  0.00    -0.299 N 
ATOM     12  H4  UNL     1      16.700  36.173  14.071  1.00  0.00     0.183 HD
BRANCH  11  13
HETATM   13  C2  UNL     1      16.900  34.136  14.818  1.00  0.00     0.359 C 
BRANCH  13  14
HETATM   14  C1  UNL     1      18.350  34.416  15.050  1.00  0.00     0.143 C 
HETATM   15  S1  UNL     1      18.839  34.825  16.535  1.00  0.00    -0.060 SA
BRANCH  14  16
HETATM   16  N2  UNL     1      19.224  34.308  13.944  1.00  0.00    -0.297 N 
ATOM     17  H2  UNL     1      18.937  34.709  13.050  1.00  0.00     0.187 HD
BRANCH  16  18
HETATM   18  N1  UNL     1      20.461  33.674  14.028  1.00  0.00    -0.344 N 
ATOM     19  H12 UNL     1      21.100  33.976  14.764  1.00  0.00     0.176 HD
ATOM     20  H11 UNL     1      20.741  32.932  13.386  1.00  0.00     0.176 HD
ENDBRANCH  16  18
ENDBRANCH  14  16
ENDBRANCH  13  14
BRANCH  13  21
HETATM   21  N3  UNL     1      16.189  34.003  16.076  1.00  0.00    -0.051 N 
ATOM     22  H33 UNL     1      16.498  33.184  16.599  1.00  0.00     0.277 HD
ATOM     23  H32 UNL     1      16.464  34.725  16.742  1.00  0.00     0.277 HD
ATOM     24  H31 UNL     1      15.180  33.996  15.926  1.00  0.00     0.277 HD
ENDBRANCH  13  21
ENDBRANCH  11  13
ENDBRANCH   1  11
BRANCH   5  25
HETATM   25  C6  UNL     1      13.112  38.610  15.994  1.00  0.00     0.281 C 
HETATM   26  N6  UNL     1      14.355  38.888  16.621  1.00  0.00    -0.056 NA
HETATM   27  O1  UNL     1      12.068  39.253  16.222  1.00  0.00    -0.269 OA
ENDBRANCH   5  25
BRANCH   8  28
HETATM   28  C8  UNL     1      10.539  35.913  12.852  1.00  0.00     0.298 C 
HETATM   29  N8  UNL     1      10.073  34.590  12.761  1.00  0.00    -0.054 NA
HETATM   30  O2  UNL     1       9.835  36.829  12.359  1.00  0.00    -0.268 OA
ENDBRANCH   8  28
TORSDOF 8
ENDMDL
MODEL 5
REMARK VINA RESULT: -7.322214740      2.316      4.243
REMARK  8 active torsions:
REMARK  status: ('A' for Active; 'I' for Inactive)
REMARK    1  A    between atoms: N1_1  and  N2_4 
REMARK    2  A    between atoms: N2_4  and  C1_6 
REMARK    3  A    between atoms: C1_6  and  C2_8 
REMARK    4  A    between atoms: C2_8  and  N3_9 
REMARK    5  A    between atoms: C2_8  and  N4_13 
REMARK    6  A    between atoms: N4_13  and  N5_15 
REMARK    7  A    between atoms: C5_19  and  C6_20 
REMARK    8  A    between atoms: C7_25  and  C8_26 
ROOT
HETATM    1  N5  UNL     1      16.648  34.358  13.867  1.00  0.00    -0.288 N 
ATOM      2  H5  UNL     1      16.454  33.599  13.213  1.00  0.00     0.188 HD
HETATM    3  C3  UNL     1      15.724  35.206  14.230  1.00  0.00     0.123 A 
HETATM    4  C4  UNL     1      15.954  36.234  15.105  1.00  0.00     0.084 A 
HETATM    5  C5  UNL     1      14.937  37.093  15.446  1.00  0.00     0.103 A 
HETATM    6  N7  UNL     1      13.733  36.874  14.888  1.00  0.00    -0.334 N 
ATOM      7  H7  UNL     1      12.960  37.497  15.125  1.00  0.00     0.168 HD
HETATM    8  C7  UNL     1      13.512  35.859  14.026  1.00  0.00     0.173 A 
HETATM    9  N9  UNL     1      14.519  35.034  13.707  1.00  0.00    -0.323 N 
ATOM     10  H9  UNL     1      14.355  34.266  13.055  1.00  0.00     0.169 HD
ENDROOT
BRANCH   1  11
HETATM   11  N4  UNL     1      17.918  34.545  14.422  1.00  0.00    -0.299 N 
ATOM     12  H4  UNL     1      18.452  35.402  14.271  1.00  0.00     0.183 HD
BRANCH  11  13
HETATM   13  C2  UNL     1      18.435  33.445  15.230  1.00  0.00     0.359 C 
BRANCH  13  14
HETATM   14  C1  UNL     1      19.142  33.972  16.438  1.00  0.00     0.143 C 
HETATM   15  S1  UNL     1      20.758  34.012  16.442  1.00  0.00    -0.060 SA
BRANCH  14  16
HETATM   16  N2  UNL     1      18.348  34.412  17.523  1.00  0.00    -0.297 N 
ATOM     17  H2  UNL     1      17.899  33.714  18.116  1.00  0.00     0.187 HD
BRANCH  16  18
HETATM   18  N1  UNL     1      18.158  35.761  17.811  1.00  0.00    -0.344 N 
ATOM     19  H12 UNL     1      17.289  36.029  18.274  1.00  0.00     0.176 HD
ATOM     20  H11 UNL     1      18.849  36.473  17.576  1.00  0.00     0.176 HD
ENDBRANCH  16  18
ENDBRANCH  14  16
ENDBRANCH  13  14
BRANCH  13  21
HETATM   21  N3  UNL     1      17.287  32.642  15.609  1.00  0.00    -0.051 N 
ATOM     22  H33 UNL     1      17.350  31.695  15.234  1.00  0.00     0.277 HD
ATOM     23  H32 UNL     1      17.298  32.415  16.603  1.00  0.00     0.277 HD
ATOM     24  H31 UNL     1      16.417  33.097  15.336  1.00  0.00     0.277 HD
ENDBRANCH  13  21
ENDBRANCH  11  13
ENDBRANCH   1  11
BRANCH   5  25
HETATM   25  C6  UNL     1      15.157  38.206  16.384  1.00  0.00     0.281 C 
HETATM   26  N6  UNL     1      16.413  38.311  17.040  1.00  0.00    -0.056 NA
HETATM   27  O1  UNL     1      14.221  39.010  16.557  1.00  0.00    -0.269 OA
ENDBRANCH   5  25
BRANCH   8  28
HETATM   28  C8  UNL     1      12.199  35.670  13.455  1.00  0.00     0.298 C 
HETATM   29  N8  UNL     1      12.023  34.811  12.356  1.00  0.00    -0.054 NA
HETATM   30  O2  UNL     1      11.192  36.262  13.917  1.00  0.00    -0.268 OA
ENDBRANCH   8  28
TORSDOF 8
ENDMDL
