MODEL 1
REMARK VINA RESULT: -7.904952780      0.000      0.000
REMARK  6 active torsions:
REMARK  status: ('A' for Active; 'I' for Inactive)
REMARK    1  A    between atoms: C3_11  and  O2_12 
REMARK    2  A    between atoms: C4_14  and  C5_15 
REMARK    3  A    between atoms: N4_16  and  N5_18 
REMARK       I    between atoms: N5_18  and  C6_20 
REMARK    4  A    between atoms: C6_20  and  C7_22 
REMARK    5  A    between atoms: C7_22  and  N6_23 
REMARK    6  A    between atoms: C7_22  and  C8_27 
ROOT
HETATM    1  N1  UNL     1      19.310  34.309  13.726  1.00  0.00    -0.234 N 
ATOM      2  H11 UNL     1      18.932  34.106  12.802  1.00  0.00     0.174 HD
ATOM      3  H12 UNL     1      20.270  34.361  14.069  1.00  0.00     0.174 HD
HETATM    4  C1  UNL     1      18.396  34.543  14.624  1.00  0.00     0.682 C 
HETATM    5  N2  UNL     1      18.924  34.827  15.918  1.00  0.00    -0.141 N 
ATOM      6  H2  UNL     1      19.930  34.671  15.978  1.00  0.00     0.189 HD
HETATM    7  C2  UNL     1      18.357  35.285  17.155  1.00  0.00     0.340 C 
HETATM    8  O1  UNL     1      19.225  35.265  18.080  1.00  0.00    -0.246 OA
HETATM    9  N3  UNL     1      17.074  35.743  17.563  1.00  0.00    -0.288 N 
ATOM     10  H3  UNL     1      17.040  35.949  18.561  1.00  0.00     0.172 HD
HETATM   11  C3  UNL     1      15.812  35.986  16.918  1.00  0.00     0.161 C 
HETATM   12  C4  UNL     1      15.276  35.699  15.744  1.00  0.00     0.100 C 
HETATM   13  C9  UNL     1      15.799  34.981  14.591  1.00  0.00     0.275 C 
HETATM   14  O5  UNL     1      14.892  34.738  13.740  1.00  0.00    -0.267 OA
HETATM   15  N8  UNL     1      17.058  34.471  14.147  1.00  0.00    -0.155 N 
ATOM     16  H8  UNL     1      16.978  33.929  13.286  1.00  0.00     0.187 HD
ENDROOT
BRANCH  12  17
HETATM   17  C5  UNL     1      13.927  36.201  15.606  1.00  0.00     0.128 C 
HETATM   18  N4  UNL     1      13.727  37.130  14.708  1.00  0.00    -0.308 N 
ATOM     19  H4  UNL     1      14.518  37.457  14.153  1.00  0.00     0.186 HD
BRANCH  18  20
HETATM   20  N5  UNL     1      12.472  37.689  14.485  1.00  0.00    -0.268 N 
HETATM   21  C6  UNL     1      11.642  37.209  13.441  1.00  0.00     0.275 C 
HETATM   22  O3  UNL     1      12.038  36.276  12.713  1.00  0.00    -0.269 OA
ATOM     23  H5  UNL     1      12.146  38.451  15.079  1.00  0.00     0.190 HD
BRANCH  21  24
HETATM   24  C7  UNL     1      10.300  37.817  13.213  1.00  0.00     0.364 C 
BRANCH  24  25
HETATM   25  N6  UNL     1       9.395  36.818  12.742  1.00  0.00    -0.058 N 
ATOM     26  H63 UNL     1       9.585  35.903  13.151  1.00  0.00     0.275 HD
ATOM     27  H62 UNL     1       8.452  36.950  13.109  1.00  0.00     0.275 HD
ATOM     28  H61 UNL     1       9.411  36.794  11.723  1.00  0.00     0.275 HD
ENDBRANCH  24  25
BRANCH  24  29
HETATM   29  C8  UNL     1       9.860  38.453  14.473  1.00  0.00     0.271 C 
HETATM   30  N7  UNL     1       9.319  37.683  15.556  1.00  0.00    -0.060 NA
HETATM   31  O4  UNL     1       9.977  39.699  14.566  1.00  0.00    -0.274 OA
ENDBRANCH  24  29
ENDBRANCH  21  24
ENDBRANCH  18  20
ENDBRANCH  12  17
BRANCH  11  32
HETATM   32  O2  UNL     1      14.904  36.701  17.692  1.00  0.00    -0.345 OA
ATOM     33  H2  UNL     1      14.267  37.194  17.190  1.00  0.00     0.219 HD
ENDBRANCH  11  32
TORSDOF 6
ENDMDL
MODEL 2
REMARK VINA RESULT: -7.768854733      1.753      7.564
REMARK  6 active torsions:
REMARK  status: ('A' for Active; 'I' for Inactive)
REMARK    1  A    between atoms: C3_11  and  O2_12 
REMARK    2  A    between atoms: C4_14  and  C5_15 
REMARK    3  A    between atoms: N4_16  and  N5_18 
REMARK       I    between atoms: N5_18  and  C6_20 
REMARK    4  A    between atoms: C6_20  and  C7_22 
REMARK    5  A    between atoms: C7_22  and  N6_23 
REMARK    6  A    between atoms: C7_22  and  C8_27 
ROOT
HETATM    1  N1  UNL     1       9.234  37.008  12.625  1.00  0.00    -0.234 N 
ATOM      2  H11 UNL     1       9.152  36.204  12.003  1.00  0.00     0.174 HD
ATOM      3  H12 UNL     1       8.554  37.709  12.918  1.00  0.00     0.174 HD
HETATM    4  C1  UNL     1      10.426  37.158  13.128  1.00  0.00     0.682 C 
HETATM    5  N2  UNL     1      10.542  38.283  13.998  1.00  0.00    -0.141 N 
ATOM      6  H2  UNL     1       9.714  38.878  13.987  1.00  0.00     0.189 HD
HETATM    7  C2  UNL     1      11.563  38.765  14.885  1.00  0.00     0.340 C 
HETATM    8  O1  UNL     1      11.248  39.898  15.357  1.00  0.00    -0.246 OA
HETATM    9  N3  UNL     1      12.815  38.266  15.338  1.00  0.00    -0.288 N 
ATOM     10  H3  UNL     1      13.291  38.927  15.952  1.00  0.00     0.172 HD
HETATM   11  C3  UNL     1      13.578  37.062  15.147  1.00  0.00     0.161 C 
HETATM   12  C4  UNL     1      13.526  36.027  14.327  1.00  0.00     0.100 C 
HETATM   13  C9  UNL     1      12.616  35.700  13.238  1.00  0.00     0.275 C 
HETATM   14  O5  UNL     1      13.035  34.716  12.558  1.00  0.00    -0.267 OA
HETATM   15  N8  UNL     1      11.375  36.181  12.719  1.00  0.00    -0.155 N 
ATOM     16  H8  UNL     1      11.106  35.713  11.852  1.00  0.00     0.187 HD
ENDROOT
BRANCH  12  17
HETATM   17  C5  UNL     1      14.571  35.061  14.576  1.00  0.00     0.128 C 
HETATM   18  N4  UNL     1      15.675  35.186  13.885  1.00  0.00    -0.308 N 
ATOM     19  H4  UNL     1      15.750  35.948  13.210  1.00  0.00     0.186 HD
BRANCH  18  20
HETATM   20  N5  UNL     1      16.750  34.316  14.040  1.00  0.00    -0.268 N 
HETATM   21  C6  UNL     1      17.835  34.650  14.889  1.00  0.00     0.275 C 
HETATM   22  O3  UNL     1      17.829  35.734  15.506  1.00  0.00    -0.269 OA
ATOM     23  H5  UNL     1      16.757  33.428  13.537  1.00  0.00     0.190 HD
BRANCH  21  24
HETATM   24  C7  UNL     1      18.980  33.708  15.045  1.00  0.00     0.364 C 
BRANCH  24  25
HETATM   25  N6  UNL     1      19.965  33.981  14.048  1.00  0.00    -0.058 N 
ATOM     26  H63 UNL     1      19.674  33.667  13.122  1.00  0.00     0.275 HD
ATOM     27  H62 UNL     1      20.042  34.978  13.847  1.00  0.00     0.275 HD
ATOM     28  H61 UNL     1      20.858  33.577  14.329  1.00  0.00     0.275 HD
ENDBRANCH  24  25
BRANCH  24  29
HETATM   29  C8  UNL     1      19.497  33.832  16.424  1.00  0.00     0.271 C 
HETATM   30  N7  UNL     1      20.709  34.544  16.712  1.00  0.00    -0.060 NA
HETATM   31  O4  UNL     1      18.836  33.291  17.343  1.00  0.00    -0.274 OA
ENDBRANCH  24  29
ENDBRANCH  21  24
ENDBRANCH  18  20
ENDBRANCH  12  17
BRANCH  11  32
HETATM   32  O2  UNL     1      14.644  36.917  16.029  1.00  0.00    -0.345 OA
ATOM     33  H2  UNL     1      14.969  36.027  16.102  1.00  0.00     0.219 HD
ENDBRANCH  11  32
TORSDOF 6
ENDMDL
MODEL 3
REMARK VINA RESULT: -7.594340062      3.911      9.335
REMARK  6 active torsions:
REMARK  status: ('A' for Active; 'I' for Inactive)
REMARK    1  A    between atoms: C3_11  and  O2_12 
REMARK    2  A    between atoms: C4_14  and  C5_15 
REMARK    3  A    between atoms: N4_16  and  N5_18 
REMARK       I    between atoms: N5_18  and  C6_20 
REMARK    4  A    between atoms: C6_20  and  C7_22 
REMARK    5  A    between atoms: C7_22  and  N6_23 
REMARK    6  A    between atoms: C7_22  and  C8_27 
ROOT
HETATM    1  N1  UNL     1      14.613  35.770  13.458  1.00  0.00    -0.234 N 
ATOM      2  H11 UNL     1      15.066  36.525  12.945  1.00  0.00     0.174 HD
ATOM      3  H12 UNL     1      13.750  35.255  13.281  1.00  0.00     0.174 HD
HETATM    4  C1  UNL     1      15.257  35.406  14.529  1.00  0.00     0.682 C 
HETATM    5  N2  UNL     1      14.623  34.350  15.248  1.00  0.00    -0.141 N 
ATOM      6  H2  UNL     1      13.692  34.132  14.891  1.00  0.00     0.189 HD
HETATM    7  C2  UNL     1      15.000  33.524  16.360  1.00  0.00     0.340 C 
HETATM    8  O1  UNL     1      14.030  32.796  16.727  1.00  0.00    -0.246 OA
HETATM    9  N3  UNL     1      16.189  33.348  17.121  1.00  0.00    -0.288 N 
ATOM     10  H3  UNL     1      16.061  32.680  17.881  1.00  0.00     0.172 HD
HETATM   11  C3  UNL     1      17.526  33.876  17.085  1.00  0.00     0.161 C 
HETATM   12  C4  UNL     1      18.135  34.875  16.470  1.00  0.00     0.100 C 
HETATM   13  C9  UNL     1      17.645  35.879  15.537  1.00  0.00     0.275 C 
HETATM   14  O5  UNL     1      18.501  36.792  15.340  1.00  0.00    -0.267 OA
HETATM   15  N8  UNL     1      16.460  36.125  14.775  1.00  0.00    -0.155 N 
ATOM     16  H8  UNL     1      16.483  37.025  14.296  1.00  0.00     0.187 HD
ENDROOT
BRANCH  12  17
HETATM   17  C5  UNL     1      19.539  34.964  16.799  1.00  0.00     0.128 C 
HETATM   18  N4  UNL     1      20.373  34.317  16.026  1.00  0.00    -0.308 N 
ATOM     19  H4  UNL     1      20.003  33.786  15.237  1.00  0.00     0.186 HD
BRANCH  18  20
HETATM   20  N5  UNL     1      21.748  34.329  16.244  1.00  0.00    -0.268 N 
HETATM   21  C6  UNL     1      22.403  33.201  16.797  1.00  0.00     0.275 C 
HETATM   22  O3  UNL     1      21.743  32.184  17.092  1.00  0.00    -0.269 OA
ATOM     23  H5  UNL     1      22.290  35.159  16.003  1.00  0.00     0.190 HD
BRANCH  21  24
HETATM   24  C7  UNL     1      23.876  33.228  17.025  1.00  0.00     0.364 C 
BRANCH  24  25
HETATM   25  N6  UNL     1      24.310  34.577  17.198  1.00  0.00    -0.058 N 
ATOM     26  H63 UNL     1      24.524  35.030  16.309  1.00  0.00     0.275 HD
ATOM     27  H62 UNL     1      23.550  35.190  17.495  1.00  0.00     0.275 HD
ATOM     28  H61 UNL     1      25.099  34.603  17.843  1.00  0.00     0.275 HD
ENDBRANCH  24  25
BRANCH  24  29
HETATM   29  C8  UNL     1      24.181  32.365  18.186  1.00  0.00     0.271 C 
HETATM   30  N7  UNL     1      23.778  32.722  19.516  1.00  0.00    -0.060 NA
HETATM   31  O4  UNL     1      24.809  31.301  17.969  1.00  0.00    -0.274 OA
ENDBRANCH  24  29
ENDBRANCH  21  24
ENDBRANCH  18  20
ENDBRANCH  12  17
BRANCH  11  32
HETATM   32  O2  UNL     1      18.432  33.188  17.886  1.00  0.00    -0.345 OA
ATOM     33  H2  UNL     1      19.130  32.760  17.404  1.00  0.00     0.219 HD
ENDBRANCH  11  32
TORSDOF 6
ENDMDL
MODEL 4
REMARK VINA RESULT: -7.494743172      1.520      7.362
REMARK  6 active torsions:
REMARK  status: ('A' for Active; 'I' for Inactive)
REMARK    1  A    between atoms: C3_11  and  O2_12 
REMARK    2  A    between atoms: C4_14  and  C5_15 
REMARK    3  A    between atoms: N4_16  and  N5_18 
REMARK       I    between atoms: N5_18  and  C6_20 
REMARK    4  A    between atoms: C6_20  and  C7_22 
REMARK    5  A    between atoms: C7_22  and  N6_23 
REMARK    6  A    between atoms: C7_22  and  C8_27 
ROOT
HETATM    1  N1  UNL     1       9.110  36.689  12.630  1.00  0.00    -0.234 N 
ATOM      2  H11 UNL     1       9.313  35.842  12.100  1.00  0.00     0.174 HD
ATOM      3  H12 UNL     1       8.241  37.201  12.779  1.00  0.00     0.174 HD
HETATM    4  C1  UNL     1      10.154  37.202  13.215  1.00  0.00     0.682 C 
HETATM    5  N2  UNL     1       9.871  38.387  13.955  1.00  0.00    -0.141 N 
ATOM      6  H2  UNL     1       8.923  38.731  13.804  1.00  0.00     0.189 HD
HETATM    7  C2  UNL     1      10.621  39.205  14.867  1.00  0.00     0.340 C 
HETATM    8  O1  UNL     1       9.967  40.247  15.175  1.00  0.00    -0.246 OA
HETATM    9  N3  UNL     1      11.899  39.108  15.482  1.00  0.00    -0.288 N 
ATOM     10  H3  UNL     1      12.111  39.925  16.055  1.00  0.00     0.172 HD
HETATM   11  C3  UNL     1      12.967  38.146  15.499  1.00  0.00     0.161 C 
HETATM   12  C4  UNL     1      13.283  37.068  14.802  1.00  0.00     0.100 C 
HETATM   13  C9  UNL     1      12.623  36.411  13.683  1.00  0.00     0.275 C 
HETATM   14  O5  UNL     1      13.360  35.523  13.161  1.00  0.00    -0.267 OA
HETATM   15  N8  UNL     1      11.367  36.488  13.005  1.00  0.00    -0.155 N 
ATOM     16  H8  UNL     1      11.332  35.891  12.179  1.00  0.00     0.187 HD
ENDROOT
BRANCH  12  17
HETATM   17  C5  UNL     1      14.509  36.449  15.252  1.00  0.00     0.128 C 
HETATM   18  N4  UNL     1      15.569  36.614  14.504  1.00  0.00    -0.308 N 
ATOM     19  H4  UNL     1      15.487  37.164  13.648  1.00  0.00     0.186 HD
BRANCH  18  20
HETATM   20  N5  UNL     1      16.805  36.066  14.836  1.00  0.00    -0.268 N 
HETATM   21  C6  UNL     1      17.065  34.689  14.623  1.00  0.00     0.275 C 
HETATM   22  O3  UNL     1      16.181  33.958  14.133  1.00  0.00    -0.269 OA
ATOM     23  H5  UNL     1      17.530  36.661  15.236  1.00  0.00     0.190 HD
BRANCH  21  24
HETATM   24  C7  UNL     1      18.394  34.115  14.984  1.00  0.00     0.364 C 
BRANCH  24  25
HETATM   25  N6  UNL     1      19.307  34.305  13.903  1.00  0.00    -0.058 N 
ATOM     26  H63 UNL     1      19.290  33.526  13.243  1.00  0.00     0.275 HD
ATOM     27  H62 UNL     1      19.003  35.042  13.268  1.00  0.00     0.275 HD
ATOM     28  H61 UNL     1      20.243  34.476  14.271  1.00  0.00     0.275 HD
ENDBRANCH  24  25
BRANCH  24  29
HETATM   29  C8  UNL     1      18.843  34.745  16.243  1.00  0.00     0.271 C 
HETATM   30  N7  UNL     1      18.807  34.039  17.492  1.00  0.00    -0.060 NA
HETATM   31  O4  UNL     1      19.262  35.927  16.185  1.00  0.00    -0.274 OA
ENDBRANCH  24  29
ENDBRANCH  21  24
ENDBRANCH  18  20
ENDBRANCH  12  17
BRANCH  11  32
HETATM   32  O2  UNL     1      13.925  38.374  16.481  1.00  0.00    -0.345 OA
ATOM     33  H2  UNL     1      13.867  37.786  17.225  1.00  0.00     0.219 HD
ENDBRANCH  11  32
TORSDOF 6
ENDMDL
MODEL 5
REMARK VINA RESULT: -7.466309069      1.295      1.649
REMARK  6 active torsions:
REMARK  status: ('A' for Active; 'I' for Inactive)
REMARK    1  A    between atoms: C3_11  and  O2_12 
REMARK    2  A    between atoms: C4_14  and  C5_15 
REMARK    3  A    between atoms: N4_16  and  N5_18 
REMARK       I    between atoms: N5_18  and  C6_20 
REMARK    4  A    between atoms: C6_20  and  C7_22 
REMARK    5  A    between atoms: C7_22  and  N6_23 
REMARK    6  A    between atoms: C7_22  and  C8_27 
ROOT
HETATM    1  N1  UNL     1      19.525  34.266  13.704  1.00  0.00    -0.234 N 
ATOM      2  H11 UNL     1      19.168  34.048  12.775  1.00  0.00     0.174 HD
ATOM      3  H12 UNL     1      20.477  34.356  14.060  1.00  0.00     0.174 HD
HETATM    4  C1  UNL     1      18.590  34.463  14.589  1.00  0.00     0.682 C 
HETATM    5  N2  UNL     1      19.089  34.768  15.890  1.00  0.00    -0.141 N 
ATOM      6  H2  UNL     1      20.099  34.652  15.964  1.00  0.00     0.189 HD
HETATM    7  C2  UNL     1      18.487  35.203  17.119  1.00  0.00     0.340 C 
HETATM    8  O1  UNL     1      19.342  35.219  18.056  1.00  0.00    -0.246 OA
HETATM    9  N3  UNL     1      17.181  35.609  17.508  1.00  0.00    -0.288 N 
ATOM     10  H3  UNL     1      17.125  35.815  18.506  1.00  0.00     0.172 HD
HETATM   11  C3  UNL     1      15.919  35.802  16.846  1.00  0.00     0.161 C 
HETATM   12  C4  UNL     1      15.411  35.494  15.666  1.00  0.00     0.100 C 
HETATM   13  C9  UNL     1      15.978  34.797  14.520  1.00  0.00     0.275 C 
HETATM   14  O5  UNL     1      15.094  34.517  13.657  1.00  0.00    -0.267 OA
HETATM   15  N8  UNL     1      17.263  34.337  14.093  1.00  0.00    -0.155 N 
ATOM     16  H8  UNL     1      17.217  33.792  13.232  1.00  0.00     0.187 HD
ENDROOT
BRANCH  12  17
HETATM   17  C5  UNL     1      14.046  35.940  15.509  1.00  0.00     0.128 C 
HETATM   18  N4  UNL     1      13.849  37.007  14.778  1.00  0.00    -0.308 N 
ATOM     19  H4  UNL     1      14.654  37.471  14.357  1.00  0.00     0.186 HD
BRANCH  18  20
HETATM   20  N5  UNL     1      12.578  37.530  14.555  1.00  0.00    -0.268 N 
HETATM   21  C6  UNL     1      12.107  38.631  15.313  1.00  0.00     0.275 C 
HETATM   22  O3  UNL     1      12.835  39.139  16.189  1.00  0.00    -0.269 OA
ATOM     23  H5  UNL     1      11.981  37.117  13.839  1.00  0.00     0.190 HD
BRANCH  21  24
HETATM   24  C7  UNL     1      10.743  39.181  15.064  1.00  0.00     0.364 C 
BRANCH  24  25
HETATM   25  N6  UNL     1      10.831  40.582  14.802  1.00  0.00    -0.058 N 
ATOM     26  H63 UNL     1      10.014  41.089  15.142  1.00  0.00     0.275 HD
ATOM     27  H62 UNL     1      11.538  41.037  15.379  1.00  0.00     0.275 HD
ATOM     28  H61 UNL     1      10.992  40.734  13.806  1.00  0.00     0.275 HD
ENDBRANCH  24  25
BRANCH  24  29
HETATM   29  C8  UNL     1      10.132  38.419  13.955  1.00  0.00     0.271 C 
HETATM   30  N7  UNL     1       9.320  37.260  14.196  1.00  0.00    -0.060 NA
HETATM   31  O4  UNL     1      10.348  38.820  12.786  1.00  0.00    -0.274 OA
ENDBRANCH  24  29
ENDBRANCH  21  24
ENDBRANCH  18  20
ENDBRANCH  12  17
BRANCH  11  32
HETATM   32  O2  UNL     1      14.973  36.480  17.608  1.00  0.00    -0.345 OA
ATOM     33  H2  UNL     1      15.286  36.758  18.460  1.00  0.00     0.219 HD
ENDBRANCH  11  32
TORSDOF 6
ENDMDL
