MODEL 1
REMARK VINA RESULT: -6.917598078      0.000      0.000
REMARK  10 active torsions:
REMARK  status: ('A' for Active; 'I' for Inactive)
REMARK    1  A    between atoms: N1_2  and  C4_5 
REMARK    2  A    between atoms: C4_5  and  C5_6 
REMARK    3  A    between atoms: C5_6  and  N4_17 
REMARK       I    between atoms: N2_7  and  C6_9 
REMARK       I    between atoms: C6_9  and  N3_11 
REMARK    4  A    between atoms: N3_11  and  C7_13 
REMARK    5  A    between atoms: C7_13  and  C8_14 
REMARK    6  A    between atoms: N4_17  and  C10_19 
REMARK    7  A    between atoms: C10_19  and  C11_20 
REMARK    8  A    between atoms: C11_20  and  C12_21 
REMARK    9  A    between atoms: C12_21  and  C13_22 
REMARK   10  A    between atoms: C13_22  and  N6_26 
ROOT
HETATM    1  C5  UNL     1      12.588 -12.796  14.907  1.00  0.00     0.107 C 
HETATM    2  N2  UNL     1      13.429 -13.141  14.023  1.00  0.00    -0.297 N 
ATOM      3  H2  UNL     1      13.136 -13.641  13.183  1.00  0.00     0.172 HD
HETATM    4  C6  UNL     1      14.820 -12.802  14.246  1.00  0.00     0.321 C 
HETATM    5  O1  UNL     1      15.538 -13.522  14.982  1.00  0.00    -0.247 OA
HETATM    6  N3  UNL     1      15.389 -11.661  13.643  1.00  0.00    -0.339 N 
ATOM      7  H3  UNL     1      14.812 -11.069  13.046  1.00  0.00     0.164 HD
ENDROOT
BRANCH   1   8
HETATM    8  C4  UNL     1      13.014 -12.085  16.100  1.00  0.00     0.311 C 
BRANCH   8   9
HETATM    9  N1  UNL     1      12.937 -12.812  17.335  1.00  0.00    -0.072 N 
HETATM   10  C1  UNL     1      14.125 -12.429  18.100  1.00  0.00     0.272 C 
HETATM   11  C2  UNL     1      11.797 -12.382  18.148  1.00  0.00     0.272 C 
HETATM   12  C3  UNL     1      12.920 -14.222  17.255  1.00  0.00     0.272 C 
ENDBRANCH   8   9
ENDBRANCH   1   8
BRANCH   1  13
HETATM   13  N4  UNL     1      11.227 -13.117  14.682  1.00  0.00    -0.378 N 
ATOM     14  H4  UNL     1      11.017 -14.075  14.406  1.00  0.00     0.160 HD
BRANCH  13  15
HETATM   15  C10 UNL     1      10.116 -12.216  14.806  1.00  0.00     0.121 C 
BRANCH  15  16
HETATM   16  C11 UNL     1       8.938 -12.766  15.564  1.00  0.00     0.027 C 
BRANCH  16  17
HETATM   17  C12 UNL     1       7.809 -13.005  14.548  1.00  0.00     0.077 C 
BRANCH  17  18
HETATM   18  C13 UNL     1       7.990 -14.275  13.838  1.00  0.00     0.073 C 
HETATM   19  N5  UNL     1       8.147 -15.363  14.500  1.00  0.00    -0.389 N 
ATOM     20  H52 UNL     1       8.138 -15.297  15.518  1.00  0.00     0.157 HD
ATOM     21  H51 UNL     1       8.273 -16.247  14.006  1.00  0.00     0.157 HD
BRANCH  18  22
HETATM   22  N6  UNL     1       8.002 -14.369  12.405  1.00  0.00    -0.365 N 
HETATM   23  C14 UNL     1       8.505 -13.293  11.578  1.00  0.00     0.168 C 
HETATM   24  C15 UNL     1       7.463 -12.927  10.596  1.00  0.00     0.075 C 
HETATM   25  N7  UNL     1       6.617 -13.911  10.088  1.00  0.00    -0.399 N 
HETATM   26  C16 UNL     1       6.827 -15.261  10.442  1.00  0.00     0.138 C 
ATOM     27  H7  UNL     1       5.850 -13.657   9.465  1.00  0.00     0.158 HD
HETATM   28  C17 UNL     1       7.520 -15.533  11.719  1.00  0.00     0.144 C 
ENDBRANCH  18  22
ENDBRANCH  17  18
ENDBRANCH  16  17
ENDBRANCH  15  16
ENDBRANCH  13  15
ENDBRANCH   1  13
BRANCH   6  29
HETATM   29  C7  UNL     1      16.764 -11.319  13.853  1.00  0.00     0.152 C 
BRANCH  29  30
HETATM   30  C8  UNL     1      17.184 -10.277  12.902  1.00  0.00     0.000 C 
HETATM   31  C9  UNL     1      16.286  -9.482  12.359  1.00  0.00     0.053 C 
HETATM   32 BR1  UNL     1      16.794  -8.118  11.122  1.00  0.00    -0.064 Br
ENDBRANCH  29  30
ENDBRANCH   6  29
TORSDOF 10
ENDMDL
MODEL 2
REMARK VINA RESULT: -6.867765597      3.324      7.913
REMARK  10 active torsions:
REMARK  status: ('A' for Active; 'I' for Inactive)
REMARK    1  A    between atoms: N1_2  and  C4_5 
REMARK    2  A    between atoms: C4_5  and  C5_6 
REMARK    3  A    between atoms: C5_6  and  N4_17 
REMARK       I    between atoms: N2_7  and  C6_9 
REMARK       I    between atoms: C6_9  and  N3_11 
REMARK    4  A    between atoms: N3_11  and  C7_13 
REMARK    5  A    between atoms: C7_13  and  C8_14 
REMARK    6  A    between atoms: N4_17  and  C10_19 
REMARK    7  A    between atoms: C10_19  and  C11_20 
REMARK    8  A    between atoms: C11_20  and  C12_21 
REMARK    9  A    between atoms: C12_21  and  C13_22 
REMARK   10  A    between atoms: C13_22  and  N6_26 
ROOT
HETATM    1  C5  UNL     1      12.035 -14.381  14.196  1.00  0.00     0.107 C 
HETATM    2  N2  UNL     1      11.203 -13.618  14.772  1.00  0.00    -0.297 N 
ATOM      3  H2  UNL     1      11.514 -12.811  15.313  1.00  0.00     0.172 HD
HETATM    4  C6  UNL     1       9.794 -13.931  14.637  1.00  0.00     0.321 C 
HETATM    5  O1  UNL     1       9.265 -14.800  15.372  1.00  0.00    -0.247 OA
HETATM    6  N3  UNL     1       8.997 -13.269  13.680  1.00  0.00    -0.339 N 
ATOM      7  H3  UNL     1       9.421 -12.563  13.077  1.00  0.00     0.164 HD
ENDROOT
BRANCH   1   8
HETATM    8  C4  UNL     1      11.583 -15.529  13.428  1.00  0.00     0.311 C 
BRANCH   8   9
HETATM    9  N1  UNL     1      11.895 -16.820  13.971  1.00  0.00    -0.072 N 
HETATM   10  C1  UNL     1      10.790 -17.697  13.579  1.00  0.00     0.272 C 
HETATM   11  C2  UNL     1      13.087 -17.399  13.349  1.00  0.00     0.272 C 
HETATM   12  C3  UNL     1      12.034 -16.915  15.374  1.00  0.00     0.272 C 
ENDBRANCH   8   9
ENDBRANCH   1   8
BRANCH   1  13
HETATM   13  N4  UNL     1      13.411 -14.068  14.318  1.00  0.00    -0.378 N 
ATOM     14  H4  UNL     1      13.953 -14.020  13.456  1.00  0.00     0.160 HD
BRANCH  13  15
HETATM   15  C10 UNL     1      14.112 -13.810  15.545  1.00  0.00     0.121 C 
BRANCH  15  16
HETATM   16  C11 UNL     1      14.247 -12.354  15.901  1.00  0.00     0.027 C 
BRANCH  16  17
HETATM   17  C12 UNL     1      15.747 -12.016  15.886  1.00  0.00     0.077 C 
BRANCH  17  18
HETATM   18  C13 UNL     1      16.020 -10.835  15.061  1.00  0.00     0.073 C 
HETATM   19  N5  UNL     1      16.076  -9.673  15.603  1.00  0.00    -0.389 N 
ATOM     20  H52 UNL     1      15.926  -9.620  16.610  1.00  0.00     0.157 HD
ATOM     21  H51 UNL     1      16.265  -8.851  15.029  1.00  0.00     0.157 HD
BRANCH  18  22
HETATM   22  N6  UNL     1      16.232 -10.910  13.643  1.00  0.00    -0.365 N 
HETATM   23  C14 UNL     1      16.623 -12.146  12.998  1.00  0.00     0.168 C 
HETATM   24  C15 UNL     1      17.848 -11.899  12.209  1.00  0.00     0.075 C 
HETATM   25  N7  UNL     1      18.039 -10.660  11.601  1.00  0.00    -0.399 N 
HETATM   26  C16 UNL     1      17.017  -9.689  11.663  1.00  0.00     0.138 C 
ATOM     27  H7  UNL     1      18.912 -10.457  11.115  1.00  0.00     0.158 HD
HETATM   28  C17 UNL     1      16.065  -9.768  12.791  1.00  0.00     0.144 C 
ENDBRANCH  18  22
ENDBRANCH  17  18
ENDBRANCH  16  17
ENDBRANCH  15  16
ENDBRANCH  13  15
ENDBRANCH   1  13
BRANCH   6  29
HETATM   29  C7  UNL     1       7.604 -13.567  13.541  1.00  0.00     0.152 C 
BRANCH  29  30
HETATM   30  C8  UNL     1       7.221 -13.576  12.120  1.00  0.00     0.000 C 
HETATM   31  C9  UNL     1       8.058 -13.120  11.211  1.00  0.00     0.053 C 
HETATM   32 BR1  UNL     1       7.595 -13.116   9.356  1.00  0.00    -0.064 Br
ENDBRANCH  29  30
ENDBRANCH   6  29
TORSDOF 10
ENDMDL
MODEL 3
REMARK VINA RESULT: -6.804584202      1.415      1.793
REMARK  10 active torsions:
REMARK  status: ('A' for Active; 'I' for Inactive)
REMARK    1  A    between atoms: N1_2  and  C4_5 
REMARK    2  A    between atoms: C4_5  and  C5_6 
REMARK    3  A    between atoms: C5_6  and  N4_17 
REMARK       I    between atoms: N2_7  and  C6_9 
REMARK       I    between atoms: C6_9  and  N3_11 
REMARK    4  A    between atoms: N3_11  and  C7_13 
REMARK    5  A    between atoms: C7_13  and  C8_14 
REMARK    6  A    between atoms: N4_17  and  C10_19 
REMARK    7  A    between atoms: C10_19  and  C11_20 
REMARK    8  A    between atoms: C11_20  and  C12_21 
REMARK    9  A    between atoms: C12_21  and  C13_22 
REMARK   10  A    between atoms: C13_22  and  N6_26 
ROOT
HETATM    1  C5  UNL     1      11.513 -12.376  16.115  1.00  0.00     0.107 C 
HETATM    2  N2  UNL     1      11.736 -11.662  15.091  1.00  0.00    -0.297 N 
ATOM      3  H2  UNL     1      11.004 -11.078  14.685  1.00  0.00     0.172 HD
HETATM    4  C6  UNL     1      13.066 -11.702  14.516  1.00  0.00     0.321 C 
HETATM    5  O1  UNL     1      13.393 -12.634  13.741  1.00  0.00    -0.247 OA
HETATM    6  N3  UNL     1      14.012 -10.701  14.817  1.00  0.00    -0.339 N 
ATOM      7  H3  UNL     1      13.755  -9.942  15.449  1.00  0.00     0.164 HD
ENDROOT
BRANCH   1   8
HETATM    8  C4  UNL     1      12.562 -13.204  16.685  1.00  0.00     0.311 C 
BRANCH   8   9
HETATM    9  N1  UNL     1      13.060 -12.805  17.970  1.00  0.00    -0.072 N 
HETATM   10  C1  UNL     1      13.138 -14.031  18.768  1.00  0.00     0.272 C 
HETATM   11  C2  UNL     1      14.435 -12.308  17.890  1.00  0.00     0.272 C 
HETATM   12  C3  UNL     1      12.290 -11.872  18.700  1.00  0.00     0.272 C 
ENDBRANCH   8   9
ENDBRANCH   1   8
BRANCH   1  13
HETATM   13  N4  UNL     1      10.217 -12.326  16.683  1.00  0.00    -0.378 N 
ATOM     14  H4  UNL     1       9.951 -11.462  17.154  1.00  0.00     0.160 HD
BRANCH  13  15
HETATM   15  C10 UNL     1       9.243 -13.381  16.658  1.00  0.00     0.121 C 
BRANCH  15  16
HETATM   16  C11 UNL     1       8.453 -13.481  15.381  1.00  0.00     0.027 C 
BRANCH  16  17
HETATM   17  C12 UNL     1       8.921 -14.750  14.650  1.00  0.00     0.077 C 
BRANCH  17  18
HETATM   18  C13 UNL     1       9.384 -14.445  13.293  1.00  0.00     0.073 C 
HETATM   19  N5  UNL     1      10.606 -14.109  13.092  1.00  0.00    -0.389 N 
ATOM     20  H52 UNL     1      11.219 -14.069  13.906  1.00  0.00     0.157 HD
ATOM     21  H51 UNL     1      10.928 -13.897  12.148  1.00  0.00     0.157 HD
BRANCH  18  22
HETATM   22  N6  UNL     1       8.521 -14.502  12.146  1.00  0.00    -0.365 N 
HETATM   23  C14 UNL     1       8.768 -13.696  10.969  1.00  0.00     0.168 C 
HETATM   24  C15 UNL     1       7.546 -12.922  10.664  1.00  0.00     0.075 C 
HETATM   25  N7  UNL     1       6.295 -13.474  10.928  1.00  0.00    -0.399 N 
HETATM   26  C16 UNL     1       6.204 -14.805  11.391  1.00  0.00     0.138 C 
ATOM     27  H7  UNL     1       5.450 -12.922  10.787  1.00  0.00     0.158 HD
HETATM   28  C17 UNL     1       7.372 -15.360  12.106  1.00  0.00     0.144 C 
ENDBRANCH  18  22
ENDBRANCH  17  18
ENDBRANCH  16  17
ENDBRANCH  15  16
ENDBRANCH  13  15
ENDBRANCH   1  13
BRANCH   6  29
HETATM   29  C7  UNL     1      15.327 -10.729  14.251  1.00  0.00     0.152 C 
BRANCH  29  30
HETATM   30  C8  UNL     1      15.524  -9.578  13.356  1.00  0.00     0.000 C 
HETATM   31  C9  UNL     1      16.388  -9.656  12.364  1.00  0.00     0.053 C 
HETATM   32 BR1  UNL     1      16.670  -8.182  11.181  1.00  0.00    -0.064 Br
ENDBRANCH  29  30
ENDBRANCH   6  29
TORSDOF 10
ENDMDL
MODEL 4
REMARK VINA RESULT: -6.755223218      3.580      8.030
REMARK  10 active torsions:
REMARK  status: ('A' for Active; 'I' for Inactive)
REMARK    1  A    between atoms: N1_2  and  C4_5 
REMARK    2  A    between atoms: C4_5  and  C5_6 
REMARK    3  A    between atoms: C5_6  and  N4_17 
REMARK       I    between atoms: N2_7  and  C6_9 
REMARK       I    between atoms: C6_9  and  N3_11 
REMARK    4  A    between atoms: N3_11  and  C7_13 
REMARK    5  A    between atoms: C7_13  and  C8_14 
REMARK    6  A    between atoms: N4_17  and  C10_19 
REMARK    7  A    between atoms: C10_19  and  C11_20 
REMARK    8  A    between atoms: C11_20  and  C12_21 
REMARK    9  A    between atoms: C12_21  and  C13_22 
REMARK   10  A    between atoms: C13_22  and  N6_26 
ROOT
HETATM    1  C5  UNL     1      11.749 -13.871  13.716  1.00  0.00     0.107 C 
HETATM    2  N2  UNL     1      11.458 -14.094  12.502  1.00  0.00    -0.297 N 
ATOM      3  H2  UNL     1      12.120 -13.886  11.754  1.00  0.00     0.172 HD
HETATM    4  C6  UNL     1      10.153 -14.655  12.213  1.00  0.00     0.321 C 
HETATM    5  O1  UNL     1       9.143 -13.912  12.153  1.00  0.00    -0.247 OA
HETATM    6  N3  UNL     1       9.996 -16.040  11.996  1.00  0.00    -0.339 N 
ATOM      7  H3  UNL     1      10.812 -16.651  12.046  1.00  0.00     0.164 HD
ENDROOT
BRANCH   1   8
HETATM    8  C4  UNL     1      10.801 -14.171  14.774  1.00  0.00     0.311 C 
BRANCH   8   9
HETATM    9  N1  UNL     1      10.181 -13.044  15.411  1.00  0.00    -0.072 N 
HETATM   10  C1  UNL     1       8.752 -13.356  15.475  1.00  0.00     0.272 C 
HETATM   11  C2  UNL     1      10.609 -12.903  16.804  1.00  0.00     0.272 C 
HETATM   12  C3  UNL     1      10.313 -11.789  14.774  1.00  0.00     0.272 C 
ENDBRANCH   8   9
ENDBRANCH   1   8
BRANCH   1  13
HETATM   13  N4  UNL     1      13.029 -13.335  13.998  1.00  0.00    -0.378 N 
ATOM     14  H4  UNL     1      13.441 -12.724  13.293  1.00  0.00     0.160 HD
BRANCH  13  15
HETATM   15  C10 UNL     1      13.801 -13.573  15.185  1.00  0.00     0.121 C 
BRANCH  15  16
HETATM   16  C11 UNL     1      14.139 -12.338  15.977  1.00  0.00     0.027 C 
BRANCH  16  17
HETATM   17  C12 UNL     1      15.656 -12.117  15.858  1.00  0.00     0.077 C 
BRANCH  17  18
HETATM   18  C13 UNL     1      15.960 -10.918  15.071  1.00  0.00     0.073 C 
HETATM   19  N5  UNL     1      16.018  -9.772  15.646  1.00  0.00    -0.389 N 
ATOM     20  H52 UNL     1      15.846  -9.744  16.651  1.00  0.00     0.157 HD
ATOM     21  H51 UNL     1      16.230  -8.937  15.098  1.00  0.00     0.157 HD
BRANCH  18  22
HETATM   22  N6  UNL     1      16.203 -10.958  13.656  1.00  0.00    -0.365 N 
HETATM   23  C14 UNL     1      16.601 -12.179  12.989  1.00  0.00     0.168 C 
HETATM   24  C15 UNL     1      17.844 -11.919  12.233  1.00  0.00     0.075 C 
HETATM   25  N7  UNL     1      18.055 -10.665  11.662  1.00  0.00    -0.399 N 
HETATM   26  C16 UNL     1      17.037  -9.690  11.726  1.00  0.00     0.138 C 
ATOM     27  H7  UNL     1      18.939 -10.454  11.200  1.00  0.00     0.158 HD
HETATM   28  C17 UNL     1      16.061  -9.793  12.831  1.00  0.00     0.144 C 
ENDBRANCH  18  22
ENDBRANCH  17  18
ENDBRANCH  16  17
ENDBRANCH  15  16
ENDBRANCH  13  15
ENDBRANCH   1  13
BRANCH   6  29
HETATM   29  C7  UNL     1       8.712 -16.603  11.706  1.00  0.00     0.152 C 
BRANCH  29  30
HETATM   30  C8  UNL     1       8.707 -17.199  10.360  1.00  0.00     0.000 C 
HETATM   31  C9  UNL     1       9.586 -18.129  10.049  1.00  0.00     0.053 C 
HETATM   32 BR1  UNL     1       9.608 -18.926   8.312  1.00  0.00    -0.064 Br
ENDBRANCH  29  30
ENDBRANCH   6  29
TORSDOF 10
ENDMDL
MODEL 5
REMARK VINA RESULT: -6.726851248      3.041      7.726
REMARK  10 active torsions:
REMARK  status: ('A' for Active; 'I' for Inactive)
REMARK    1  A    between atoms: N1_2  and  C4_5 
REMARK    2  A    between atoms: C4_5  and  C5_6 
REMARK    3  A    between atoms: C5_6  and  N4_17 
REMARK       I    between atoms: N2_7  and  C6_9 
REMARK       I    between atoms: C6_9  and  N3_11 
REMARK    4  A    between atoms: N3_11  and  C7_13 
REMARK    5  A    between atoms: C7_13  and  C8_14 
REMARK    6  A    between atoms: N4_17  and  C10_19 
REMARK    7  A    between atoms: C10_19  and  C11_20 
REMARK    8  A    between atoms: C11_20  and  C12_21 
REMARK    9  A    between atoms: C12_21  and  C13_22 
REMARK   10  A    between atoms: C13_22  and  N6_26 
ROOT
HETATM    1  C5  UNL     1      11.480 -12.837  16.347  1.00  0.00     0.107 C 
HETATM    2  N2  UNL     1      10.357 -12.267  16.199  1.00  0.00    -0.297 N 
ATOM      3  H2  UNL     1      10.233 -11.280  16.423  1.00  0.00     0.172 HD
HETATM    4  C6  UNL     1       9.255 -13.066  15.701  1.00  0.00     0.321 C 
HETATM    5  O1  UNL     1       8.601 -13.800  16.482  1.00  0.00    -0.247 OA
HETATM    6  N3  UNL     1       8.901 -13.035  14.336  1.00  0.00    -0.339 N 
ATOM      7  H3  UNL     1       9.430 -12.444  13.695  1.00  0.00     0.164 HD
ENDROOT
BRANCH   1   8
HETATM    8  C4  UNL     1      11.647 -14.244  16.027  1.00  0.00     0.311 C 
BRANCH   8   9
HETATM    9  N1  UNL     1      12.282 -14.540  14.775  1.00  0.00    -0.072 N 
HETATM   10  C1  UNL     1      11.445 -15.556  14.132  1.00  0.00     0.272 C 
HETATM   11  C2  UNL     1      12.260 -13.391  13.868  1.00  0.00     0.272 C 
HETATM   12  C3  UNL     1      13.600 -15.045  14.822  1.00  0.00     0.272 C 
ENDBRANCH   8   9
ENDBRANCH   1   8
BRANCH   1  13
HETATM   13  N4  UNL     1      12.559 -12.052  16.822  1.00  0.00    -0.378 N 
ATOM     14  H4  UNL     1      12.457 -11.040  16.761  1.00  0.00     0.160 HD
BRANCH  13  15
HETATM   15  C10 UNL     1      13.783 -12.551  17.383  1.00  0.00     0.121 C 
BRANCH  15  16
HETATM   16  C11 UNL     1      15.030 -12.126  16.655  1.00  0.00     0.027 C 
BRANCH  16  17
HETATM   17  C12 UNL     1      14.591 -11.489  15.326  1.00  0.00     0.077 C 
BRANCH  17  18
HETATM   18  C13 UNL     1      15.647 -10.640  14.766  1.00  0.00     0.073 C 
HETATM   19  N5  UNL     1      16.229  -9.768  15.506  1.00  0.00    -0.389 N 
ATOM     20  H52 UNL     1      15.924  -9.702  16.478  1.00  0.00     0.157 HD
ATOM     21  H51 UNL     1      16.963  -9.177  15.116  1.00  0.00     0.157 HD
BRANCH  18  22
HETATM   22  N6  UNL     1      16.075 -10.733  13.399  1.00  0.00    -0.365 N 
HETATM   23  C14 UNL     1      16.512 -11.989  12.824  1.00  0.00     0.168 C 
HETATM   24  C15 UNL     1      17.854 -11.796  12.237  1.00  0.00     0.075 C 
HETATM   25  N7  UNL     1      18.189 -10.570  11.666  1.00  0.00    -0.399 N 
HETATM   26  C16 UNL     1      17.210  -9.558  11.566  1.00  0.00     0.138 C 
ATOM     27  H7  UNL     1      19.135 -10.405  11.322  1.00  0.00     0.158 HD
HETATM   28  C17 UNL     1      16.091  -9.591  12.531  1.00  0.00     0.144 C 
ENDBRANCH  18  22
ENDBRANCH  17  18
ENDBRANCH  16  17
ENDBRANCH  15  16
ENDBRANCH  13  15
ENDBRANCH   1  13
BRANCH   6  29
HETATM   29  C7  UNL     1       7.812 -13.817  13.835  1.00  0.00     0.152 C 
BRANCH  29  30
HETATM   30  C8  UNL     1       7.923 -13.974  12.375  1.00  0.00     0.000 C 
HETATM   31  C9  UNL     1       7.531 -13.002  11.578  1.00  0.00     0.053 C 
HETATM   32 BR1  UNL     1       7.660 -13.170   9.679  1.00  0.00    -0.064 Br
ENDBRANCH  29  30
ENDBRANCH   6  29
TORSDOF 10
ENDMDL
