MODEL 1
REMARK VINA RESULT: -6.958286992      0.000      0.000
REMARK  18 active torsions:
REMARK  status: ('A' for Active; 'I' for Inactive)
REMARK    1  A    between atoms: C2_2  and  C3_3 
REMARK    2  A    between atoms: C3_3  and  C4_4 
REMARK    3  A    between atoms: C4_4  and  N1_5 
REMARK       I    between atoms: N1_5  and  C5_7 
REMARK    4  A    between atoms: C5_7  and  C6_9 
REMARK    5  A    between atoms: C6_9  and  N2_10 
REMARK    6  A    between atoms: C9_16  and  C10_17 
REMARK    7  A    between atoms: C10_17  and  C11_18 
REMARK    8  A    between atoms: C11_18  and  C12_19 
REMARK    9  A    between atoms: C12_19  and  C13_20 
REMARK   10  A    between atoms: C13_20  and  S1_21 
REMARK   11  A    between atoms: S1_21  and  N4_22 
REMARK   12  A    between atoms: S1_21  and  N5_26 
REMARK       I    between atoms: N5_26  and  C14_28 
REMARK   13  A    between atoms: C14_28  and  C15_30 
REMARK   14  A    between atoms: C15_30  and  C16_31 
REMARK   15  A    between atoms: C16_31  and  C17_32 
REMARK   16  A    between atoms: C17_32  and  N6_33 
REMARK   17  A    between atoms: C18_35  and  N7_37 
REMARK   18  A    between atoms: N7_37  and  N8_39 
ROOT
HETATM    1  C13 UNL     1      13.106 -13.574  17.187  1.00  0.00     0.139 C 
ENDROOT
BRANCH   1   2
HETATM    2  C12 UNL     1      14.254 -13.898  18.070  1.00  0.00     0.015 C 
BRANCH   2   3
HETATM    3  C11 UNL     1      14.271 -15.335  18.499  1.00  0.00     0.004 C 
BRANCH   3   4
HETATM    4  C10 UNL     1      15.387 -16.021  17.759  1.00  0.00     0.035 C 
BRANCH   4   5
HETATM    5  C9  UNL     1      14.944 -17.160  16.876  1.00  0.00     0.176 C 
HETATM    6  N3  UNL     1      15.852 -18.287  16.934  1.00  0.00    -0.346 N 
HETATM    7  C8  UNL     1      16.994 -18.295  16.099  1.00  0.00     0.236 C 
ATOM      8  H3  UNL     1      15.670 -19.065  17.569  1.00  0.00     0.163 HD
HETATM    9  C7  UNL     1      17.455 -17.093  15.403  1.00  0.00     0.229 C 
HETATM   10  O2  UNL     1      17.638 -19.396  15.957  1.00  0.00    -0.272 OA
HETATM   11  N2  UNL     1      16.313 -16.283  14.943  1.00  0.00    -0.333 N 
HETATM   12  C22 UNL     1      15.044 -16.605  15.465  1.00  0.00     0.243 C 
HETATM   13  O5  UNL     1      14.004 -16.444  14.795  1.00  0.00    -0.271 OA
BRANCH  11  14
HETATM   14  C6  UNL     1      16.533 -15.216  14.006  1.00  0.00     0.229 C 
BRANCH  14  15
HETATM   15  C5  UNL     1      16.239 -13.876  14.585  1.00  0.00     0.239 C 
HETATM   16  N1  UNL     1      15.301 -13.040  13.961  1.00  0.00    -0.336 N 
ATOM     17  H1  UNL     1      14.849 -13.372  13.109  1.00  0.00     0.168 HD
HETATM   18  O1  UNL     1      16.892 -13.604  15.633  1.00  0.00    -0.271 OA
BRANCH  16  19
HETATM   19  C4  UNL     1      14.949 -11.759  14.453  1.00  0.00     0.087 C 
BRANCH  19  20
HETATM   20  C3  UNL     1      15.560 -10.533  13.936  1.00  0.00    -0.010 C 
BRANCH  20  21
HETATM   21  C2  UNL     1      17.002 -10.316  13.855  1.00  0.00     0.024 C 
HETATM   22  C1  UNL     1      17.374 -10.483  12.349  1.00  0.00     0.009 C 
ENDBRANCH  20  21
ENDBRANCH  19  20
ENDBRANCH  16  19
ENDBRANCH  14  15
ENDBRANCH  11  14
ENDBRANCH   4   5
ENDBRANCH   3   4
ENDBRANCH   2   3
ENDBRANCH   1   2
BRANCH   1  23
HETATM   23  S1  UNL     1      11.990 -12.465  18.030  1.00  0.00     0.106 S 
HETATM   24  O3  UNL     1      12.440 -11.072  17.946  1.00  0.00    -0.229 OA
BRANCH  23  25
HETATM   25  N4  UNL     1      12.054 -12.884  19.544  1.00  0.00    -0.345 N 
ATOM     26  H42 UNL     1      12.896 -12.998  20.109  1.00  0.00     0.167 HD
ATOM     27  H41 UNL     1      11.083 -13.015  19.828  1.00  0.00     0.167 HD
ENDBRANCH  23  25
BRANCH  23  28
HETATM   28  N5  UNL     1      10.431 -12.772  17.387  1.00  0.00    -0.271 N 
HETATM   29  C14 UNL     1       9.275 -12.570  18.160  1.00  0.00     0.229 C 
HETATM   30  O4  UNL     1       9.345 -12.163  19.364  1.00  0.00    -0.273 OA
ATOM     31  H5  UNL     1      10.341 -13.106  16.428  1.00  0.00     0.180 HD
BRANCH  29  32
HETATM   32  C15 UNL     1       7.968 -12.841  17.545  1.00  0.00     0.105 C 
BRANCH  32  33
HETATM   33  C16 UNL     1       8.037 -13.880  16.494  1.00  0.00     0.029 C 
BRANCH  33  34
HETATM   34  C17 UNL     1       7.681 -13.328  15.145  1.00  0.00     0.124 C 
BRANCH  34  35
HETATM   35  N6  UNL     1       7.405 -14.326  14.174  1.00  0.00    -0.351 N 
HETATM   36  C18 UNL     1       8.200 -14.642  13.240  1.00  0.00     0.281 C 
HETATM   37  F1  UNL     1       7.812 -15.616  12.382  1.00  0.00    -0.164 F 
ATOM     38  H6  UNL     1       6.514 -14.817  14.232  1.00  0.00     0.163 HD
BRANCH  36  39
HETATM   39  N7  UNL     1       9.453 -14.001  13.103  1.00  0.00    -0.177 N 
ATOM     40  H7  UNL     1       9.494 -13.006  12.883  1.00  0.00     0.198 HD
BRANCH  39  41
HETATM   41  N8  UNL     1      10.631 -14.727  13.268  1.00  0.00     0.003 N 
HETATM   42  C19 UNL     1      11.673 -13.802  13.706  1.00  0.00     0.301 C 
HETATM   43  C20 UNL     1      10.991 -15.341  12.010  1.00  0.00     0.301 C 
HETATM   44  C21 UNL     1      10.513 -15.712  14.331  1.00  0.00     0.301 C 
ENDBRANCH  39  41
ENDBRANCH  36  39
ENDBRANCH  34  35
ENDBRANCH  33  34
ENDBRANCH  32  33
ENDBRANCH  29  32
ENDBRANCH  23  28
ENDBRANCH   1  23
TORSDOF 18
ENDMDL
MODEL 2
REMARK VINA RESULT: -6.948971232      5.366      8.937
REMARK  18 active torsions:
REMARK  status: ('A' for Active; 'I' for Inactive)
REMARK    1  A    between atoms: C2_2  and  C3_3 
REMARK    2  A    between atoms: C3_3  and  C4_4 
REMARK    3  A    between atoms: C4_4  and  N1_5 
REMARK       I    between atoms: N1_5  and  C5_7 
REMARK    4  A    between atoms: C5_7  and  C6_9 
REMARK    5  A    between atoms: C6_9  and  N2_10 
REMARK    6  A    between atoms: C9_16  and  C10_17 
REMARK    7  A    between atoms: C10_17  and  C11_18 
REMARK    8  A    between atoms: C11_18  and  C12_19 
REMARK    9  A    between atoms: C12_19  and  C13_20 
REMARK   10  A    between atoms: C13_20  and  S1_21 
REMARK   11  A    between atoms: S1_21  and  N4_22 
REMARK   12  A    between atoms: S1_21  and  N5_26 
REMARK       I    between atoms: N5_26  and  C14_28 
REMARK   13  A    between atoms: C14_28  and  C15_30 
REMARK   14  A    between atoms: C15_30  and  C16_31 
REMARK   15  A    between atoms: C16_31  and  C17_32 
REMARK   16  A    between atoms: C17_32  and  N6_33 
REMARK   17  A    between atoms: C18_35  and  N7_37 
REMARK   18  A    between atoms: N7_37  and  N8_39 
ROOT
HETATM    1  C13 UNL     1      12.396 -13.368  19.812  1.00  0.00     0.139 C 
ENDROOT
BRANCH   1   2
HETATM    2  C12 UNL     1      13.780 -13.341  19.277  1.00  0.00     0.015 C 
BRANCH   2   3
HETATM    3  C11 UNL     1      13.953 -14.208  18.065  1.00  0.00     0.004 C 
BRANCH   3   4
HETATM    4  C10 UNL     1      15.196 -13.753  17.350  1.00  0.00     0.035 C 
BRANCH   4   5
HETATM    5  C9  UNL     1      15.399 -14.376  15.992  1.00  0.00     0.176 C 
HETATM    6  N3  UNL     1      16.598 -13.892  15.339  1.00  0.00    -0.346 N 
HETATM    7  C8  UNL     1      16.540 -12.687  14.600  1.00  0.00     0.236 C 
ATOM      8  H3  UNL     1      17.472 -14.414  15.410  1.00  0.00     0.163 HD
HETATM    9  C7  UNL     1      15.412 -11.761  14.712  1.00  0.00     0.229 C 
HETATM   10  O2  UNL     1      17.513 -12.407  13.811  1.00  0.00    -0.272 OA
HETATM   11  N2  UNL     1      14.144 -12.496  14.867  1.00  0.00    -0.333 N 
HETATM   12  C22 UNL     1      14.229 -13.870  15.166  1.00  0.00     0.243 C 
HETATM   13  O5  UNL     1      13.366 -14.678  14.768  1.00  0.00    -0.271 OA
BRANCH  11  14
HETATM   14  C6  UNL     1      12.898 -11.796  14.717  1.00  0.00     0.229 C 
BRANCH  14  15
HETATM   15  C5  UNL     1      12.028 -11.911  15.921  1.00  0.00     0.239 C 
HETATM   16  N1  UNL     1      10.927 -12.780  15.902  1.00  0.00    -0.336 N 
ATOM     17  H1  UNL     1      10.741 -13.307  15.049  1.00  0.00     0.168 HD
HETATM   18  O1  UNL     1      12.380 -11.181  16.891  1.00  0.00    -0.271 OA
BRANCH  16  19
HETATM   19  C4  UNL     1      10.060 -12.962  17.008  1.00  0.00     0.087 C 
BRANCH  19  20
HETATM   20  C3  UNL     1       8.622 -13.176  16.840  1.00  0.00    -0.010 C 
BRANCH  20  21
HETATM   21  C2  UNL     1       8.049 -14.306  16.113  1.00  0.00     0.024 C 
HETATM   22  C1  UNL     1       7.685 -13.762  14.697  1.00  0.00     0.009 C 
ENDBRANCH  20  21
ENDBRANCH  19  20
ENDBRANCH  16  19
ENDBRANCH  14  15
ENDBRANCH  11  14
ENDBRANCH   4   5
ENDBRANCH   3   4
ENDBRANCH   2   3
ENDBRANCH   1   2
BRANCH   1  23
HETATM   23  S1  UNL     1      11.959 -11.755  20.441  1.00  0.00     0.106 S 
HETATM   24  O3  UNL     1      10.642 -11.323  19.963  1.00  0.00    -0.229 OA
BRANCH  23  25
HETATM   25  N4  UNL     1      13.023 -10.770  19.830  1.00  0.00    -0.345 N 
ATOM     26  H42 UNL     1      12.832  -9.951  19.253  1.00  0.00     0.167 HD
ATOM     27  H41 UNL     1      13.928 -11.130  20.135  1.00  0.00     0.167 HD
ENDBRANCH  23  25
BRANCH  23  28
HETATM   28  N5  UNL     1      12.129 -11.842  22.145  1.00  0.00    -0.271 N 
HETATM   29  C14 UNL     1      13.395 -11.776  22.750  1.00  0.00     0.229 C 
HETATM   30  O4  UNL     1      14.457 -11.660  22.059  1.00  0.00    -0.273 OA
ATOM     31  H5  UNL     1      11.299 -11.942  22.727  1.00  0.00     0.180 HD
BRANCH  29  32
HETATM   32  C15 UNL     1      13.471 -11.843  24.217  1.00  0.00     0.105 C 
BRANCH  32  33
HETATM   33  C16 UNL     1      14.013 -13.132  24.701  1.00  0.00     0.029 C 
BRANCH  33  34
HETATM   34  C17 UNL     1      15.400 -12.977  25.250  1.00  0.00     0.124 C 
BRANCH  34  35
HETATM   35  N6  UNL     1      16.405 -12.904  24.250  1.00  0.00    -0.351 N 
HETATM   36  C18 UNL     1      17.456 -12.205  24.353  1.00  0.00     0.281 C 
HETATM   37  F1  UNL     1      18.336 -12.229  23.323  1.00  0.00    -0.164 F 
ATOM     38  H6  UNL     1      16.274 -13.449  23.398  1.00  0.00     0.163 HD
BRANCH  36  39
HETATM   39  N7  UNL     1      17.702 -11.428  25.509  1.00  0.00    -0.177 N 
ATOM     40  H7  UNL     1      17.108 -10.626  25.718  1.00  0.00     0.198 HD
BRANCH  39  41
HETATM   41  N8  UNL     1      18.754 -11.758  26.362  1.00  0.00     0.003 N 
HETATM   42  C19 UNL     1      19.013 -13.189  26.227  1.00  0.00     0.301 C 
HETATM   43  C20 UNL     1      18.384 -11.434  27.721  1.00  0.00     0.301 C 
HETATM   44  C21 UNL     1      19.990 -11.099  25.972  1.00  0.00     0.301 C 
ENDBRANCH  39  41
ENDBRANCH  36  39
ENDBRANCH  34  35
ENDBRANCH  33  34
ENDBRANCH  32  33
ENDBRANCH  29  32
ENDBRANCH  23  28
ENDBRANCH   1  23
TORSDOF 18
ENDMDL
MODEL 3
REMARK VINA RESULT: -6.838164088      4.043      6.462
REMARK  18 active torsions:
REMARK  status: ('A' for Active; 'I' for Inactive)
REMARK    1  A    between atoms: C2_2  and  C3_3 
REMARK    2  A    between atoms: C3_3  and  C4_4 
REMARK    3  A    between atoms: C4_4  and  N1_5 
REMARK       I    between atoms: N1_5  and  C5_7 
REMARK    4  A    between atoms: C5_7  and  C6_9 
REMARK    5  A    between atoms: C6_9  and  N2_10 
REMARK    6  A    between atoms: C9_16  and  C10_17 
REMARK    7  A    between atoms: C10_17  and  C11_18 
REMARK    8  A    between atoms: C11_18  and  C12_19 
REMARK    9  A    between atoms: C12_19  and  C13_20 
REMARK   10  A    between atoms: C13_20  and  S1_21 
REMARK   11  A    between atoms: S1_21  and  N4_22 
REMARK   12  A    between atoms: S1_21  and  N5_26 
REMARK       I    between atoms: N5_26  and  C14_28 
REMARK   13  A    between atoms: C14_28  and  C15_30 
REMARK   14  A    between atoms: C15_30  and  C16_31 
REMARK   15  A    between atoms: C16_31  and  C17_32 
REMARK   16  A    between atoms: C17_32  and  N6_33 
REMARK   17  A    between atoms: C18_35  and  N7_37 
REMARK   18  A    between atoms: N7_37  and  N8_39 
ROOT
HETATM    1  C13 UNL     1      11.587 -13.522  14.197  1.00  0.00     0.139 C 
ENDROOT
BRANCH   1   2
HETATM    2  C12 UNL     1      10.668 -14.621  14.582  1.00  0.00     0.015 C 
BRANCH   2   3
HETATM    3  C11 UNL     1      11.369 -15.937  14.744  1.00  0.00     0.004 C 
BRANCH   3   4
HETATM    4  C10 UNL     1      12.817 -15.730  14.394  1.00  0.00     0.035 C 
BRANCH   4   5
HETATM    5  C9  UNL     1      13.777 -16.602  15.163  1.00  0.00     0.176 C 
HETATM    6  N3  UNL     1      13.756 -16.323  16.584  1.00  0.00    -0.346 N 
HETATM    7  C8  UNL     1      14.556 -15.271  17.091  1.00  0.00     0.236 C 
ATOM      8  H3  UNL     1      13.173 -16.877  17.211  1.00  0.00     0.163 HD
HETATM    9  C7  UNL     1      15.168 -14.271  16.216  1.00  0.00     0.229 C 
HETATM   10  O2  UNL     1      14.743 -15.202  18.359  1.00  0.00    -0.272 OA
HETATM   11  N2  UNL     1      15.615 -14.883  14.951  1.00  0.00    -0.333 N 
HETATM   12  C22 UNL     1      15.150 -16.182  14.666  1.00  0.00     0.243 C 
HETATM   13  O5  UNL     1      15.840 -16.993  14.016  1.00  0.00    -0.271 OA
BRANCH  11  14
HETATM   14  C6  UNL     1      16.482 -14.144  14.074  1.00  0.00     0.229 C 
BRANCH  14  15
HETATM   15  C5  UNL     1      16.094 -12.711  13.959  1.00  0.00     0.239 C 
HETATM   16  N1  UNL     1      17.047 -11.712  14.205  1.00  0.00    -0.336 N 
ATOM     17  H1  UNL     1      17.990 -11.997  14.471  1.00  0.00     0.168 HD
HETATM   18  O1  UNL     1      14.886 -12.520  13.637  1.00  0.00    -0.271 OA
BRANCH  16  19
HETATM   19  C4  UNL     1      16.769 -10.327  14.101  1.00  0.00     0.087 C 
BRANCH  19  20
HETATM   20  C3  UNL     1      16.338  -9.713  12.844  1.00  0.00    -0.010 C 
BRANCH  20  21
HETATM   21  C2  UNL     1      17.176  -9.634  11.650  1.00  0.00     0.024 C 
HETATM   22  C1  UNL     1      16.916  -8.221  11.041  1.00  0.00     0.009 C 
ENDBRANCH  20  21
ENDBRANCH  19  20
ENDBRANCH  16  19
ENDBRANCH  14  15
ENDBRANCH  11  14
ENDBRANCH   4   5
ENDBRANCH   3   4
ENDBRANCH   2   3
ENDBRANCH   1   2
BRANCH   1  23
HETATM   23  S1  UNL     1      11.499 -12.210  15.404  1.00  0.00     0.106 S 
HETATM   24  O3  UNL     1      10.321 -11.361  15.201  1.00  0.00    -0.229 OA
BRANCH  23  25
HETATM   25  N4  UNL     1      12.767 -11.317  15.138  1.00  0.00    -0.345 N 
ATOM     26  H42 UNL     1      13.708 -11.475  15.499  1.00  0.00     0.167 HD
ATOM     27  H41 UNL     1      12.441 -10.560  14.537  1.00  0.00     0.167 HD
ENDBRANCH  23  25
BRANCH  23  28
HETATM   28  N5  UNL     1      11.605 -12.962  16.940  1.00  0.00    -0.271 N 
HETATM   29  C14 UNL     1      12.100 -12.266  18.056  1.00  0.00     0.229 C 
HETATM   30  O4  UNL     1      12.496 -11.060  17.963  1.00  0.00    -0.273 OA
ATOM     31  H5  UNL     1      11.303 -13.930  17.047  1.00  0.00     0.180 HD
BRANCH  29  32
HETATM   32  C15 UNL     1      12.153 -12.965  19.347  1.00  0.00     0.105 C 
BRANCH  32  33
HETATM   33  C16 UNL     1      13.031 -12.288  20.327  1.00  0.00     0.029 C 
BRANCH  33  34
HETATM   34  C17 UNL     1      12.252 -11.759  21.494  1.00  0.00     0.124 C 
BRANCH  34  35
HETATM   35  N6  UNL     1      13.061 -11.395  22.603  1.00  0.00    -0.351 N 
HETATM   36  C18 UNL     1      12.736 -11.594  23.811  1.00  0.00     0.281 C 
HETATM   37  F1  UNL     1      13.604 -11.200  24.773  1.00  0.00    -0.164 F 
ATOM     38  H6  UNL     1      13.957 -10.947  22.416  1.00  0.00     0.163 HD
BRANCH  36  39
HETATM   39  N7  UNL     1      11.508 -12.213  24.140  1.00  0.00    -0.177 N 
ATOM     40  H7  UNL     1      10.628 -11.764  23.886  1.00  0.00     0.198 HD
BRANCH  39  41
HETATM   41  N8  UNL     1      11.498 -13.434  24.812  1.00  0.00     0.003 N 
HETATM   42  C19 UNL     1      10.299 -14.163  24.406  1.00  0.00     0.301 C 
HETATM   43  C20 UNL     1      11.488 -13.193  26.237  1.00  0.00     0.301 C 
HETATM   44  C21 UNL     1      12.617 -14.274  24.419  1.00  0.00     0.301 C 
ENDBRANCH  39  41
ENDBRANCH  36  39
ENDBRANCH  34  35
ENDBRANCH  33  34
ENDBRANCH  32  33
ENDBRANCH  29  32
ENDBRANCH  23  28
ENDBRANCH   1  23
TORSDOF 18
ENDMDL
MODEL 4
REMARK VINA RESULT: -6.768562685      2.480      3.664
REMARK  18 active torsions:
REMARK  status: ('A' for Active; 'I' for Inactive)
REMARK    1  A    between atoms: C2_2  and  C3_3 
REMARK    2  A    between atoms: C3_3  and  C4_4 
REMARK    3  A    between atoms: C4_4  and  N1_5 
REMARK       I    between atoms: N1_5  and  C5_7 
REMARK    4  A    between atoms: C5_7  and  C6_9 
REMARK    5  A    between atoms: C6_9  and  N2_10 
REMARK    6  A    between atoms: C9_16  and  C10_17 
REMARK    7  A    between atoms: C10_17  and  C11_18 
REMARK    8  A    between atoms: C11_18  and  C12_19 
REMARK    9  A    between atoms: C12_19  and  C13_20 
REMARK   10  A    between atoms: C13_20  and  S1_21 
REMARK   11  A    between atoms: S1_21  and  N4_22 
REMARK   12  A    between atoms: S1_21  and  N5_26 
REMARK       I    between atoms: N5_26  and  C14_28 
REMARK   13  A    between atoms: C14_28  and  C15_30 
REMARK   14  A    between atoms: C15_30  and  C16_31 
REMARK   15  A    between atoms: C16_31  and  C17_32 
REMARK   16  A    between atoms: C17_32  and  N6_33 
REMARK   17  A    between atoms: C18_35  and  N7_37 
REMARK   18  A    between atoms: N7_37  and  N8_39 
ROOT
HETATM    1  C13 UNL     1      10.922 -12.856  16.851  1.00  0.00     0.139 C 
ENDROOT
BRANCH   1   2
HETATM    2  C12 UNL     1      11.884 -13.915  17.245  1.00  0.00     0.015 C 
BRANCH   2   3
HETATM    3  C11 UNL     1      13.051 -13.382  18.023  1.00  0.00     0.004 C 
BRANCH   3   4
HETATM    4  C10 UNL     1      14.307 -13.817  17.319  1.00  0.00     0.035 C 
BRANCH   4   5
HETATM    5  C9  UNL     1      14.360 -15.287  16.986  1.00  0.00     0.176 C 
HETATM    6  N3  UNL     1      15.413 -15.976  17.703  1.00  0.00    -0.346 N 
HETATM    7  C8  UNL     1      16.724 -15.973  17.171  1.00  0.00     0.236 C 
ATOM      8  H3  UNL     1      15.212 -16.458  18.579  1.00  0.00     0.163 HD
HETATM    9  C7  UNL     1      17.123 -15.063  16.096  1.00  0.00     0.229 C 
HETATM   10  O2  UNL     1      17.581 -16.796  17.654  1.00  0.00    -0.272 OA
HETATM   11  N2  UNL     1      16.024 -14.877  15.132  1.00  0.00    -0.333 N 
HETATM   12  C22 UNL     1      14.746 -15.327  15.517  1.00  0.00     0.243 C 
HETATM   13  O5  UNL     1      13.928 -15.759  14.680  1.00  0.00    -0.271 OA
BRANCH  11  14
HETATM   14  C6  UNL     1      16.292 -14.250  13.866  1.00  0.00     0.229 C 
BRANCH  14  15
HETATM   15  C5  UNL     1      16.034 -12.783  13.888  1.00  0.00     0.239 C 
HETATM   16  N1  UNL     1      17.106 -11.891  14.034  1.00  0.00    -0.336 N 
ATOM     17  H1  UNL     1      18.046 -12.276  14.135  1.00  0.00     0.168 HD
HETATM   18  O1  UNL     1      14.816 -12.464  13.767  1.00  0.00    -0.271 OA
BRANCH  16  19
HETATM   19  C4  UNL     1      16.952 -10.483  14.047  1.00  0.00     0.087 C 
BRANCH  19  20
HETATM   20  C3  UNL     1      16.499  -9.740  12.870  1.00  0.00    -0.010 C 
BRANCH  20  21
HETATM   21  C2  UNL     1      17.231  -9.695  11.607  1.00  0.00     0.024 C 
HETATM   22  C1  UNL     1      17.037  -8.249  11.054  1.00  0.00     0.009 C 
ENDBRANCH  20  21
ENDBRANCH  19  20
ENDBRANCH  16  19
ENDBRANCH  14  15
ENDBRANCH  11  14
ENDBRANCH   4   5
ENDBRANCH   3   4
ENDBRANCH   2   3
ENDBRANCH   1   2
BRANCH   1  23
HETATM   23  S1  UNL     1      11.472 -12.069  15.347  1.00  0.00     0.106 S 
HETATM   24  O3  UNL     1      12.558 -11.115  15.597  1.00  0.00    -0.229 OA
BRANCH  23  25
HETATM   25  N4  UNL     1      10.235 -11.243  14.835  1.00  0.00    -0.345 N 
ATOM     26  H42 UNL     1       9.569 -11.527  14.117  1.00  0.00     0.167 HD
ATOM     27  H41 UNL     1      10.250 -10.376  15.373  1.00  0.00     0.167 HD
ENDBRANCH  23  25
BRANCH  23  28
HETATM   28  N5  UNL     1      11.845 -13.333  14.251  1.00  0.00    -0.271 N 
HETATM   29  C14 UNL     1      10.829 -14.026  13.571  1.00  0.00     0.229 C 
HETATM   30  O4  UNL     1       9.601 -13.747  13.751  1.00  0.00    -0.273 OA
ATOM     31  H5  UNL     1      12.819 -13.587  14.090  1.00  0.00     0.180 HD
BRANCH  29  32
HETATM   32  C15 UNL     1      11.217 -15.092  12.636  1.00  0.00     0.105 C 
BRANCH  32  33
HETATM   33  C16 UNL     1      11.038 -14.702  11.221  1.00  0.00     0.029 C 
BRANCH  33  34
HETATM   34  C17 UNL     1       9.785 -15.288  10.640  1.00  0.00     0.124 C 
BRANCH  34  35
HETATM   35  N6  UNL     1       8.635 -14.478  10.826  1.00  0.00    -0.351 N 
HETATM   36  C18 UNL     1       7.527 -14.911  11.261  1.00  0.00     0.281 C 
HETATM   37  F1  UNL     1       6.510 -14.027  11.394  1.00  0.00    -0.164 F 
ATOM     38  H6  UNL     1       8.705 -13.487  10.597  1.00  0.00     0.163 HD
BRANCH  36  39
HETATM   39  N7  UNL     1       7.363 -16.274  11.600  1.00  0.00    -0.177 N 
ATOM     40  H7  UNL     1       7.906 -16.678  12.364  1.00  0.00     0.198 HD
BRANCH  39  41
HETATM   41  N8  UNL     1       6.462 -17.067  10.892  1.00  0.00     0.003 N 
HETATM   42  C19 UNL     1       6.873 -18.461  11.040  1.00  0.00     0.301 C 
HETATM   43  C20 UNL     1       6.476 -16.677   9.500  1.00  0.00     0.301 C 
HETATM   44  C21 UNL     1       5.123 -16.994  11.454  1.00  0.00     0.301 C 
ENDBRANCH  39  41
ENDBRANCH  36  39
ENDBRANCH  34  35
ENDBRANCH  33  34
ENDBRANCH  32  33
ENDBRANCH  29  32
ENDBRANCH  23  28
ENDBRANCH   1  23
TORSDOF 18
ENDMDL
MODEL 5
REMARK VINA RESULT: -6.700085799      1.704      2.102
REMARK  18 active torsions:
REMARK  status: ('A' for Active; 'I' for Inactive)
REMARK    1  A    between atoms: C2_2  and  C3_3 
REMARK    2  A    between atoms: C3_3  and  C4_4 
REMARK    3  A    between atoms: C4_4  and  N1_5 
REMARK       I    between atoms: N1_5  and  C5_7 
REMARK    4  A    between atoms: C5_7  and  C6_9 
REMARK    5  A    between atoms: C6_9  and  N2_10 
REMARK    6  A    between atoms: C9_16  and  C10_17 
REMARK    7  A    between atoms: C10_17  and  C11_18 
REMARK    8  A    between atoms: C11_18  and  C12_19 
REMARK    9  A    between atoms: C12_19  and  C13_20 
REMARK   10  A    between atoms: C13_20  and  S1_21 
REMARK   11  A    between atoms: S1_21  and  N4_22 
REMARK   12  A    between atoms: S1_21  and  N5_26 
REMARK       I    between atoms: N5_26  and  C14_28 
REMARK   13  A    between atoms: C14_28  and  C15_30 
REMARK   14  A    between atoms: C15_30  and  C16_31 
REMARK   15  A    between atoms: C16_31  and  C17_32 
REMARK   16  A    between atoms: C17_32  and  N6_33 
REMARK   17  A    between atoms: C18_35  and  N7_37 
REMARK   18  A    between atoms: N7_37  and  N8_39 
ROOT
HETATM    1  C13 UNL     1      12.722 -11.925  18.725  1.00  0.00     0.139 C 
ENDROOT
BRANCH   1   2
HETATM    2  C12 UNL     1      12.590 -12.095  17.257  1.00  0.00     0.015 C 
BRANCH   2   3
HETATM    3  C11 UNL     1      13.735 -12.852  16.653  1.00  0.00     0.004 C 
BRANCH   3   4
HETATM    4  C10 UNL     1      13.945 -14.096  17.473  1.00  0.00     0.035 C 
BRANCH   4   5
HETATM    5  C9  UNL     1      13.328 -15.342  16.888  1.00  0.00     0.176 C 
HETATM    6  N3  UNL     1      13.645 -16.527  17.658  1.00  0.00    -0.346 N 
HETATM    7  C8  UNL     1      14.862 -17.205  17.408  1.00  0.00     0.236 C 
ATOM      8  H3  UNL     1      13.000 -16.868  18.371  1.00  0.00     0.163 HD
HETATM    9  C7  UNL     1      15.940 -16.601  16.624  1.00  0.00     0.229 C 
HETATM   10  O2  UNL     1      15.013 -18.384  17.889  1.00  0.00    -0.272 OA
HETATM   11  N2  UNL     1      15.395 -15.800  15.513  1.00  0.00    -0.333 N 
HETATM   12  C22 UNL     1      14.017 -15.508  15.545  1.00  0.00     0.243 C 
HETATM   13  O5  UNL     1      13.353 -15.385  14.496  1.00  0.00    -0.271 OA
BRANCH  11  14
HETATM   14  C6  UNL     1      16.273 -15.352  14.466  1.00  0.00     0.229 C 
BRANCH  14  15
HETATM   15  C5  UNL     1      16.543 -13.889  14.532  1.00  0.00     0.239 C 
HETATM   16  N1  UNL     1      16.145 -13.062  13.472  1.00  0.00    -0.336 N 
ATOM     17  H1  UNL     1      15.688 -13.491  12.667  1.00  0.00     0.168 HD
HETATM   18  O1  UNL     1      17.132 -13.513  15.586  1.00  0.00    -0.271 OA
BRANCH  16  19
HETATM   19  C4  UNL     1      16.347 -11.659  13.460  1.00  0.00     0.087 C 
BRANCH  19  20
HETATM   20  C3  UNL     1      17.541 -11.051  12.871  1.00  0.00    -0.010 C 
BRANCH  20  21
HETATM   21  C2  UNL     1      17.611 -10.568  11.494  1.00  0.00     0.024 C 
HETATM   22  C1  UNL     1      16.998  -9.133  11.515  1.00  0.00     0.009 C 
ENDBRANCH  20  21
ENDBRANCH  19  20
ENDBRANCH  16  19
ENDBRANCH  14  15
ENDBRANCH  11  14
ENDBRANCH   4   5
ENDBRANCH   3   4
ENDBRANCH   2   3
ENDBRANCH   1   2
BRANCH   1  23
HETATM   23  S1  UNL     1      11.109 -11.988  19.488  1.00  0.00     0.106 S 
HETATM   24  O3  UNL     1      10.842 -10.794  20.296  1.00  0.00    -0.229 OA
BRANCH  23  25
HETATM   25  N4  UNL     1      11.164 -13.214  20.472  1.00  0.00    -0.345 N 
ATOM     26  H42 UNL     1      11.999 -13.614  20.899  1.00  0.00     0.167 HD
ATOM     27  H41 UNL     1      10.195 -13.512  20.583  1.00  0.00     0.167 HD
ENDBRANCH  23  25
BRANCH  23  28
HETATM   28  N5  UNL     1       9.991 -12.282  18.223  1.00  0.00    -0.271 N 
HETATM   29  C14 UNL     1       8.620 -12.442  18.490  1.00  0.00     0.229 C 
HETATM   30  O4  UNL     1       8.164 -12.385  19.677  1.00  0.00    -0.273 OA
ATOM     31  H5  UNL     1      10.325 -12.341  17.262  1.00  0.00     0.180 HD
BRANCH  29  32
HETATM   32  C15 UNL     1       7.713 -12.680  17.359  1.00  0.00     0.105 C 
BRANCH  32  33
HETATM   33  C16 UNL     1       8.055 -13.904  16.601  1.00  0.00     0.029 C 
BRANCH  33  34
HETATM   34  C17 UNL     1       8.181 -13.628  15.132  1.00  0.00     0.124 C 
BRANCH  34  35
HETATM   35  N6  UNL     1       9.415 -13.027  14.768  1.00  0.00    -0.351 N 
HETATM   36  C18 UNL     1      10.347 -13.636  14.166  1.00  0.00     0.281 C 
HETATM   37  F1  UNL     1      11.473 -12.941  13.875  1.00  0.00    -0.164 F 
ATOM     38  H6  UNL     1       9.558 -12.045  15.004  1.00  0.00     0.163 HD
BRANCH  36  39
HETATM   39  N7  UNL     1      10.213 -14.997  13.807  1.00  0.00    -0.177 N 
ATOM     40  H7  UNL     1      10.349 -15.725  14.509  1.00  0.00     0.198 HD
BRANCH  39  41
HETATM   41  N8  UNL     1       9.896 -15.347  12.496  1.00  0.00     0.003 N 
HETATM   42  C19 UNL     1      11.019 -16.101  11.945  1.00  0.00     0.301 C 
HETATM   43  C20 UNL     1       9.664 -14.146  11.727  1.00  0.00     0.301 C 
HETATM   44  C21 UNL     1       8.756 -16.247  12.439  1.00  0.00     0.301 C 
ENDBRANCH  39  41
ENDBRANCH  36  39
ENDBRANCH  34  35
ENDBRANCH  33  34
ENDBRANCH  32  33
ENDBRANCH  29  32
ENDBRANCH  23  28
ENDBRANCH   1  23
TORSDOF 18
ENDMDL
