MODEL 1
REMARK VINA RESULT: -6.984608129      0.000      0.000
REMARK  18 active torsions:
REMARK  status: ('A' for Active; 'I' for Inactive)
REMARK    1  A    between atoms: C2_2  and  N8_35 
REMARK    2  A    between atoms: N1_3  and  N2_5 
REMARK    3  A    between atoms: N2_5  and  C3_7 
REMARK    4  A    between atoms: C3_7  and  C4_8 
REMARK    5  A    between atoms: C4_8  and  C5_9 
REMARK    6  A    between atoms: C5_9  and  N3_10 
REMARK       I    between atoms: C6_12  and  N5_14 
REMARK    7  A    between atoms: N5_14  and  C7_16 
REMARK    8  A    between atoms: C7_16  and  C8_17 
REMARK    9  A    between atoms: C8_17  and  C9_18 
REMARK   10  A    between atoms: C9_18  and  C10_19 
REMARK   11  A    between atoms: C10_19  and  C11_20 
REMARK   12  A    between atoms: C11_20  and  C12_21 
REMARK       I    between atoms: C12_21  and  N6_23 
REMARK   13  A    between atoms: N6_23  and  C13_24 
REMARK   14  A    between atoms: C13_24  and  C14_25 
REMARK   15  A    between atoms: N8_35  and  C21_37 
REMARK   16  A    between atoms: C21_37  and  C22_38 
REMARK   17  A    between atoms: C22_38  and  S1_39 
REMARK   18  A    between atoms: S1_39  and  N9_40 
ROOT
HETATM    1  N3  UNL     1      12.110 -12.036  18.110  1.00  0.00    -0.365 N 
ATOM      2  H3  UNL     1      12.801 -11.791  18.819  1.00  0.00     0.162 HD
HETATM    3  C6  UNL     1      10.947 -12.359  18.478  1.00  0.00     0.183 C 
HETATM    4  N4  UNL     1      10.531 -12.402  19.838  1.00  0.00    -0.064 NA
HETATM    5  N5  UNL     1       9.969 -12.718  17.506  1.00  0.00    -0.365 N 
ATOM      6  H5  UNL     1      10.251 -13.033  16.578  1.00  0.00     0.162 HD
ENDROOT
BRANCH   1   7
HETATM    7  C5  UNL     1      12.492 -12.003  16.727  1.00  0.00     0.124 C 
BRANCH   7   8
HETATM    8  C4  UNL     1      13.226 -13.270  16.384  1.00  0.00     0.041 C 
BRANCH   8   9
HETATM    9  C3  UNL     1      12.697 -13.793  15.066  1.00  0.00     0.141 C 
BRANCH   9  10
HETATM   10  N2  UNL     1      13.816 -14.042  14.195  1.00  0.00    -0.335 N 
ATOM     11  H2  UNL     1      13.900 -13.535  13.314  1.00  0.00     0.180 HD
BRANCH  10  12
HETATM   12  N1  UNL     1      14.776 -14.968  14.554  1.00  0.00    -0.294 N 
HETATM   13  C2  UNL     1      15.985 -14.859  14.190  1.00  0.00     0.087 C 
HETATM   14  C1  UNL     1      16.922 -15.945  14.653  1.00  0.00     0.090 C 
ATOM     15  H1  UNL     1      14.504 -15.763  15.131  1.00  0.00     0.188 HD
BRANCH  13  16
HETATM   16  N8  UNL     1      16.551 -13.830  13.395  1.00  0.00    -0.378 N 
ATOM     17  H8  UNL     1      16.397 -13.833  12.387  1.00  0.00     0.160 HD
BRANCH  16  18
HETATM   18  C21 UNL     1      17.331 -12.791  13.983  1.00  0.00     0.137 C 
BRANCH  18  19
HETATM   19  C22 UNL     1      17.321 -11.563  13.070  1.00  0.00     0.182 C 
BRANCH  19  20
HETATM   20  S1  UNL     1      16.036 -10.489  13.699  1.00  0.00     0.226 S 
HETATM   21  O3  UNL     1      14.795 -11.310  13.939  1.00  0.00    -0.206 OA
HETATM   22  O4  UNL     1      15.780  -9.378  12.722  1.00  0.00    -0.206 OA
BRANCH  20  23
HETATM   23  N9  UNL     1      16.616  -9.765  15.148  1.00  0.00    -0.328 N 
ATOM     24  H92 UNL     1      17.440 -10.065  15.668  1.00  0.00     0.168 HD
ATOM     25  H91 UNL     1      15.992  -8.993  15.383  1.00  0.00     0.168 HD
ENDBRANCH  20  23
ENDBRANCH  19  20
ENDBRANCH  18  19
ENDBRANCH  16  18
ENDBRANCH  13  16
ENDBRANCH  10  12
ENDBRANCH   9  10
ENDBRANCH   8   9
ENDBRANCH   7   8
ENDBRANCH   1   7
BRANCH   5  26
HETATM   26  C7  UNL     1       8.583 -12.630  17.857  1.00  0.00     0.122 C 
BRANCH  26  27
HETATM   27  C8  UNL     1       7.718 -12.949  16.687  1.00  0.00     0.020 C 
BRANCH  27  28
HETATM   28  C9  UNL     1       8.529 -13.257  15.472  1.00  0.00     0.002 C 
BRANCH  28  29
HETATM   29  C10 UNL     1       8.104 -14.515  14.836  1.00  0.00     0.010 C 
BRANCH  29  30
HETATM   30  C11 UNL     1       7.337 -14.509  13.591  1.00  0.00     0.119 C 
BRANCH  30  31
HETATM   31  C12 UNL     1       8.136 -14.558  12.313  1.00  0.00     0.290 C 
HETATM   32  O1  UNL     1       7.528 -14.167  11.271  1.00  0.00    -0.257 OA
HETATM   33  N6  UNL     1       9.413 -15.013  12.386  1.00  0.00    -0.384 NA
BRANCH  33  34
HETATM   34  C13 UNL     1      10.680 -15.464  12.460  1.00  0.00     0.210 C 
BRANCH  34  35
HETATM   35  C14 UNL     1      10.864 -16.755  13.268  1.00  0.00     0.210 C 
HETATM   36  F1  UNL     1      10.726 -16.488  14.621  1.00  0.00    -0.227 F 
HETATM   37  C15 UNL     1       9.896 -17.825  12.870  1.00  0.00     0.086 C 
HETATM   38  C16 UNL     1      10.217 -18.516  11.582  1.00  0.00     0.241 C 
HETATM   39  N7  UNL     1      11.577 -18.908  11.417  1.00  0.00    -0.068 N 
HETATM   40  C17 UNL     1      11.761 -19.381  10.046  1.00  0.00     0.272 C 
HETATM   41  C18 UNL     1      11.849 -20.011  12.344  1.00  0.00     0.272 C 
HETATM   42  C19 UNL     1      12.509 -17.828  11.643  1.00  0.00     0.318 C 
HETATM   43  C20 UNL     1      12.246 -17.235  12.973  1.00  0.00     0.198 C 
HETATM   44  O2  UNL     1      13.135 -17.131  13.827  1.00  0.00    -0.292 OA
ENDBRANCH  34  35
ENDBRANCH  33  34
ENDBRANCH  30  31
ENDBRANCH  29  30
ENDBRANCH  28  29
ENDBRANCH  27  28
ENDBRANCH  26  27
ENDBRANCH   5  26
TORSDOF 18
ENDMDL
MODEL 2
REMARK VINA RESULT: -6.940185631      3.815      7.643
REMARK  18 active torsions:
REMARK  status: ('A' for Active; 'I' for Inactive)
REMARK    1  A    between atoms: C2_2  and  N8_35 
REMARK    2  A    between atoms: N1_3  and  N2_5 
REMARK    3  A    between atoms: N2_5  and  C3_7 
REMARK    4  A    between atoms: C3_7  and  C4_8 
REMARK    5  A    between atoms: C4_8  and  C5_9 
REMARK    6  A    between atoms: C5_9  and  N3_10 
REMARK       I    between atoms: C6_12  and  N5_14 
REMARK    7  A    between atoms: N5_14  and  C7_16 
REMARK    8  A    between atoms: C7_16  and  C8_17 
REMARK    9  A    between atoms: C8_17  and  C9_18 
REMARK   10  A    between atoms: C9_18  and  C10_19 
REMARK   11  A    between atoms: C10_19  and  C11_20 
REMARK   12  A    between atoms: C11_20  and  C12_21 
REMARK       I    between atoms: C12_21  and  N6_23 
REMARK   13  A    between atoms: N6_23  and  C13_24 
REMARK   14  A    between atoms: C13_24  and  C14_25 
REMARK   15  A    between atoms: N8_35  and  C21_37 
REMARK   16  A    between atoms: C21_37  and  C22_38 
REMARK   17  A    between atoms: C22_38  and  S1_39 
REMARK   18  A    between atoms: S1_39  and  N9_40 
ROOT
HETATM    1  N3  UNL     1      10.870 -14.444  13.158  1.00  0.00    -0.365 N 
ATOM      2  H3  UNL     1      11.102 -14.774  12.221  1.00  0.00     0.162 HD
HETATM    3  C6  UNL     1       9.673 -14.139  13.417  1.00  0.00     0.183 C 
HETATM    4  N4  UNL     1       8.612 -14.229  12.474  1.00  0.00    -0.064 NA
HETATM    5  N5  UNL     1       9.328 -13.663  14.715  1.00  0.00    -0.365 N 
ATOM      6  H5  UNL     1      10.037 -13.259  15.326  1.00  0.00     0.162 HD
ENDROOT
BRANCH   1   7
HETATM    7  C5  UNL     1      11.914 -14.342  14.137  1.00  0.00     0.124 C 
BRANCH   7   8
HETATM    8  C4  UNL     1      12.804 -13.178  13.794  1.00  0.00     0.041 C 
BRANCH   8   9
HETATM    9  C3  UNL     1      12.523 -12.052  14.766  1.00  0.00     0.141 C 
BRANCH   9  10
HETATM   10  N2  UNL     1      13.693 -11.857  15.583  1.00  0.00    -0.335 N 
ATOM     11  H2  UNL     1      14.118 -10.933  15.654  1.00  0.00     0.180 HD
BRANCH  10  12
HETATM   12  N1  UNL     1      14.239 -12.924  16.270  1.00  0.00    -0.294 N 
HETATM   13  C2  UNL     1      15.443 -13.285  16.106  1.00  0.00     0.087 C 
HETATM   14  C1  UNL     1      15.903 -14.467  16.919  1.00  0.00     0.090 C 
ATOM     15  H1  UNL     1      13.656 -13.437  16.931  1.00  0.00     0.188 HD
BRANCH  13  16
HETATM   16  N8  UNL     1      16.402 -12.699  15.241  1.00  0.00    -0.378 N 
ATOM     17  H8  UNL     1      16.931 -11.886  15.557  1.00  0.00     0.160 HD
BRANCH  16  18
HETATM   18  C21 UNL     1      16.640 -13.228  13.939  1.00  0.00     0.137 C 
BRANCH  18  19
HETATM   19  C22 UNL     1      17.597 -12.308  13.178  1.00  0.00     0.182 C 
BRANCH  19  20
HETATM   20  S1  UNL     1      16.901 -10.665  13.293  1.00  0.00     0.226 S 
HETATM   21  O3  UNL     1      17.476  -9.981  14.508  1.00  0.00    -0.206 OA
HETATM   22  O4  UNL     1      15.404 -10.751  13.369  1.00  0.00    -0.206 OA
BRANCH  20  23
HETATM   23  N9  UNL     1      17.286  -9.825  11.842  1.00  0.00    -0.328 N 
ATOM     24  H92 UNL     1      18.113  -9.989  11.268  1.00  0.00     0.168 HD
ATOM     25  H91 UNL     1      16.545  -9.146  11.667  1.00  0.00     0.168 HD
ENDBRANCH  20  23
ENDBRANCH  19  20
ENDBRANCH  18  19
ENDBRANCH  16  18
ENDBRANCH  13  16
ENDBRANCH  10  12
ENDBRANCH   9  10
ENDBRANCH   8   9
ENDBRANCH   7   8
ENDBRANCH   1   7
BRANCH   5  26
HETATM   26  C7  UNL     1       7.965 -13.761  15.146  1.00  0.00     0.122 C 
BRANCH  26  27
HETATM   27  C8  UNL     1       7.884 -13.893  16.627  1.00  0.00     0.020 C 
BRANCH  27  28
HETATM   28  C9  UNL     1       8.053 -12.574  17.306  1.00  0.00     0.002 C 
BRANCH  28  29
HETATM   29  C10 UNL     1       9.180 -12.588  18.254  1.00  0.00     0.010 C 
BRANCH  29  30
HETATM   30  C11 UNL     1      10.561 -12.670  17.782  1.00  0.00     0.119 C 
BRANCH  30  31
HETATM   31  C12 UNL     1      11.608 -12.035  18.663  1.00  0.00     0.290 C 
HETATM   32  O1  UNL     1      12.340 -11.164  18.103  1.00  0.00    -0.257 OA
HETATM   33  N6  UNL     1      11.677 -12.447  19.954  1.00  0.00    -0.384 NA
BRANCH  33  34
HETATM   34  C13 UNL     1      11.745 -12.856  21.236  1.00  0.00     0.210 C 
BRANCH  34  35
HETATM   35  C14 UNL     1      12.381 -11.852  22.205  1.00  0.00     0.210 C 
HETATM   36  F1  UNL     1      12.243 -10.565  21.709  1.00  0.00    -0.227 F 
HETATM   37  C15 UNL     1      11.787 -11.923  23.578  1.00  0.00     0.086 C 
HETATM   38  C16 UNL     1      12.237 -13.089  24.399  1.00  0.00     0.241 C 
HETATM   39  N7  UNL     1      13.639 -13.345  24.387  1.00  0.00    -0.068 N 
HETATM   40  C17 UNL     1      13.885 -14.617  25.065  1.00  0.00     0.272 C 
HETATM   41  C18 UNL     1      14.304 -12.270  25.130  1.00  0.00     0.272 C 
HETATM   42  C19 UNL     1      14.186 -13.440  23.053  1.00  0.00     0.318 C 
HETATM   43  C20 UNL     1      13.824 -12.220  22.297  1.00  0.00     0.198 C 
HETATM   44  O2  UNL     1      14.681 -11.516  21.749  1.00  0.00    -0.292 OA
ENDBRANCH  34  35
ENDBRANCH  33  34
ENDBRANCH  30  31
ENDBRANCH  29  30
ENDBRANCH  28  29
ENDBRANCH  27  28
ENDBRANCH  26  27
ENDBRANCH   5  26
TORSDOF 18
ENDMDL
MODEL 3
REMARK VINA RESULT: -6.934995416      1.849      2.303
REMARK  18 active torsions:
REMARK  status: ('A' for Active; 'I' for Inactive)
REMARK    1  A    between atoms: C2_2  and  N8_35 
REMARK    2  A    between atoms: N1_3  and  N2_5 
REMARK    3  A    between atoms: N2_5  and  C3_7 
REMARK    4  A    between atoms: C3_7  and  C4_8 
REMARK    5  A    between atoms: C4_8  and  C5_9 
REMARK    6  A    between atoms: C5_9  and  N3_10 
REMARK       I    between atoms: C6_12  and  N5_14 
REMARK    7  A    between atoms: N5_14  and  C7_16 
REMARK    8  A    between atoms: C7_16  and  C8_17 
REMARK    9  A    between atoms: C8_17  and  C9_18 
REMARK   10  A    between atoms: C9_18  and  C10_19 
REMARK   11  A    between atoms: C10_19  and  C11_20 
REMARK   12  A    between atoms: C11_20  and  C12_21 
REMARK       I    between atoms: C12_21  and  N6_23 
REMARK   13  A    between atoms: N6_23  and  C13_24 
REMARK   14  A    between atoms: C13_24  and  C14_25 
REMARK   15  A    between atoms: N8_35  and  C21_37 
REMARK   16  A    between atoms: C21_37  and  C22_38 
REMARK   17  A    between atoms: C22_38  and  S1_39 
REMARK   18  A    between atoms: S1_39  and  N9_40 
ROOT
HETATM    1  N3  UNL     1      12.690 -11.902  17.243  1.00  0.00    -0.365 N 
ATOM      2  H3  UNL     1      13.625 -11.640  16.930  1.00  0.00     0.162 HD
HETATM    3  C6  UNL     1      11.751 -11.934  16.401  1.00  0.00     0.183 C 
HETATM    4  N4  UNL     1      11.915 -11.625  15.022  1.00  0.00    -0.064 NA
HETATM    5  N5  UNL     1      10.434 -12.284  16.818  1.00  0.00    -0.365 N 
ATOM      6  H5  UNL     1      10.159 -12.194  17.796  1.00  0.00     0.162 HD
ENDROOT
BRANCH   1   7
HETATM    7  C5  UNL     1      12.486 -12.221  18.628  1.00  0.00     0.124 C 
BRANCH   7   8
HETATM    8  C4  UNL     1      13.752 -12.801  19.196  1.00  0.00     0.041 C 
BRANCH   8   9
HETATM    9  C3  UNL     1      13.980 -14.163  18.577  1.00  0.00     0.141 C 
BRANCH   9  10
HETATM   10  N2  UNL     1      15.071 -14.060  17.642  1.00  0.00    -0.335 N 
ATOM     11  H2  UNL     1      15.282 -13.165  17.200  1.00  0.00     0.180 HD
BRANCH  10  12
HETATM   12  N1  UNL     1      15.832 -15.174  17.345  1.00  0.00    -0.294 N 
HETATM   13  C2  UNL     1      16.668 -15.183  16.394  1.00  0.00     0.087 C 
HETATM   14  C1  UNL     1      17.426 -16.469  16.183  1.00  0.00     0.090 C 
ATOM     15  H1  UNL     1      15.716 -16.015  17.910  1.00  0.00     0.188 HD
BRANCH  13  16
HETATM   16  N8  UNL     1      16.969 -14.118  15.507  1.00  0.00    -0.378 N 
ATOM     17  H8  UNL     1      17.611 -13.384  15.805  1.00  0.00     0.160 HD
BRANCH  16  18
HETATM   18  C21 UNL     1      16.388 -14.057  14.207  1.00  0.00     0.137 C 
BRANCH  18  19
HETATM   19  C22 UNL     1      15.145 -13.166  14.241  1.00  0.00     0.182 C 
BRANCH  19  20
HETATM   20  S1  UNL     1      15.695 -11.570  14.831  1.00  0.00     0.226 S 
HETATM   21  O3  UNL     1      17.110 -11.343  14.363  1.00  0.00    -0.206 OA
HETATM   22  O4  UNL     1      15.597 -11.521  16.328  1.00  0.00    -0.206 OA
BRANCH  20  23
HETATM   23  N9  UNL     1      14.617 -10.379  14.214  1.00  0.00    -0.328 N 
ATOM     24  H92 UNL     1      14.896  -9.504  13.772  1.00  0.00     0.168 HD
ATOM     25  H91 UNL     1      13.664 -10.708  14.372  1.00  0.00     0.168 HD
ENDBRANCH  20  23
ENDBRANCH  19  20
ENDBRANCH  18  19
ENDBRANCH  16  18
ENDBRANCH  13  16
ENDBRANCH  10  12
ENDBRANCH   9  10
ENDBRANCH   8   9
ENDBRANCH   7   8
ENDBRANCH   1   7
BRANCH   5  26
HETATM   26  C7  UNL     1       9.505 -12.765  15.840  1.00  0.00     0.122 C 
BRANCH  26  27
HETATM   27  C8  UNL     1       8.454 -13.608  16.474  1.00  0.00     0.020 C 
BRANCH  27  28
HETATM   28  C9  UNL     1       7.972 -14.674  15.546  1.00  0.00     0.002 C 
BRANCH  28  29
HETATM   29  C10 UNL     1       7.623 -14.129  14.223  1.00  0.00     0.010 C 
BRANCH  29  30
HETATM   30  C11 UNL     1       7.950 -14.857  12.998  1.00  0.00     0.119 C 
BRANCH  30  31
HETATM   31  C12 UNL     1       9.194 -14.415  12.268  1.00  0.00     0.290 C 
HETATM   32  O1  UNL     1       9.001 -13.866  11.141  1.00  0.00    -0.257 OA
HETATM   33  N6  UNL     1      10.389 -14.642  12.869  1.00  0.00    -0.384 NA
BRANCH  33  34
HETATM   34  C13 UNL     1      11.576 -14.867  13.465  1.00  0.00     0.210 C 
BRANCH  34  35
HETATM   35  C14 UNL     1      11.573 -15.982  14.518  1.00  0.00     0.210 C 
HETATM   36  F1  UNL     1      11.114 -15.488  15.729  1.00  0.00    -0.227 F 
HETATM   37  C15 UNL     1      10.736 -17.155  14.110  1.00  0.00     0.086 C 
HETATM   38  C16 UNL     1      11.360 -18.046  13.083  1.00  0.00     0.241 C 
HETATM   39  N7  UNL     1      12.723 -18.391  13.314  1.00  0.00    -0.068 N 
HETATM   40  C17 UNL     1      13.232 -19.089  12.134  1.00  0.00     0.272 C 
HETATM   41  C18 UNL     1      12.775 -19.296  14.466  1.00  0.00     0.272 C 
HETATM   42  C19 UNL     1      13.566 -17.241  13.547  1.00  0.00     0.318 C 
HETATM   43  C20 UNL     1      12.989 -16.436  14.646  1.00  0.00     0.198 C 
HETATM   44  O2  UNL     1      13.648 -16.137  15.650  1.00  0.00    -0.292 OA
ENDBRANCH  34  35
ENDBRANCH  33  34
ENDBRANCH  30  31
ENDBRANCH  29  30
ENDBRANCH  28  29
ENDBRANCH  27  28
ENDBRANCH  26  27
ENDBRANCH   5  26
TORSDOF 18
ENDMDL
MODEL 4
REMARK VINA RESULT: -6.796897076      2.857      6.825
REMARK  18 active torsions:
REMARK  status: ('A' for Active; 'I' for Inactive)
REMARK    1  A    between atoms: C2_2  and  N8_35 
REMARK    2  A    between atoms: N1_3  and  N2_5 
REMARK    3  A    between atoms: N2_5  and  C3_7 
REMARK    4  A    between atoms: C3_7  and  C4_8 
REMARK    5  A    between atoms: C4_8  and  C5_9 
REMARK    6  A    between atoms: C5_9  and  N3_10 
REMARK       I    between atoms: C6_12  and  N5_14 
REMARK    7  A    between atoms: N5_14  and  C7_16 
REMARK    8  A    between atoms: C7_16  and  C8_17 
REMARK    9  A    between atoms: C8_17  and  C9_18 
REMARK   10  A    between atoms: C9_18  and  C10_19 
REMARK   11  A    between atoms: C10_19  and  C11_20 
REMARK   12  A    between atoms: C11_20  and  C12_21 
REMARK       I    between atoms: C12_21  and  N6_23 
REMARK   13  A    between atoms: N6_23  and  C13_24 
REMARK   14  A    between atoms: C13_24  and  C14_25 
REMARK   15  A    between atoms: N8_35  and  C21_37 
REMARK   16  A    between atoms: C21_37  and  C22_38 
REMARK   17  A    between atoms: C22_38  and  S1_39 
REMARK   18  A    between atoms: S1_39  and  N9_40 
ROOT
HETATM    1  N3  UNL     1      10.196 -16.008  13.428  1.00  0.00    -0.365 N 
ATOM      2  H3  UNL     1      10.639 -16.247  12.540  1.00  0.00     0.162 HD
HETATM    3  C6  UNL     1       9.463 -14.983  13.486  1.00  0.00     0.183 C 
HETATM    4  N4  UNL     1       9.209 -14.128  12.377  1.00  0.00    -0.064 NA
HETATM    5  N5  UNL     1       8.845 -14.620  14.718  1.00  0.00    -0.365 N 
ATOM      6  H5  UNL     1       9.220 -14.956  15.605  1.00  0.00     0.162 HD
ENDROOT
BRANCH   1   7
HETATM    7  C5  UNL     1      10.428 -16.847  14.569  1.00  0.00     0.124 C 
BRANCH   7   8
HETATM    8  C4  UNL     1      11.857 -16.695  15.015  1.00  0.00     0.041 C 
BRANCH   8   9
HETATM    9  C3  UNL     1      12.761 -16.909  13.821  1.00  0.00     0.141 C 
BRANCH   9  10
HETATM   10  N2  UNL     1      13.882 -16.011  13.934  1.00  0.00    -0.335 N 
ATOM     11  H2  UNL     1      14.531 -15.903  13.155  1.00  0.00     0.180 HD
BRANCH  10  12
HETATM   12  N1  UNL     1      14.075 -15.296  15.100  1.00  0.00    -0.294 N 
HETATM   13  C2  UNL     1      14.829 -14.279  15.147  1.00  0.00     0.087 C 
HETATM   14  C1  UNL     1      14.950 -13.598  16.487  1.00  0.00     0.090 C 
ATOM     15  H1  UNL     1      13.596 -15.596  15.949  1.00  0.00     0.188 HD
BRANCH  13  16
HETATM   16  N8  UNL     1      15.571 -13.712  14.080  1.00  0.00    -0.378 N 
ATOM     17  H8  UNL     1      15.265 -13.865  13.119  1.00  0.00     0.160 HD
BRANCH  16  18
HETATM   18  C21 UNL     1      16.739 -12.932  14.327  1.00  0.00     0.137 C 
BRANCH  18  19
HETATM   19  C22 UNL     1      16.885 -11.867  13.238  1.00  0.00     0.182 C 
BRANCH  19  20
HETATM   20  S1  UNL     1      15.963 -10.445  13.808  1.00  0.00     0.226 S 
HETATM   21  O3  UNL     1      14.581 -10.894  14.207  1.00  0.00    -0.206 OA
HETATM   22  O4  UNL     1      15.912  -9.406  12.725  1.00  0.00    -0.206 OA
BRANCH  20  23
HETATM   23  N9  UNL     1      16.820  -9.755  15.130  1.00  0.00    -0.328 N 
ATOM     24  H92 UNL     1      16.806  -8.769  15.391  1.00  0.00     0.168 HD
ATOM     25  H91 UNL     1      17.335 -10.503  15.594  1.00  0.00     0.168 HD
ENDBRANCH  20  23
ENDBRANCH  19  20
ENDBRANCH  18  19
ENDBRANCH  16  18
ENDBRANCH  13  16
ENDBRANCH  10  12
ENDBRANCH   9  10
ENDBRANCH   8   9
ENDBRANCH   7   8
ENDBRANCH   1   7
BRANCH   5  26
HETATM   26  C7  UNL     1       7.689 -13.776  14.688  1.00  0.00     0.122 C 
BRANCH  26  27
HETATM   27  C8  UNL     1       7.763 -12.735  15.751  1.00  0.00     0.020 C 
BRANCH  27  28
HETATM   28  C9  UNL     1       8.124 -13.327  17.074  1.00  0.00     0.002 C 
BRANCH  28  29
HETATM   29  C10 UNL     1       9.317 -12.684  17.652  1.00  0.00     0.010 C 
BRANCH  29  30
HETATM   30  C11 UNL     1      10.658 -13.014  17.171  1.00  0.00     0.119 C 
BRANCH  30  31
HETATM   31  C12 UNL     1      11.670 -11.896  17.196  1.00  0.00     0.290 C 
HETATM   32  O1  UNL     1      12.010 -11.439  16.063  1.00  0.00    -0.257 OA
HETATM   33  N6  UNL     1      12.125 -11.487  18.408  1.00  0.00    -0.384 NA
BRANCH  33  34
HETATM   34  C13 UNL     1      12.576 -11.080  19.610  1.00  0.00     0.210 C 
BRANCH  34  35
HETATM   35  C14 UNL     1      13.661 -11.968  20.231  1.00  0.00     0.210 C 
HETATM   36  F1  UNL     1      14.770 -12.011  19.400  1.00  0.00    -0.227 F 
HETATM   37  C15 UNL     1      14.077 -11.501  21.592  1.00  0.00     0.086 C 
HETATM   38  C16 UNL     1      13.109 -11.817  22.688  1.00  0.00     0.241 C 
HETATM   39  N7  UNL     1      12.594 -13.145  22.691  1.00  0.00    -0.068 N 
HETATM   40  C17 UNL     1      11.528 -13.228  23.688  1.00  0.00     0.272 C 
HETATM   41  C18 UNL     1      13.679 -14.053  23.073  1.00  0.00     0.272 C 
HETATM   42  C19 UNL     1      12.041 -13.540  21.416  1.00  0.00     0.318 C 
HETATM   43  C20 UNL     1      13.059 -13.327  20.363  1.00  0.00     0.198 C 
HETATM   44  O2  UNL     1      13.411 -14.239  19.604  1.00  0.00    -0.292 OA
ENDBRANCH  34  35
ENDBRANCH  33  34
ENDBRANCH  30  31
ENDBRANCH  29  30
ENDBRANCH  28  29
ENDBRANCH  27  28
ENDBRANCH  26  27
ENDBRANCH   5  26
TORSDOF 18
ENDMDL
MODEL 5
REMARK VINA RESULT: -6.748127067      6.245      7.757
REMARK  18 active torsions:
REMARK  status: ('A' for Active; 'I' for Inactive)
REMARK    1  A    between atoms: C2_2  and  N8_35 
REMARK    2  A    between atoms: N1_3  and  N2_5 
REMARK    3  A    between atoms: N2_5  and  C3_7 
REMARK    4  A    between atoms: C3_7  and  C4_8 
REMARK    5  A    between atoms: C4_8  and  C5_9 
REMARK    6  A    between atoms: C5_9  and  N3_10 
REMARK       I    between atoms: C6_12  and  N5_14 
REMARK    7  A    between atoms: N5_14  and  C7_16 
REMARK    8  A    between atoms: C7_16  and  C8_17 
REMARK    9  A    between atoms: C8_17  and  C9_18 
REMARK   10  A    between atoms: C9_18  and  C10_19 
REMARK   11  A    between atoms: C10_19  and  C11_20 
REMARK   12  A    between atoms: C11_20  and  C12_21 
REMARK       I    between atoms: C12_21  and  N6_23 
REMARK   13  A    between atoms: N6_23  and  C13_24 
REMARK   14  A    between atoms: C13_24  and  C14_25 
REMARK   15  A    between atoms: N8_35  and  C21_37 
REMARK   16  A    between atoms: C21_37  and  C22_38 
REMARK   17  A    between atoms: C22_38  and  S1_39 
REMARK   18  A    between atoms: S1_39  and  N9_40 
ROOT
HETATM    1  N3  UNL     1      12.716 -11.049  20.726  1.00  0.00    -0.365 N 
ATOM      2  H3  UNL     1      13.678 -10.725  20.624  1.00  0.00     0.162 HD
HETATM    3  C6  UNL     1      12.028 -11.255  19.689  1.00  0.00     0.183 C 
HETATM    4  N4  UNL     1      12.516 -11.062  18.366  1.00  0.00    -0.064 NA
HETATM    5  N5  UNL     1      10.678 -11.694  19.807  1.00  0.00    -0.365 N 
ATOM      6  H5  UNL     1      10.156 -11.540  20.669  1.00  0.00     0.162 HD
ENDROOT
BRANCH   1   7
HETATM    7  C5  UNL     1      12.189 -11.256  22.046  1.00  0.00     0.124 C 
BRANCH   7   8
HETATM    8  C4  UNL     1      13.234 -11.920  22.899  1.00  0.00     0.041 C 
BRANCH   8   9
HETATM    9  C3  UNL     1      14.576 -11.784  22.214  1.00  0.00     0.141 C 
BRANCH   9  10
HETATM   10  N2  UNL     1      15.590 -11.643  23.227  1.00  0.00    -0.335 N 
ATOM     11  H2  UNL     1      16.126 -10.778  23.297  1.00  0.00     0.180 HD
BRANCH  10  12
HETATM   12  N1  UNL     1      15.837 -12.682  24.104  1.00  0.00    -0.294 N 
HETATM   13  C2  UNL     1      16.687 -12.585  25.038  1.00  0.00     0.087 C 
HETATM   14  C1  UNL     1      16.854 -13.799  25.917  1.00  0.00     0.090 C 
ATOM     15  H1  UNL     1      15.318 -13.553  23.996  1.00  0.00     0.188 HD
BRANCH  13  16
HETATM   16  N8  UNL     1      17.497 -11.463  25.347  1.00  0.00    -0.378 N 
ATOM     17  H8  UNL     1      17.234 -10.543  24.994  1.00  0.00     0.160 HD
BRANCH  16  18
HETATM   18  C21 UNL     1      18.672 -11.600  26.142  1.00  0.00     0.137 C 
BRANCH  18  19
HETATM   19  C22 UNL     1      19.843 -12.034  25.258  1.00  0.00     0.182 C 
BRANCH  19  20
HETATM   20  S1  UNL     1      21.301 -11.268  25.955  1.00  0.00     0.226 S 
HETATM   21  O3  UNL     1      21.954 -12.243  26.901  1.00  0.00    -0.206 OA
HETATM   22  O4  UNL     1      20.920  -9.996  26.655  1.00  0.00    -0.206 OA
BRANCH  20  23
HETATM   23  N9  UNL     1      22.343 -10.838  24.656  1.00  0.00    -0.328 N 
ATOM     24  H92 UNL     1      23.256 -11.254  24.470  1.00  0.00     0.168 HD
ATOM     25  H91 UNL     1      21.885 -10.103  24.117  1.00  0.00     0.168 HD
ENDBRANCH  20  23
ENDBRANCH  19  20
ENDBRANCH  18  19
ENDBRANCH  16  18
ENDBRANCH  13  16
ENDBRANCH  10  12
ENDBRANCH   9  10
ENDBRANCH   8   9
ENDBRANCH   7   8
ENDBRANCH   1   7
BRANCH   5  26
HETATM   26  C7  UNL     1      10.068 -12.355  18.693  1.00  0.00     0.122 C 
BRANCH  26  27
HETATM   27  C8  UNL     1       8.598 -12.486  18.893  1.00  0.00     0.020 C 
BRANCH  27  28
HETATM   28  C9  UNL     1       7.856 -12.372  17.602  1.00  0.00     0.002 C 
BRANCH  28  29
HETATM   29  C10 UNL     1       8.234 -13.438  16.659  1.00  0.00     0.010 C 
BRANCH  29  30
HETATM   30  C11 UNL     1       7.771 -13.416  15.272  1.00  0.00     0.119 C 
BRANCH  30  31
HETATM   31  C12 UNL     1       8.608 -14.180  14.275  1.00  0.00     0.290 C 
HETATM   32  O1  UNL     1       8.018 -15.131  13.679  1.00  0.00    -0.257 OA
HETATM   33  N6  UNL     1       9.898 -13.792  14.110  1.00  0.00    -0.384 NA
BRANCH  33  34
HETATM   34  C13 UNL     1      11.179 -13.406  13.945  1.00  0.00     0.210 C 
BRANCH  34  35
HETATM   35  C14 UNL     1      11.863 -12.872  15.209  1.00  0.00     0.210 C 
HETATM   36  F1  UNL     1      11.135 -11.813  15.729  1.00  0.00    -0.227 F 
HETATM   37  C15 UNL     1      12.031 -13.924  16.261  1.00  0.00     0.086 C 
HETATM   38  C16 UNL     1      13.136 -14.900  16.005  1.00  0.00     0.241 C 
HETATM   39  N7  UNL     1      14.373 -14.331  15.587  1.00  0.00    -0.068 N 
HETATM   40  C17 UNL     1      15.272 -15.415  15.191  1.00  0.00     0.272 C 
HETATM   41  C18 UNL     1      14.956 -13.619  16.727  1.00  0.00     0.272 C 
HETATM   42  C19 UNL     1      14.234 -13.437  14.460  1.00  0.00     0.318 C 
HETATM   43  C20 UNL     1      13.218 -12.411  14.784  1.00  0.00     0.198 C 
HETATM   44  O2  UNL     1      13.466 -11.201  14.707  1.00  0.00    -0.292 OA
ENDBRANCH  34  35
ENDBRANCH  33  34
ENDBRANCH  30  31
ENDBRANCH  29  30
ENDBRANCH  28  29
ENDBRANCH  27  28
ENDBRANCH  26  27
ENDBRANCH   5  26
TORSDOF 18
ENDMDL
