MODEL 1
REMARK VINA RESULT: -7.090317268      0.000      0.000
REMARK  18 active torsions:
REMARK  status: ('A' for Active; 'I' for Inactive)
REMARK    1  A    between atoms: C2_2  and  N1_3 
REMARK       I    between atoms: N1_3  and  C4_5 
REMARK    2  A    between atoms: C4_5  and  C5_7 
REMARK    3  A    between atoms: C5_7  and  C6_8 
REMARK    4  A    between atoms: C6_8  and  C7_9 
REMARK    5  A    between atoms: C7_9  and  C8_10 
REMARK    6  A    between atoms: C7_9  and  N5_18 
REMARK    7  A    between atoms: C8_10  and  C9_11 
REMARK    8  A    between atoms: C9_11  and  C10_12 
REMARK    9  A    between atoms: C10_12  and  N2_13 
REMARK       I    between atoms: N5_18  and  C12_20 
REMARK   10  A    between atoms: C12_20  and  C13_22 
REMARK       I    between atoms: N6_26  and  C17_27 
REMARK   11  A    between atoms: C17_27  and  C18_29 
REMARK   12  A    between atoms: C18_29  and  C19_30 
REMARK   13  A    between atoms: C18_29  and  C21_34 
REMARK   14  A    between atoms: C19_30  and  C20_31 
REMARK   15  A    between atoms: C21_34  and  N7_36 
REMARK   16  A    between atoms: N7_36  and  C23_38 
REMARK   17  A    between atoms: C23_38  and  C24_39 
REMARK   18  A    between atoms: C24_39  and  O6_41 
ROOT
HETATM    1  C13 UNL     1      12.617 -13.636  15.324  1.00  0.00     0.179 C 
HETATM    2  C14 UNL     1      12.238 -12.695  14.158  1.00  0.00     0.037 C 
HETATM    3  C15 UNL     1      11.730 -11.532  14.988  1.00  0.00     0.022 C 
HETATM    4  C16 UNL     1      12.751 -11.469  16.090  1.00  0.00     0.127 C 
HETATM    5  N6  UNL     1      13.459 -12.777  16.083  1.00  0.00    -0.338 N 
HETATM    6  C17 UNL     1      14.710 -12.890  16.719  1.00  0.00     0.227 C 
HETATM    7  O3  UNL     1      15.134 -11.907  17.373  1.00  0.00    -0.273 OA
ENDROOT
BRANCH   1   8
HETATM    8  C12 UNL     1      11.309 -13.991  15.923  1.00  0.00     0.244 C 
HETATM    9  N5  UNL     1      10.063 -13.813  15.334  1.00  0.00    -0.329 N 
ATOM     10  H5  UNL     1      10.021 -13.392  14.405  1.00  0.00     0.168 HD
HETATM   11  O2  UNL     1      11.408 -14.497  17.070  1.00  0.00    -0.271 OA
BRANCH   9  12
HETATM   12  C7  UNL     1       8.820 -14.197  15.976  1.00  0.00     0.009 C 
BRANCH  12  13
HETATM   13  C6  UNL     1       8.032 -15.105  15.129  1.00  0.00     0.066 C 
BRANCH  13  14
HETATM   14  C5  UNL     1       8.580 -15.324  13.741  1.00  0.00     0.109 C 
BRANCH  14  15
HETATM   15  C4  UNL     1       7.659 -14.794  12.703  1.00  0.00     0.219 C 
HETATM   16  N1  UNL     1       8.092 -14.587  11.384  1.00  0.00    -0.357 N 
HETATM   17  C3  UNL     1       9.460 -14.923  10.991  1.00  0.00     0.152 C 
HETATM   18  O1  UNL     1       6.478 -14.528  13.016  1.00  0.00    -0.273 OA
BRANCH  16  19
HETATM   19  C2  UNL     1       7.183 -14.036  10.374  1.00  0.00     0.120 C 
HETATM   20  C1  UNL     1       7.918 -13.093   9.430  1.00  0.00     0.026 C 
ENDBRANCH  16  19
ENDBRANCH  14  15
ENDBRANCH  13  14
ENDBRANCH  12  13
BRANCH  12  21
HETATM   21  C8  UNL     1       8.254 -13.087  16.714  1.00  0.00    -0.000 C 
BRANCH  21  22
HETATM   22  C9  UNL     1       7.993 -13.047  18.141  1.00  0.00     0.048 C 
BRANCH  22  23
HETATM   23  C10 UNL     1       8.903 -11.935  18.766  1.00  0.00     0.126 C 
BRANCH  23  24
HETATM   24  N2  UNL     1      10.229 -12.449  18.890  1.00  0.00    -0.367 N 
HETATM   25  C11 UNL     1      11.151 -11.916  19.599  1.00  0.00     0.196 C 
HETATM   26  N3  UNL     1      10.918 -10.738  20.341  1.00  0.00    -0.067 NA
HETATM   27  N4  UNL     1      12.445 -12.517  19.644  1.00  0.00    -0.067 NA
ATOM     28  H2  UNL     1      10.458 -13.301  18.378  1.00  0.00     0.161 HD
ENDBRANCH  23  24
ENDBRANCH  22  23
ENDBRANCH  21  22
ENDBRANCH  12  21
ENDBRANCH   9  12
ENDBRANCH   1   8
BRANCH   6  29
HETATM   29  C18 UNL     1      15.598 -14.130  16.666  1.00  0.00     0.110 C 
BRANCH  29  30
HETATM   30  C19 UNL     1      14.754 -15.347  16.672  1.00  0.00     0.129 C 
BRANCH  30  31
HETATM   31  C20 UNL     1      14.627 -16.039  17.985  1.00  0.00     0.173 C 
HETATM   32  O4  UNL     1      15.054 -17.218  18.108  1.00  0.00    -0.648 OA
HETATM   33  O5  UNL     1      14.065 -15.491  19.122  1.00  0.00    -0.648 OA
ENDBRANCH  30  31
ENDBRANCH  29  30
BRANCH  29  34
HETATM   34  C21 UNL     1      16.564 -13.986  15.555  1.00  0.00     0.086 C 
HETATM   35  C22 UNL     1      16.095 -14.828  14.343  1.00  0.00     0.032 C 
BRANCH  34  36
HETATM   36  N7  UNL     1      16.843 -12.728  15.055  1.00  0.00    -0.414 N 
ATOM     37  H7  UNL     1      17.375 -12.109  15.666  1.00  0.00     0.153 HD
BRANCH  36  38
HETATM   38  C23 UNL     1      16.484 -12.210  13.822  1.00  0.00     0.145 C 
BRANCH  38  39
HETATM   39  C24 UNL     1      16.029 -10.724  13.966  1.00  0.00     0.131 C 
HETATM   40  C25 UNL     1      16.535  -9.910  12.809  1.00  0.00     0.041 C 
BRANCH  39  41
HETATM   41  O6  UNL     1      16.456 -10.266  15.201  1.00  0.00    -0.394 OA
ATOM     42  H6  UNL     1      15.737  -9.790  15.601  1.00  0.00     0.210 HD
ENDBRANCH  39  41
ENDBRANCH  38  39
ENDBRANCH  36  38
ENDBRANCH  34  36
ENDBRANCH  29  34
ENDBRANCH   6  29
TORSDOF 18
ENDMDL
MODEL 2
REMARK VINA RESULT: -6.843973063      2.750      6.908
REMARK  18 active torsions:
REMARK  status: ('A' for Active; 'I' for Inactive)
REMARK    1  A    between atoms: C2_2  and  N1_3 
REMARK       I    between atoms: N1_3  and  C4_5 
REMARK    2  A    between atoms: C4_5  and  C5_7 
REMARK    3  A    between atoms: C5_7  and  C6_8 
REMARK    4  A    between atoms: C6_8  and  C7_9 
REMARK    5  A    between atoms: C7_9  and  C8_10 
REMARK    6  A    between atoms: C7_9  and  N5_18 
REMARK    7  A    between atoms: C8_10  and  C9_11 
REMARK    8  A    between atoms: C9_11  and  C10_12 
REMARK    9  A    between atoms: C10_12  and  N2_13 
REMARK       I    between atoms: N5_18  and  C12_20 
REMARK   10  A    between atoms: C12_20  and  C13_22 
REMARK       I    between atoms: N6_26  and  C17_27 
REMARK   11  A    between atoms: C17_27  and  C18_29 
REMARK   12  A    between atoms: C18_29  and  C19_30 
REMARK   13  A    between atoms: C18_29  and  C21_34 
REMARK   14  A    between atoms: C19_30  and  C20_31 
REMARK   15  A    between atoms: C21_34  and  N7_36 
REMARK   16  A    between atoms: N7_36  and  C23_38 
REMARK   17  A    between atoms: C23_38  and  C24_39 
REMARK   18  A    between atoms: C24_39  and  O6_41 
ROOT
HETATM    1  C13 UNL     1      12.512 -14.002  17.233  1.00  0.00     0.179 C 
HETATM    2  C14 UNL     1      13.483 -13.181  18.111  1.00  0.00     0.037 C 
HETATM    3  C15 UNL     1      14.080 -12.324  17.013  1.00  0.00     0.022 C 
HETATM    4  C16 UNL     1      12.866 -11.977  16.196  1.00  0.00     0.127 C 
HETATM    5  N6  UNL     1      11.810 -12.952  16.577  1.00  0.00    -0.338 N 
HETATM    6  C17 UNL     1      10.463 -12.660  16.290  1.00  0.00     0.227 C 
HETATM    7  O3  UNL     1      10.209 -11.635  15.614  1.00  0.00    -0.273 OA
ENDROOT
BRANCH   1   8
HETATM    8  C12 UNL     1      13.414 -14.828  16.396  1.00  0.00     0.244 C 
HETATM    9  N5  UNL     1      14.627 -15.375  16.795  1.00  0.00    -0.329 N 
ATOM     10  H5  UNL     1      14.951 -15.197  17.746  1.00  0.00     0.168 HD
HETATM   11  O2  UNL     1      12.979 -15.014  15.230  1.00  0.00    -0.271 OA
BRANCH   9  12
HETATM   12  C7  UNL     1      15.455 -16.187  15.924  1.00  0.00     0.009 C 
BRANCH  12  13
HETATM   13  C6  UNL     1      15.366 -17.614  16.270  1.00  0.00     0.066 C 
BRANCH  13  14
HETATM   14  C5  UNL     1      14.211 -18.355  15.643  1.00  0.00     0.109 C 
BRANCH  14  15
HETATM   15  C4  UNL     1      14.301 -18.347  14.161  1.00  0.00     0.219 C 
HETATM   16  N1  UNL     1      13.153 -18.218  13.364  1.00  0.00    -0.357 N 
HETATM   17  C3  UNL     1      11.837 -18.053  13.980  1.00  0.00     0.152 C 
HETATM   18  O1  UNL     1      15.422 -18.460  13.618  1.00  0.00    -0.273 OA
BRANCH  16  19
HETATM   19  C2  UNL     1      13.249 -18.241  11.900  1.00  0.00     0.120 C 
HETATM   20  C1  UNL     1      11.927 -17.843  11.258  1.00  0.00     0.026 C 
ENDBRANCH  16  19
ENDBRANCH  14  15
ENDBRANCH  13  14
ENDBRANCH  12  13
BRANCH  12  21
HETATM   21  C8  UNL     1      16.694 -15.509  15.607  1.00  0.00    -0.000 C 
BRANCH  21  22
HETATM   22  C9  UNL     1      16.852 -14.096  15.316  1.00  0.00     0.048 C 
BRANCH  22  23
HETATM   23  C10 UNL     1      16.239 -13.824  13.900  1.00  0.00     0.126 C 
BRANCH  23  24
HETATM   24  N2  UNL     1      17.096 -12.922  13.198  1.00  0.00    -0.367 N 
HETATM   25  C11 UNL     1      16.862 -11.676  13.037  1.00  0.00     0.196 C 
HETATM   26  N3  UNL     1      15.696 -11.074  13.560  1.00  0.00    -0.067 NA
HETATM   27  N4  UNL     1      17.791 -10.870  12.312  1.00  0.00    -0.067 NA
ATOM     28  H2  UNL     1      17.956 -13.299  12.799  1.00  0.00     0.161 HD
ENDBRANCH  23  24
ENDBRANCH  22  23
ENDBRANCH  21  22
ENDBRANCH  12  21
ENDBRANCH   9  12
ENDBRANCH   1   8
BRANCH   6  29
HETATM   29  C18 UNL     1       9.279 -13.506  16.748  1.00  0.00     0.110 C 
BRANCH  29  30
HETATM   30  C19 UNL     1       8.250 -12.634  17.360  1.00  0.00     0.129 C 
BRANCH  30  31
HETATM   31  C20 UNL     1       8.380 -12.416  18.829  1.00  0.00     0.173 C 
HETATM   32  O4  UNL     1       9.467 -11.986  19.298  1.00  0.00    -0.648 OA
HETATM   33  O5  UNL     1       7.386 -12.651  19.759  1.00  0.00    -0.648 OA
ENDBRANCH  30  31
ENDBRANCH  29  30
BRANCH  29  34
HETATM   34  C21 UNL     1       8.845 -14.376  15.632  1.00  0.00     0.086 C 
HETATM   35  C22 UNL     1       7.677 -13.705  14.870  1.00  0.00     0.032 C 
BRANCH  34  36
HETATM   36  N7  UNL     1       9.761 -14.750  14.666  1.00  0.00    -0.414 N 
ATOM     37  H7  UNL     1      10.742 -14.733  14.946  1.00  0.00     0.153 HD
BRANCH  36  38
HETATM   38  C23 UNL     1       9.503 -15.143  13.364  1.00  0.00     0.145 C 
BRANCH  38  39
HETATM   39  C24 UNL     1      10.375 -14.322  12.363  1.00  0.00     0.131 C 
HETATM   40  C25 UNL     1       9.934 -14.586  10.951  1.00  0.00     0.041 C 
BRANCH  39  41
HETATM   41  O6  UNL     1      11.703 -14.632  12.601  1.00  0.00    -0.394 OA
ATOM     42  H6  UNL     1      11.765 -15.004  13.473  1.00  0.00     0.210 HD
ENDBRANCH  39  41
ENDBRANCH  38  39
ENDBRANCH  36  38
ENDBRANCH  34  36
ENDBRANCH  29  34
ENDBRANCH   6  29
TORSDOF 18
ENDMDL
MODEL 3
REMARK VINA RESULT: -6.831590967      2.626      6.148
REMARK  18 active torsions:
REMARK  status: ('A' for Active; 'I' for Inactive)
REMARK    1  A    between atoms: C2_2  and  N1_3 
REMARK       I    between atoms: N1_3  and  C4_5 
REMARK    2  A    between atoms: C4_5  and  C5_7 
REMARK    3  A    between atoms: C5_7  and  C6_8 
REMARK    4  A    between atoms: C6_8  and  C7_9 
REMARK    5  A    between atoms: C7_9  and  C8_10 
REMARK    6  A    between atoms: C7_9  and  N5_18 
REMARK    7  A    between atoms: C8_10  and  C9_11 
REMARK    8  A    between atoms: C9_11  and  C10_12 
REMARK    9  A    between atoms: C10_12  and  N2_13 
REMARK       I    between atoms: N5_18  and  C12_20 
REMARK   10  A    between atoms: C12_20  and  C13_22 
REMARK       I    between atoms: N6_26  and  C17_27 
REMARK   11  A    between atoms: C17_27  and  C18_29 
REMARK   12  A    between atoms: C18_29  and  C19_30 
REMARK   13  A    between atoms: C18_29  and  C21_34 
REMARK   14  A    between atoms: C19_30  and  C20_31 
REMARK   15  A    between atoms: C21_34  and  N7_36 
REMARK   16  A    between atoms: N7_36  and  C23_38 
REMARK   17  A    between atoms: C23_38  and  C24_39 
REMARK   18  A    between atoms: C24_39  and  O6_41 
ROOT
HETATM    1  C13 UNL     1      12.487 -12.409  15.924  1.00  0.00     0.179 C 
HETATM    2  C14 UNL     1      11.952 -11.304  14.985  1.00  0.00     0.037 C 
HETATM    3  C15 UNL     1      10.648 -11.973  14.598  1.00  0.00     0.022 C 
HETATM    4  C16 UNL     1      10.188 -12.537  15.915  1.00  0.00     0.127 C 
HETATM    5  N6  UNL     1      11.380 -12.554  16.805  1.00  0.00    -0.338 N 
HETATM    6  C17 UNL     1      11.201 -12.652  18.198  1.00  0.00     0.227 C 
HETATM    7  O3  UNL     1      10.041 -12.839  18.635  1.00  0.00    -0.273 OA
ENDROOT
BRANCH   1   8
HETATM    8  C12 UNL     1      12.764 -13.540  15.007  1.00  0.00     0.244 C 
HETATM    9  N5  UNL     1      12.503 -14.882  15.260  1.00  0.00    -0.329 N 
ATOM     10  H5  UNL     1      12.090 -15.135  16.158  1.00  0.00     0.168 HD
HETATM   11  O2  UNL     1      13.281 -13.183  13.918  1.00  0.00    -0.271 OA
BRANCH   9  12
HETATM   12  C7  UNL     1      12.791 -15.938  14.308  1.00  0.00     0.009 C 
BRANCH  12  13
HETATM   13  C6  UNL     1      11.557 -16.514  13.751  1.00  0.00     0.066 C 
BRANCH  13  14
HETATM   14  C5  UNL     1      10.786 -15.604  12.827  1.00  0.00     0.109 C 
BRANCH  14  15
HETATM   15  C4  UNL     1       9.444 -15.282  13.377  1.00  0.00     0.219 C 
HETATM   16  N1  UNL     1       8.446 -14.714  12.571  1.00  0.00    -0.357 N 
HETATM   17  C3  UNL     1       8.694 -14.456  11.154  1.00  0.00     0.152 C 
HETATM   18  O1  UNL     1       9.207 -15.522  14.582  1.00  0.00    -0.273 OA
BRANCH  16  19
HETATM   19  C2  UNL     1       7.134 -14.372  13.132  1.00  0.00     0.120 C 
HETATM   20  C1  UNL     1       6.044 -14.466  12.072  1.00  0.00     0.026 C 
ENDBRANCH  16  19
ENDBRANCH  14  15
ENDBRANCH  13  14
ENDBRANCH  12  13
BRANCH  12  21
HETATM   21  C8  UNL     1      13.928 -16.726  14.736  1.00  0.00    -0.000 C 
BRANCH  21  22
HETATM   22  C9  UNL     1      15.176 -16.898  14.015  1.00  0.00     0.048 C 
BRANCH  22  23
HETATM   23  C10 UNL     1      16.204 -15.856  14.577  1.00  0.00     0.126 C 
BRANCH  23  24
HETATM   24  N2  UNL     1      16.228 -14.726  13.704  1.00  0.00    -0.367 N 
HETATM   25  C11 UNL     1      16.580 -13.547  14.054  1.00  0.00     0.196 C 
HETATM   26  N3  UNL     1      16.987 -13.264  15.376  1.00  0.00    -0.067 NA
HETATM   27  N4  UNL     1      16.561 -12.490  13.095  1.00  0.00    -0.067 NA
ATOM     28  H2  UNL     1      15.946 -14.869  12.735  1.00  0.00     0.161 HD
ENDBRANCH  23  24
ENDBRANCH  22  23
ENDBRANCH  21  22
ENDBRANCH  12  21
ENDBRANCH   9  12
ENDBRANCH   1   8
BRANCH   6  29
HETATM   29  C18 UNL     1      12.325 -12.543  19.223  1.00  0.00     0.110 C 
BRANCH  29  30
HETATM   30  C19 UNL     1      12.578 -11.117  19.536  1.00  0.00     0.129 C 
BRANCH  30  31
HETATM   31  C20 UNL     1      13.983 -10.772  19.891  1.00  0.00     0.173 C 
HETATM   32  O4  UNL     1      14.346 -10.814  21.097  1.00  0.00    -0.648 OA
HETATM   33  O5  UNL     1      14.962 -10.397  18.991  1.00  0.00    -0.648 OA
ENDBRANCH  30  31
ENDBRANCH  29  30
BRANCH  29  34
HETATM   34  C21 UNL     1      12.031 -13.439  20.363  1.00  0.00     0.086 C 
HETATM   35  C22 UNL     1      13.216 -14.411  20.582  1.00  0.00     0.032 C 
BRANCH  34  36
HETATM   36  N7  UNL     1      11.755 -12.894  21.603  1.00  0.00    -0.414 N 
ATOM     37  H7  UNL     1      10.963 -12.253  21.646  1.00  0.00     0.153 HD
BRANCH  36  38
HETATM   38  C23 UNL     1      12.429 -13.115  22.792  1.00  0.00     0.145 C 
BRANCH  38  39
HETATM   39  C24 UNL     1      12.202 -11.926  23.777  1.00  0.00     0.131 C 
HETATM   40  C25 UNL     1      11.157 -12.286  24.796  1.00  0.00     0.041 C 
BRANCH  39  41
HETATM   41  O6  UNL     1      11.888 -10.806  23.027  1.00  0.00    -0.394 OA
ATOM     42  H6  UNL     1      11.242 -10.302  23.508  1.00  0.00     0.210 HD
ENDBRANCH  39  41
ENDBRANCH  38  39
ENDBRANCH  36  38
ENDBRANCH  34  36
ENDBRANCH  29  34
ENDBRANCH   6  29
TORSDOF 18
ENDMDL
MODEL 4
REMARK VINA RESULT: -6.733866473      2.739      7.911
REMARK  18 active torsions:
REMARK  status: ('A' for Active; 'I' for Inactive)
REMARK    1  A    between atoms: C2_2  and  N1_3 
REMARK       I    between atoms: N1_3  and  C4_5 
REMARK    2  A    between atoms: C4_5  and  C5_7 
REMARK    3  A    between atoms: C5_7  and  C6_8 
REMARK    4  A    between atoms: C6_8  and  C7_9 
REMARK    5  A    between atoms: C7_9  and  C8_10 
REMARK    6  A    between atoms: C7_9  and  N5_18 
REMARK    7  A    between atoms: C8_10  and  C9_11 
REMARK    8  A    between atoms: C9_11  and  C10_12 
REMARK    9  A    between atoms: C10_12  and  N2_13 
REMARK       I    between atoms: N5_18  and  C12_20 
REMARK   10  A    between atoms: C12_20  and  C13_22 
REMARK       I    between atoms: N6_26  and  C17_27 
REMARK   11  A    between atoms: C17_27  and  C18_29 
REMARK   12  A    between atoms: C18_29  and  C19_30 
REMARK   13  A    between atoms: C18_29  and  C21_34 
REMARK   14  A    between atoms: C19_30  and  C20_31 
REMARK   15  A    between atoms: C21_34  and  N7_36 
REMARK   16  A    between atoms: N7_36  and  C23_38 
REMARK   17  A    between atoms: C23_38  and  C24_39 
REMARK   18  A    between atoms: C24_39  and  O6_41 
ROOT
HETATM    1  C13 UNL     1      11.631 -13.926  17.080  1.00  0.00     0.179 C 
HETATM    2  C14 UNL     1      11.407 -13.021  18.312  1.00  0.00     0.037 C 
HETATM    3  C15 UNL     1      12.295 -11.868  17.886  1.00  0.00     0.022 C 
HETATM    4  C16 UNL     1      11.961 -11.743  16.425  1.00  0.00     0.127 C 
HETATM    5  N6  UNL     1      11.305 -13.020  16.033  1.00  0.00    -0.338 N 
HETATM    6  C17 UNL     1      10.534 -13.067  14.856  1.00  0.00     0.227 C 
HETATM    7  O3  UNL     1      10.522 -12.057  14.113  1.00  0.00    -0.273 OA
ENDROOT
BRANCH   1   8
HETATM    8  C12 UNL     1      13.053 -14.328  17.198  1.00  0.00     0.244 C 
HETATM    9  N5  UNL     1      13.994 -14.315  16.176  1.00  0.00    -0.329 N 
ATOM     10  H5  UNL     1      13.699 -14.012  15.247  1.00  0.00     0.168 HD
HETATM   11  O2  UNL     1      13.369 -14.703  18.356  1.00  0.00    -0.271 OA
BRANCH   9  12
HETATM   12  C7  UNL     1      15.376 -14.712  16.367  1.00  0.00     0.009 C 
BRANCH  12  13
HETATM   13  C6  UNL     1      16.306 -13.722  15.801  1.00  0.00     0.066 C 
BRANCH  13  14
HETATM   14  C5  UNL     1      16.118 -13.432  14.333  1.00  0.00     0.109 C 
BRANCH  14  15
HETATM   15  C4  UNL     1      15.813 -11.998  14.096  1.00  0.00     0.219 C 
HETATM   16  N1  UNL     1      16.569 -11.233  13.195  1.00  0.00    -0.357 N 
HETATM   17  C3  UNL     1      17.661 -11.843  12.438  1.00  0.00     0.152 C 
HETATM   18  O1  UNL     1      14.864 -11.468  14.715  1.00  0.00    -0.273 OA
BRANCH  16  19
HETATM   19  C2  UNL     1      16.277  -9.810  12.991  1.00  0.00     0.120 C 
HETATM   20  C1  UNL     1      16.937  -9.292  11.719  1.00  0.00     0.026 C 
ENDBRANCH  16  19
ENDBRANCH  14  15
ENDBRANCH  13  14
ENDBRANCH  12  13
BRANCH  12  21
HETATM   21  C8  UNL     1      15.530 -16.143  16.213  1.00  0.00    -0.000 C 
BRANCH  21  22
HETATM   22  C9  UNL     1      16.730 -16.914  16.485  1.00  0.00     0.048 C 
BRANCH  22  23
HETATM   23  C10 UNL     1      17.407 -17.252  15.113  1.00  0.00     0.126 C 
BRANCH  23  24
HETATM   24  N2  UNL     1      17.560 -18.669  15.018  1.00  0.00    -0.367 N 
HETATM   25  C11 UNL     1      16.841 -19.429  14.283  1.00  0.00     0.196 C 
HETATM   26  N3  UNL     1      15.804 -18.906  13.480  1.00  0.00    -0.067 NA
HETATM   27  N4  UNL     1      17.082 -20.835  14.272  1.00  0.00    -0.067 NA
ATOM     28  H2  UNL     1      18.295 -19.105  15.575  1.00  0.00     0.161 HD
ENDBRANCH  23  24
ENDBRANCH  22  23
ENDBRANCH  21  22
ENDBRANCH  12  21
ENDBRANCH   9  12
ENDBRANCH   1   8
BRANCH   6  29
HETATM   29  C18 UNL     1       9.702 -14.268  14.417  1.00  0.00     0.110 C 
BRANCH  29  30
HETATM   30  C19 UNL     1       8.262 -13.961  14.573  1.00  0.00     0.129 C 
BRANCH  30  31
HETATM   31  C20 UNL     1       7.867 -13.366  15.881  1.00  0.00     0.173 C 
HETATM   32  O4  UNL     1       7.948 -14.062  16.928  1.00  0.00    -0.648 OA
HETATM   33  O5  UNL     1       7.402 -12.077  16.061  1.00  0.00    -0.648 OA
ENDBRANCH  30  31
ENDBRANCH  29  30
BRANCH  29  34
HETATM   34  C21 UNL     1      10.155 -14.708  13.078  1.00  0.00     0.086 C 
HETATM   35  C22 UNL     1       9.940 -16.233  12.929  1.00  0.00     0.032 C 
BRANCH  34  36
HETATM   36  N7  UNL     1       9.596 -14.136  11.951  1.00  0.00    -0.414 N 
ATOM     37  H7  UNL     1       9.379 -13.141  12.011  1.00  0.00     0.153 HD
BRANCH  36  38
HETATM   38  C23 UNL     1       9.295 -14.756  10.749  1.00  0.00     0.145 C 
BRANCH  38  39
HETATM   39  C24 UNL     1       7.865 -14.353  10.271  1.00  0.00     0.131 C 
HETATM   40  C25 UNL     1       7.922 -13.081   9.472  1.00  0.00     0.041 C 
BRANCH  39  41
HETATM   41  O6  UNL     1       7.049 -14.277  11.386  1.00  0.00    -0.394 OA
ATOM     42  H6  UNL     1       7.153 -15.081  11.881  1.00  0.00     0.210 HD
ENDBRANCH  39  41
ENDBRANCH  38  39
ENDBRANCH  36  38
ENDBRANCH  34  36
ENDBRANCH  29  34
ENDBRANCH   6  29
TORSDOF 18
ENDMDL
MODEL 5
REMARK VINA RESULT: -6.707876346      2.722      7.491
REMARK  18 active torsions:
REMARK  status: ('A' for Active; 'I' for Inactive)
REMARK    1  A    between atoms: C2_2  and  N1_3 
REMARK       I    between atoms: N1_3  and  C4_5 
REMARK    2  A    between atoms: C4_5  and  C5_7 
REMARK    3  A    between atoms: C5_7  and  C6_8 
REMARK    4  A    between atoms: C6_8  and  C7_9 
REMARK    5  A    between atoms: C7_9  and  C8_10 
REMARK    6  A    between atoms: C7_9  and  N5_18 
REMARK    7  A    between atoms: C8_10  and  C9_11 
REMARK    8  A    between atoms: C9_11  and  C10_12 
REMARK    9  A    between atoms: C10_12  and  N2_13 
REMARK       I    between atoms: N5_18  and  C12_20 
REMARK   10  A    between atoms: C12_20  and  C13_22 
REMARK       I    between atoms: N6_26  and  C17_27 
REMARK   11  A    between atoms: C17_27  and  C18_29 
REMARK   12  A    between atoms: C18_29  and  C19_30 
REMARK   13  A    between atoms: C18_29  and  C21_34 
REMARK   14  A    between atoms: C19_30  and  C20_31 
REMARK   15  A    between atoms: C21_34  and  N7_36 
REMARK   16  A    between atoms: N7_36  and  C23_38 
REMARK   17  A    between atoms: C23_38  and  C24_39 
REMARK   18  A    between atoms: C24_39  and  O6_41 
ROOT
HETATM    1  C13 UNL     1      10.758 -13.495  15.795  1.00  0.00     0.179 C 
HETATM    2  C14 UNL     1      10.809 -11.959  15.640  1.00  0.00     0.037 C 
HETATM    3  C15 UNL     1      12.196 -11.857  15.037  1.00  0.00     0.022 C 
HETATM    4  C16 UNL     1      12.195 -13.004  14.064  1.00  0.00     0.127 C 
HETATM    5  N6  UNL     1      11.076 -13.897  14.468  1.00  0.00    -0.338 N 
HETATM    6  C17 UNL     1      10.571 -14.833  13.545  1.00  0.00     0.227 C 
HETATM    7  O3  UNL     1      11.162 -14.961  12.446  1.00  0.00    -0.273 OA
ENDROOT
BRANCH   1   8
HETATM    8  C12 UNL     1      11.772 -13.774  16.839  1.00  0.00     0.244 C 
HETATM    9  N5  UNL     1      12.861 -14.628  16.715  1.00  0.00    -0.329 N 
ATOM     10  H5  UNL     1      12.989 -15.128  15.834  1.00  0.00     0.168 HD
HETATM   11  O2  UNL     1      11.569 -13.145  17.909  1.00  0.00    -0.271 OA
BRANCH   9  12
HETATM   12  C7  UNL     1      13.823 -14.844  17.779  1.00  0.00     0.009 C 
BRANCH  12  13
HETATM   13  C6  UNL     1      15.075 -14.111  17.531  1.00  0.00     0.066 C 
BRANCH  13  14
HETATM   14  C5  UNL     1      15.369 -13.815  16.082  1.00  0.00     0.109 C 
BRANCH  14  15
HETATM   15  C4  UNL     1      15.735 -12.390  15.881  1.00  0.00     0.219 C 
HETATM   16  N1  UNL     1      16.321 -11.953  14.683  1.00  0.00    -0.357 N 
HETATM   17  C3  UNL     1      16.555 -12.890  13.586  1.00  0.00     0.152 C 
HETATM   18  O1  UNL     1      15.516 -11.570  16.799  1.00  0.00    -0.273 OA
BRANCH  16  19
HETATM   19  C2  UNL     1      16.705 -10.548  14.506  1.00  0.00     0.120 C 
HETATM   20  C1  UNL     1      16.107  -9.972  13.229  1.00  0.00     0.026 C 
ENDBRANCH  16  19
ENDBRANCH  14  15
ENDBRANCH  13  14
ENDBRANCH  12  13
BRANCH  12  21
HETATM   21  C8  UNL     1      13.769 -16.209  18.258  1.00  0.00    -0.000 C 
BRANCH  21  22
HETATM   22  C9  UNL     1      14.760 -17.244  18.022  1.00  0.00     0.048 C 
BRANCH  22  23
HETATM   23  C10 UNL     1      14.206 -18.195  16.907  1.00  0.00     0.126 C 
BRANCH  23  24
HETATM   24  N2  UNL     1      14.975 -17.999  15.719  1.00  0.00    -0.367 N 
HETATM   25  C11 UNL     1      14.580 -17.334  14.701  1.00  0.00     0.196 C 
HETATM   26  N3  UNL     1      13.310 -16.718  14.674  1.00  0.00    -0.067 NA
HETATM   27  N4  UNL     1      15.434 -17.208  13.565  1.00  0.00    -0.067 NA
ATOM     28  H2  UNL     1      15.903 -18.420  15.680  1.00  0.00     0.161 HD
ENDBRANCH  23  24
ENDBRANCH  22  23
ENDBRANCH  21  22
ENDBRANCH  12  21
ENDBRANCH   9  12
ENDBRANCH   1   8
BRANCH   6  29
HETATM   29  C18 UNL     1       9.343 -15.706  13.784  1.00  0.00     0.110 C 
BRANCH  29  30
HETATM   30  C19 UNL     1       8.276 -15.341  12.824  1.00  0.00     0.129 C 
BRANCH  30  31
HETATM   31  C20 UNL     1       7.214 -14.438  13.351  1.00  0.00     0.173 C 
HETATM   32  O4  UNL     1       6.096 -14.391  12.771  1.00  0.00    -0.648 OA
HETATM   33  O5  UNL     1       7.344 -13.616  14.454  1.00  0.00    -0.648 OA
ENDBRANCH  30  31
ENDBRANCH  29  30
BRANCH  29  34
HETATM   34  C21 UNL     1       9.758 -17.126  13.820  1.00  0.00     0.086 C 
HETATM   35  C22 UNL     1       8.635 -18.013  13.230  1.00  0.00     0.032 C 
BRANCH  34  36
HETATM   36  N7  UNL     1      10.920 -17.510  13.177  1.00  0.00    -0.414 N 
ATOM     37  H7  UNL     1      11.756 -16.968  13.395  1.00  0.00     0.153 HD
BRANCH  36  38
HETATM   38  C23 UNL     1      11.082 -18.545  12.271  1.00  0.00     0.145 C 
BRANCH  38  39
HETATM   39  C24 UNL     1      12.324 -18.285  11.363  1.00  0.00     0.131 C 
HETATM   40  C25 UNL     1      13.311 -19.412  11.496  1.00  0.00     0.041 C 
BRANCH  39  41
HETATM   41  O6  UNL     1      12.843 -17.046  11.694  1.00  0.00    -0.394 OA
ATOM     42  H6  UNL     1      13.736 -17.172  11.993  1.00  0.00     0.210 HD
ENDBRANCH  39  41
ENDBRANCH  38  39
ENDBRANCH  36  38
ENDBRANCH  34  36
ENDBRANCH  29  34
ENDBRANCH   6  29
TORSDOF 18
ENDMDL
