MODEL 1
REMARK VINA RESULT: -7.692037885      0.000      0.000
REMARK  15 active torsions:
REMARK  status: ('A' for Active; 'I' for Inactive)
REMARK    1  A    between atoms: C2_2  and  C3_3 
REMARK    2  A    between atoms: C3_3  and  N1_4 
REMARK    3  A    between atoms: C3_3  and  C16_30 
REMARK    4  A    between atoms: N1_4  and  S1_6 
REMARK    5  A    between atoms: S1_6  and  N2_9 
REMARK    6  A    between atoms: N2_9  and  C4_11 
REMARK    7  A    between atoms: C4_11  and  C5_12 
REMARK    8  A    between atoms: C4_11  and  C7_14 
REMARK       I    between atoms: C7_14  and  N3_16 
REMARK    9  A    between atoms: C10_22  and  C11_23 
REMARK       I    between atoms: C11_23  and  N5_25 
REMARK   10  A    between atoms: N5_25  and  C12_26 
REMARK   11  A    between atoms: C12_26  and  C13_27 
REMARK       I    between atoms: C16_30  and  N6_32 
REMARK   12  A    between atoms: N6_32  and  C17_34 
REMARK   13  A    between atoms: C17_34  and  C18_35 
REMARK   14  A    between atoms: C17_34  and  C20_38 
REMARK   15  A    between atoms: C18_35  and  C19_36 
ROOT
HETATM    1  N2  UNL     1       9.893 -13.325  13.991  1.00  0.00    -0.289 N 
ATOM      2  H2  UNL     1       9.609 -12.946  13.087  1.00  0.00     0.174 HD
ENDROOT
BRANCH   1   3
HETATM    3  S1  UNL     1      11.492 -13.227  14.590  1.00  0.00     0.316 S 
HETATM    4  O1  UNL     1      11.691 -14.569  15.342  1.00  0.00    -0.183 OA
HETATM    5  O2  UNL     1      12.542 -13.349  13.491  1.00  0.00    -0.183 OA
BRANCH   3   6
HETATM    6  N1  UNL     1      11.835 -12.047  15.738  1.00  0.00    -0.289 N 
ATOM      7  H1  UNL     1      11.467 -11.099  15.647  1.00  0.00     0.174 HD
BRANCH   6   8
HETATM    8  C3  UNL     1      12.647 -12.412  16.832  1.00  0.00     0.186 C 
BRANCH   8   9
HETATM    9  C2  UNL     1      12.185 -11.759  18.099  1.00  0.00     0.031 C 
HETATM   10  C1  UNL     1      11.205 -12.651  18.831  1.00  0.00     0.007 C 
ENDBRANCH   8   9
BRANCH   8  11
HETATM   11  C16 UNL     1      14.112 -12.030  16.610  1.00  0.00     0.241 C 
HETATM   12  O6  UNL     1      14.756 -11.866  17.644  1.00  0.00    -0.271 OA
HETATM   13  N6  UNL     1      14.608 -11.892  15.332  1.00  0.00    -0.345 N 
ATOM     14  H6  UNL     1      14.034 -12.030  14.501  1.00  0.00     0.163 HD
BRANCH  13  15
HETATM   15  C17 UNL     1      16.084 -11.515  15.262  1.00  0.00     0.186 C 
BRANCH  15  16
HETATM   16  C18 UNL     1      16.738 -12.834  15.032  1.00  0.00     0.051 C 
BRANCH  16  17
HETATM   17  C19 UNL     1      16.315 -13.693  13.909  1.00  0.00     0.117 C 
HETATM   18 CL1  UNL     1      16.307 -15.416  14.141  1.00  0.00    -0.130 Cl
ENDBRANCH  16  17
ENDBRANCH  15  16
BRANCH  15  19
HETATM   19  C20 UNL     1      16.226 -10.533  14.176  1.00  0.00     0.196 C 
HETATM   20  O7  UNL     1      15.150  -9.709  14.038  1.00  0.00    -0.646 OA
HETATM   21  O8  UNL     1      17.176 -10.277  13.299  1.00  0.00    -0.646 OA
ENDBRANCH  15  19
ENDBRANCH  13  15
ENDBRANCH   8  11
ENDBRANCH   6   8
ENDBRANCH   3   6
ENDBRANCH   1   3
BRANCH   1  22
HETATM   22  C4  UNL     1       8.971 -14.004  14.897  1.00  0.00     0.186 C 
BRANCH  22  23
HETATM   23  C5  UNL     1       8.135 -12.967  15.634  1.00  0.00     0.031 C 
HETATM   24  C6  UNL     1       8.018 -13.157  17.104  1.00  0.00     0.007 C 
ENDBRANCH  22  23
BRANCH  22  25
HETATM   25  C7  UNL     1       8.179 -14.968  14.129  1.00  0.00     0.245 C 
HETATM   26  O3  UNL     1       6.969 -14.658  13.820  1.00  0.00    -0.271 OA
HETATM   27  N3  UNL     1       8.569 -16.255  13.661  1.00  0.00    -0.311 N 
HETATM   28  C8  UNL     1       9.905 -16.805  13.810  1.00  0.00     0.253 C 
HETATM   29  C10 UNL     1       7.776 -17.240  12.999  1.00  0.00     0.288 C 
HETATM   30  N4  UNL     1       9.846 -18.140  13.131  1.00  0.00    -0.343 N 
HETATM   31  C9  UNL     1       8.799 -17.935  12.129  1.00  0.00     0.252 C 
ATOM     32  H4  UNL     1      10.395 -18.979  13.319  1.00  0.00     0.164 HD
HETATM   33  O4  UNL     1       8.849 -18.257  10.958  1.00  0.00    -0.271 OA
BRANCH  29  34
HETATM   34  C11 UNL     1       6.591 -16.825  12.199  1.00  0.00     0.319 C 
HETATM   35  O5  UNL     1       5.512 -17.308  12.632  1.00  0.00    -0.255 OA
HETATM   36  N5  UNL     1       6.787 -16.010  11.155  1.00  0.00    -0.413 NA
BRANCH  36  37
HETATM   37  C12 UNL     1       6.944 -15.155  10.047  1.00  0.00     0.225 C 
BRANCH  37  38
HETATM   38  C13 UNL     1       7.857 -13.940  10.304  1.00  0.00     0.008 C 
HETATM   39  C14 UNL     1       7.920 -13.015   9.123  1.00  0.00     0.012 C 
HETATM   40  C15 UNL     1       9.266 -14.375  10.632  1.00  0.00     0.012 C 
ENDBRANCH  37  38
ENDBRANCH  36  37
ENDBRANCH  29  34
ENDBRANCH  22  25
ENDBRANCH   1  22
TORSDOF 15
ENDMDL
MODEL 2
REMARK VINA RESULT: -7.570478732      3.795      7.411
REMARK  15 active torsions:
REMARK  status: ('A' for Active; 'I' for Inactive)
REMARK    1  A    between atoms: C2_2  and  C3_3 
REMARK    2  A    between atoms: C3_3  and  N1_4 
REMARK    3  A    between atoms: C3_3  and  C16_30 
REMARK    4  A    between atoms: N1_4  and  S1_6 
REMARK    5  A    between atoms: S1_6  and  N2_9 
REMARK    6  A    between atoms: N2_9  and  C4_11 
REMARK    7  A    between atoms: C4_11  and  C5_12 
REMARK    8  A    between atoms: C4_11  and  C7_14 
REMARK       I    between atoms: C7_14  and  N3_16 
REMARK    9  A    between atoms: C10_22  and  C11_23 
REMARK       I    between atoms: C11_23  and  N5_25 
REMARK   10  A    between atoms: N5_25  and  C12_26 
REMARK   11  A    between atoms: C12_26  and  C13_27 
REMARK       I    between atoms: C16_30  and  N6_32 
REMARK   12  A    between atoms: N6_32  and  C17_34 
REMARK   13  A    between atoms: C17_34  and  C18_35 
REMARK   14  A    between atoms: C17_34  and  C20_38 
REMARK   15  A    between atoms: C18_35  and  C19_36 
ROOT
HETATM    1  N2  UNL     1      12.028 -14.712  16.465  1.00  0.00    -0.289 N 
ATOM      2  H2  UNL     1      11.909 -15.359  17.244  1.00  0.00     0.174 HD
ENDROOT
BRANCH   1   3
HETATM    3  S1  UNL     1      13.179 -14.944  15.220  1.00  0.00     0.316 S 
HETATM    4  O1  UNL     1      12.663 -16.198  14.465  1.00  0.00    -0.183 OA
HETATM    5  O2  UNL     1      13.087 -13.886  14.127  1.00  0.00    -0.183 OA
BRANCH   3   6
HETATM    6  N1  UNL     1      14.753 -15.338  15.663  1.00  0.00    -0.289 N 
ATOM      7  H1  UNL     1      14.979 -15.613  16.619  1.00  0.00     0.174 HD
BRANCH   6   8
HETATM    8  C3  UNL     1      15.749 -15.277  14.666  1.00  0.00     0.186 C 
BRANCH   8   9
HETATM    9  C2  UNL     1      16.788 -16.338  14.865  1.00  0.00     0.031 C 
HETATM   10  C1  UNL     1      16.438 -17.209  16.053  1.00  0.00     0.007 C 
ENDBRANCH   8   9
BRANCH   8  11
HETATM   11  C16 UNL     1      16.457 -13.920  14.647  1.00  0.00     0.241 C 
HETATM   12  O6  UNL     1      17.252 -13.749  15.568  1.00  0.00    -0.271 OA
HETATM   13  N6  UNL     1      16.181 -13.007  13.654  1.00  0.00    -0.345 N 
ATOM     14  H6  UNL     1      15.506 -13.188  12.911  1.00  0.00     0.163 HD
BRANCH  13  15
HETATM   15  C17 UNL     1      16.965 -11.702  13.756  1.00  0.00     0.186 C 
BRANCH  15  16
HETATM   16  C18 UNL     1      17.260 -11.396  12.329  1.00  0.00     0.051 C 
BRANCH  16  17
HETATM   17  C19 UNL     1      17.793 -10.077  11.940  1.00  0.00     0.117 C 
HETATM   18 CL1  UNL     1      16.671  -8.838  11.458  1.00  0.00    -0.130 Cl
ENDBRANCH  16  17
ENDBRANCH  15  16
BRANCH  15  19
HETATM   19  C20 UNL     1      16.101 -10.736  14.451  1.00  0.00     0.196 C 
HETATM   20  O7  UNL     1      14.778 -10.870  14.155  1.00  0.00    -0.646 OA
HETATM   21  O8  UNL     1      16.331  -9.758  15.304  1.00  0.00    -0.646 OA
ENDBRANCH  15  19
ENDBRANCH  13  15
ENDBRANCH   8  11
ENDBRANCH   6   8
ENDBRANCH   3   6
ENDBRANCH   1   3
BRANCH   1  22
HETATM   22  C4  UNL     1      11.233 -13.498  16.304  1.00  0.00     0.186 C 
BRANCH  22  23
HETATM   23  C5  UNL     1       9.802 -13.878  15.946  1.00  0.00     0.031 C 
HETATM   24  C6  UNL     1       9.483 -13.896  14.495  1.00  0.00     0.007 C 
ENDBRANCH  22  23
BRANCH  22  25
HETATM   25  C7  UNL     1      11.346 -12.695  17.525  1.00  0.00     0.245 C 
HETATM   26  O3  UNL     1      10.303 -12.556  18.265  1.00  0.00    -0.271 OA
HETATM   27  N3  UNL     1      12.490 -12.014  18.028  1.00  0.00    -0.311 N 
HETATM   28  C8  UNL     1      13.808 -12.078  17.421  1.00  0.00     0.253 C 
HETATM   29  C10 UNL     1      12.586 -11.151  19.161  1.00  0.00     0.288 C 
HETATM   30  N4  UNL     1      14.681 -11.252  18.318  1.00  0.00    -0.343 N 
HETATM   31  C9  UNL     1      14.010 -11.380  19.612  1.00  0.00     0.252 C 
ATOM     32  H4  UNL     1      15.527 -10.732  18.085  1.00  0.00     0.164 HD
HETATM   33  O4  UNL     1      14.542 -11.619  20.679  1.00  0.00    -0.271 OA
BRANCH  29  34
HETATM   34  C11 UNL     1      11.636 -11.307  20.297  1.00  0.00     0.319 C 
HETATM   35  O5  UNL     1      10.928 -10.283  20.490  1.00  0.00    -0.255 OA
HETATM   36  N5  UNL     1      11.627 -12.471  20.958  1.00  0.00    -0.413 NA
BRANCH  36  37
HETATM   37  C12 UNL     1      11.583 -13.678  21.683  1.00  0.00     0.225 C 
BRANCH  37  38
HETATM   38  C13 UNL     1      12.809 -14.588  21.482  1.00  0.00     0.008 C 
HETATM   39  C14 UNL     1      13.020 -14.949  20.040  1.00  0.00     0.012 C 
HETATM   40  C15 UNL     1      12.674 -15.870  22.268  1.00  0.00     0.012 C 
ENDBRANCH  37  38
ENDBRANCH  36  37
ENDBRANCH  29  34
ENDBRANCH  22  25
ENDBRANCH   1  22
TORSDOF 15
ENDMDL
MODEL 3
REMARK VINA RESULT: -7.388941501      4.675      7.941
REMARK  15 active torsions:
REMARK  status: ('A' for Active; 'I' for Inactive)
REMARK    1  A    between atoms: C2_2  and  C3_3 
REMARK    2  A    between atoms: C3_3  and  N1_4 
REMARK    3  A    between atoms: C3_3  and  C16_30 
REMARK    4  A    between atoms: N1_4  and  S1_6 
REMARK    5  A    between atoms: S1_6  and  N2_9 
REMARK    6  A    between atoms: N2_9  and  C4_11 
REMARK    7  A    between atoms: C4_11  and  C5_12 
REMARK    8  A    between atoms: C4_11  and  C7_14 
REMARK       I    between atoms: C7_14  and  N3_16 
REMARK    9  A    between atoms: C10_22  and  C11_23 
REMARK       I    between atoms: C11_23  and  N5_25 
REMARK   10  A    between atoms: N5_25  and  C12_26 
REMARK   11  A    between atoms: C12_26  and  C13_27 
REMARK       I    between atoms: C16_30  and  N6_32 
REMARK   12  A    between atoms: N6_32  and  C17_34 
REMARK   13  A    between atoms: C17_34  and  C18_35 
REMARK   14  A    between atoms: C17_34  and  C20_38 
REMARK   15  A    between atoms: C18_35  and  C19_36 
ROOT
HETATM    1  N2  UNL     1      10.930 -13.406  17.711  1.00  0.00    -0.289 N 
ATOM      2  H2  UNL     1      10.541 -14.348  17.723  1.00  0.00     0.174 HD
ENDROOT
BRANCH   1   3
HETATM    3  S1  UNL     1      12.332 -12.980  16.829  1.00  0.00     0.316 S 
HETATM    4  O1  UNL     1      12.173 -13.742  15.487  1.00  0.00    -0.183 OA
HETATM    5  O2  UNL     1      12.311 -11.534  16.349  1.00  0.00    -0.183 OA
BRANCH   3   6
HETATM    6  N1  UNL     1      13.823 -13.484  17.423  1.00  0.00    -0.289 N 
ATOM      7  H1  UNL     1      14.120 -13.250  18.371  1.00  0.00     0.174 HD
BRANCH   6   8
HETATM    8  C3  UNL     1      14.648 -14.242  16.567  1.00  0.00     0.186 C 
BRANCH   8   9
HETATM    9  C2  UNL     1      15.305 -15.372  17.299  1.00  0.00     0.031 C 
HETATM   10  C1  UNL     1      14.364 -15.957  18.330  1.00  0.00     0.007 C 
ENDBRANCH   8   9
BRANCH   8  11
HETATM   11  C16 UNL     1      15.748 -13.390  15.929  1.00  0.00     0.241 C 
HETATM   12  O6  UNL     1      16.889 -13.792  16.141  1.00  0.00    -0.271 OA
HETATM   13  N6  UNL     1      15.421 -12.273  15.192  1.00  0.00    -0.345 N 
ATOM     14  H6  UNL     1      14.458 -11.971  15.047  1.00  0.00     0.163 HD
BRANCH  13  15
HETATM   15  C17 UNL     1      16.616 -11.525  14.610  1.00  0.00     0.186 C 
BRANCH  15  16
HETATM   16  C18 UNL     1      16.676 -12.056  13.219  1.00  0.00     0.051 C 
BRANCH  16  17
HETATM   17  C19 UNL     1      17.755 -11.637  12.303  1.00  0.00     0.117 C 
HETATM   18 CL1  UNL     1      17.504 -10.227  11.316  1.00  0.00    -0.130 Cl
ENDBRANCH  16  17
ENDBRANCH  15  16
BRANCH  15  19
HETATM   19  C20 UNL     1      16.325 -10.089  14.733  1.00  0.00     0.196 C 
HETATM   20  O7  UNL     1      15.285  -9.671  13.958  1.00  0.00    -0.646 OA
HETATM   21  O8  UNL     1      16.858  -9.109  15.436  1.00  0.00    -0.646 OA
ENDBRANCH  15  19
ENDBRANCH  13  15
ENDBRANCH   8  11
ENDBRANCH   6   8
ENDBRANCH   3   6
ENDBRANCH   1   3
BRANCH   1  22
HETATM   22  C4  UNL     1      10.342 -12.289  18.446  1.00  0.00     0.186 C 
BRANCH  22  23
HETATM   23  C5  UNL     1       8.824 -12.385  18.378  1.00  0.00     0.031 C 
HETATM   24  C6  UNL     1       8.274 -13.061  17.174  1.00  0.00     0.007 C 
ENDBRANCH  22  23
BRANCH  22  25
HETATM   25  C7  UNL     1      10.877 -12.289  19.811  1.00  0.00     0.245 C 
HETATM   26  O3  UNL     1      10.324 -13.056  20.684  1.00  0.00    -0.271 OA
HETATM   27  N3  UNL     1      11.960 -11.528  20.332  1.00  0.00    -0.311 N 
HETATM   28  C8  UNL     1      12.797 -10.649  19.534  1.00  0.00     0.253 C 
HETATM   29  C10 UNL     1      12.425 -11.447  21.680  1.00  0.00     0.288 C 
HETATM   30  N4  UNL     1      13.814 -10.112  20.497  1.00  0.00    -0.343 N 
HETATM   31  C9  UNL     1      13.901 -11.185  21.489  1.00  0.00     0.252 C 
ATOM     32  H4  UNL     1      14.316  -9.226  20.468  1.00  0.00     0.164 HD
HETATM   33  O4  UNL     1      14.921 -11.661  21.948  1.00  0.00    -0.271 OA
BRANCH  29  34
HETATM   34  C11 UNL     1      12.203 -12.587  22.611  1.00  0.00     0.319 C 
HETATM   35  O5  UNL     1      11.476 -12.285  23.595  1.00  0.00    -0.255 OA
HETATM   36  N5  UNL     1      12.767 -13.765  22.315  1.00  0.00    -0.413 NA
BRANCH  36  37
HETATM   37  C12 UNL     1      13.341 -15.022  22.045  1.00  0.00     0.225 C 
BRANCH  37  38
HETATM   38  C13 UNL     1      12.329 -16.110  21.635  1.00  0.00     0.008 C 
HETATM   39  C14 UNL     1      11.226 -16.270  22.641  1.00  0.00     0.012 C 
HETATM   40  C15 UNL     1      13.005 -17.450  21.467  1.00  0.00     0.012 C 
ENDBRANCH  37  38
ENDBRANCH  36  37
ENDBRANCH  29  34
ENDBRANCH  22  25
ENDBRANCH   1  22
TORSDOF 15
ENDMDL
MODEL 4
REMARK VINA RESULT: -7.388401358      2.395      2.926
REMARK  15 active torsions:
REMARK  status: ('A' for Active; 'I' for Inactive)
REMARK    1  A    between atoms: C2_2  and  C3_3 
REMARK    2  A    between atoms: C3_3  and  N1_4 
REMARK    3  A    between atoms: C3_3  and  C16_30 
REMARK    4  A    between atoms: N1_4  and  S1_6 
REMARK    5  A    between atoms: S1_6  and  N2_9 
REMARK    6  A    between atoms: N2_9  and  C4_11 
REMARK    7  A    between atoms: C4_11  and  C5_12 
REMARK    8  A    between atoms: C4_11  and  C7_14 
REMARK       I    between atoms: C7_14  and  N3_16 
REMARK    9  A    between atoms: C10_22  and  C11_23 
REMARK       I    between atoms: C11_23  and  N5_25 
REMARK   10  A    between atoms: N5_25  and  C12_26 
REMARK   11  A    between atoms: C12_26  and  C13_27 
REMARK       I    between atoms: C16_30  and  N6_32 
REMARK   12  A    between atoms: N6_32  and  C17_34 
REMARK   13  A    between atoms: C17_34  and  C18_35 
REMARK   14  A    between atoms: C17_34  and  C20_38 
REMARK   15  A    between atoms: C18_35  and  C19_36 
ROOT
HETATM    1  N2  UNL     1      10.182 -12.564  15.764  1.00  0.00    -0.289 N 
ATOM      2  H2  UNL     1       9.575 -11.745  15.733  1.00  0.00     0.174 HD
ENDROOT
BRANCH   1   3
HETATM    3  S1  UNL     1      11.890 -12.468  15.743  1.00  0.00     0.316 S 
HETATM    4  O1  UNL     1      12.235 -12.296  14.240  1.00  0.00    -0.183 OA
HETATM    5  O2  UNL     1      12.414 -11.156  16.316  1.00  0.00    -0.183 OA
BRANCH   3   6
HETATM    6  N1  UNL     1      12.763 -13.823  16.222  1.00  0.00    -0.289 N 
ATOM      7  H1  UNL     1      12.561 -14.297  17.103  1.00  0.00     0.174 HD
BRANCH   6   8
HETATM    8  C3  UNL     1      13.785 -14.282  15.364  1.00  0.00     0.186 C 
BRANCH   8   9
HETATM    9  C2  UNL     1      14.330 -15.601  15.820  1.00  0.00     0.031 C 
HETATM   10  C1  UNL     1      14.852 -16.397  14.643  1.00  0.00     0.007 C 
ENDBRANCH   8   9
BRANCH   8  11
HETATM   11  C16 UNL     1      14.949 -13.293  15.280  1.00  0.00     0.241 C 
HETATM   12  O6  UNL     1      15.552 -13.126  16.338  1.00  0.00    -0.271 OA
HETATM   13  N6  UNL     1      15.246 -12.670  14.088  1.00  0.00    -0.345 N 
ATOM     14  H6  UNL     1      14.713 -12.832  13.234  1.00  0.00     0.163 HD
BRANCH  13  15
HETATM   15  C17 UNL     1      16.435 -11.717  14.149  1.00  0.00     0.186 C 
BRANCH  15  16
HETATM   16  C18 UNL     1      17.104 -11.958  12.840  1.00  0.00     0.051 C 
BRANCH  16  17
HETATM   17  C19 UNL     1      17.955 -10.918  12.231  1.00  0.00     0.117 C 
HETATM   18 CL1  UNL     1      17.196  -9.676  11.279  1.00  0.00    -0.130 Cl
ENDBRANCH  16  17
ENDBRANCH  15  16
BRANCH  15  19
HETATM   19  C20 UNL     1      15.892 -10.365  14.349  1.00  0.00     0.196 C 
HETATM   20  O7  UNL     1      16.582  -9.625  15.261  1.00  0.00    -0.646 OA
HETATM   21  O8  UNL     1      14.872  -9.708  13.833  1.00  0.00    -0.646 OA
ENDBRANCH  15  19
ENDBRANCH  13  15
ENDBRANCH   8  11
ENDBRANCH   6   8
ENDBRANCH   3   6
ENDBRANCH   1   3
BRANCH   1  22
HETATM   22  C4  UNL     1       9.676 -13.932  15.830  1.00  0.00     0.186 C 
BRANCH  22  23
HETATM   23  C5  UNL     1       8.292 -13.926  16.465  1.00  0.00     0.031 C 
HETATM   24  C6  UNL     1       7.976 -12.747  17.313  1.00  0.00     0.007 C 
ENDBRANCH  22  23
BRANCH  22  25
HETATM   25  C7  UNL     1       9.709 -14.512  14.484  1.00  0.00     0.245 C 
HETATM   26  O3  UNL     1       9.189 -13.844  13.516  1.00  0.00    -0.271 OA
HETATM   27  N3  UNL     1      10.253 -15.764  14.079  1.00  0.00    -0.311 N 
HETATM   28  C8  UNL     1      10.964 -16.669  14.965  1.00  0.00     0.253 C 
HETATM   29  C10 UNL     1      10.204 -16.381  12.792  1.00  0.00     0.288 C 
HETATM   30  N4  UNL     1      11.379 -17.812  14.088  1.00  0.00    -0.343 N 
HETATM   31  C9  UNL     1      11.489 -17.176  12.775  1.00  0.00     0.252 C 
ATOM     32  H4  UNL     1      11.544 -18.786  14.343  1.00  0.00     0.164 HD
HETATM   33  O4  UNL     1      12.403 -17.308  11.984  1.00  0.00    -0.271 OA
BRANCH  29  34
HETATM   34  C11 UNL     1      10.080 -15.541  11.570  1.00  0.00     0.319 C 
HETATM   35  O5  UNL     1      11.088 -14.813  11.368  1.00  0.00    -0.255 OA
HETATM   36  N5  UNL     1       8.963 -15.649  10.839  1.00  0.00    -0.413 NA
BRANCH  36  37
HETATM   37  C12 UNL     1       7.806 -15.728  10.040  1.00  0.00     0.225 C 
BRANCH  37  38
HETATM   38  C13 UNL     1       6.975 -14.431   9.992  1.00  0.00     0.008 C 
HETATM   39  C14 UNL     1       7.800 -13.239   9.603  1.00  0.00     0.012 C 
HETATM   40  C15 UNL     1       6.336 -14.141  11.329  1.00  0.00     0.012 C 
ENDBRANCH  37  38
ENDBRANCH  36  37
ENDBRANCH  29  34
ENDBRANCH  22  25
ENDBRANCH   1  22
TORSDOF 15
ENDMDL
MODEL 5
REMARK VINA RESULT: -7.356332548      1.780      2.214
REMARK  15 active torsions:
REMARK  status: ('A' for Active; 'I' for Inactive)
REMARK    1  A    between atoms: C2_2  and  C3_3 
REMARK    2  A    between atoms: C3_3  and  N1_4 
REMARK    3  A    between atoms: C3_3  and  C16_30 
REMARK    4  A    between atoms: N1_4  and  S1_6 
REMARK    5  A    between atoms: S1_6  and  N2_9 
REMARK    6  A    between atoms: N2_9  and  C4_11 
REMARK    7  A    between atoms: C4_11  and  C5_12 
REMARK    8  A    between atoms: C4_11  and  C7_14 
REMARK       I    between atoms: C7_14  and  N3_16 
REMARK    9  A    between atoms: C10_22  and  C11_23 
REMARK       I    between atoms: C11_23  and  N5_25 
REMARK   10  A    between atoms: N5_25  and  C12_26 
REMARK   11  A    between atoms: C12_26  and  C13_27 
REMARK       I    between atoms: C16_30  and  N6_32 
REMARK   12  A    between atoms: N6_32  and  C17_34 
REMARK   13  A    between atoms: C17_34  and  C18_35 
REMARK   14  A    between atoms: C17_34  and  C20_38 
REMARK   15  A    between atoms: C18_35  and  C19_36 
ROOT
HETATM    1  N2  UNL     1       9.654 -13.232  14.014  1.00  0.00    -0.289 N 
ATOM      2  H2  UNL     1       9.269 -12.681  13.247  1.00  0.00     0.174 HD
ENDROOT
BRANCH   1   3
HETATM    3  S1  UNL     1      11.328 -13.332  14.351  1.00  0.00     0.316 S 
HETATM    4  O1  UNL     1      11.960 -13.726  12.990  1.00  0.00    -0.183 OA
HETATM    5  O2  UNL     1      11.964 -11.967  14.585  1.00  0.00    -0.183 OA
BRANCH   3   6
HETATM    6  N1  UNL     1      11.850 -14.524  15.417  1.00  0.00    -0.289 N 
ATOM      7  H1  UNL     1      11.341 -14.720  16.279  1.00  0.00     0.174 HD
BRANCH   6   8
HETATM    8  C3  UNL     1      13.014 -15.243  15.077  1.00  0.00     0.186 C 
BRANCH   8   9
HETATM    9  C2  UNL     1      13.160 -16.476  15.916  1.00  0.00     0.031 C 
HETATM   10  C1  UNL     1      13.549 -17.661  15.058  1.00  0.00     0.007 C 
ENDBRANCH   8   9
BRANCH   8  11
HETATM   11  C16 UNL     1      14.280 -14.401  15.252  1.00  0.00     0.241 C 
HETATM   12  O6  UNL     1      14.811 -14.505  16.354  1.00  0.00    -0.271 OA
HETATM   13  N6  UNL     1      14.733 -13.607  14.221  1.00  0.00    -0.345 N 
ATOM     14  H6  UNL     1      14.255 -13.544  13.322  1.00  0.00     0.163 HD
BRANCH  13  15
HETATM   15  C17 UNL     1      16.008 -12.829  14.533  1.00  0.00     0.186 C 
BRANCH  15  16
HETATM   16  C18 UNL     1      16.765 -12.933  13.255  1.00  0.00     0.051 C 
BRANCH  16  17
HETATM   17  C19 UNL     1      17.845 -11.978  12.943  1.00  0.00     0.117 C 
HETATM   18 CL1  UNL     1      17.530 -10.718  11.786  1.00  0.00    -0.130 Cl
ENDBRANCH  16  17
ENDBRANCH  15  16
BRANCH  15  19
HETATM   19  C20 UNL     1      15.597 -11.472  14.923  1.00  0.00     0.196 C 
HETATM   20  O7  UNL     1      15.795 -11.196  16.243  1.00  0.00    -0.646 OA
HETATM   21  O8  UNL     1      15.074 -10.455  14.268  1.00  0.00    -0.646 OA
ENDBRANCH  15  19
ENDBRANCH  13  15
ENDBRANCH   8  11
ENDBRANCH   6   8
ENDBRANCH   3   6
ENDBRANCH   1   3
BRANCH   1  22
HETATM   22  C4  UNL     1       8.827 -14.014  14.930  1.00  0.00     0.186 C 
BRANCH  22  23
HETATM   23  C5  UNL     1       7.973 -13.070  15.765  1.00  0.00     0.031 C 
HETATM   24  C6  UNL     1       8.011 -13.294  17.234  1.00  0.00     0.007 C 
ENDBRANCH  22  23
BRANCH  22  25
HETATM   25  C7  UNL     1       8.052 -14.985  14.153  1.00  0.00     0.245 C 
HETATM   26  O3  UNL     1       6.865 -14.661  13.777  1.00  0.00    -0.271 OA
HETATM   27  N3  UNL     1       8.437 -16.292  13.742  1.00  0.00    -0.311 N 
HETATM   28  C8  UNL     1       9.752 -16.864  13.971  1.00  0.00     0.253 C 
HETATM   29  C10 UNL     1       7.655 -17.282  13.072  1.00  0.00     0.288 C 
HETATM   30  N4  UNL     1       9.696 -18.218  13.329  1.00  0.00    -0.343 N 
HETATM   31  C9  UNL     1       8.703 -18.023  12.273  1.00  0.00     0.252 C 
ATOM     32  H4  UNL     1      10.218 -19.061  13.568  1.00  0.00     0.164 HD
HETATM   33  O4  UNL     1       8.801 -18.381  11.116  1.00  0.00    -0.271 OA
BRANCH  29  34
HETATM   34  C11 UNL     1       6.518 -16.868  12.205  1.00  0.00     0.319 C 
HETATM   35  O5  UNL     1       5.415 -17.350  12.576  1.00  0.00    -0.255 OA
HETATM   36  N5  UNL     1       6.774 -16.054  11.172  1.00  0.00    -0.413 NA
BRANCH  36  37
HETATM   37  C12 UNL     1       6.995 -15.200  10.074  1.00  0.00     0.225 C 
BRANCH  37  38
HETATM   38  C13 UNL     1       7.895 -13.988  10.380  1.00  0.00     0.008 C 
HETATM   39  C14 UNL     1       7.922 -12.999   9.251  1.00  0.00     0.012 C 
HETATM   40  C15 UNL     1       9.315 -14.417  10.660  1.00  0.00     0.012 C 
ENDBRANCH  37  38
ENDBRANCH  36  37
ENDBRANCH  29  34
ENDBRANCH  22  25
ENDBRANCH   1  22
TORSDOF 15
ENDMDL
