MODEL 1
REMARK VINA RESULT: -9.733658098      0.000      0.000
REMARK  10 active torsions:
REMARK  status: ('A' for Active; 'I' for Inactive)
REMARK    1  A    between atoms: C4_10  and  O2_11 
REMARK    2  A    between atoms: C5_13  and  C6_14 
REMARK    3  A    between atoms: C6_14  and  C7_15 
REMARK    4  A    between atoms: C7_15  and  N4_16 
REMARK    5  A    between atoms: C7_15  and  C10_21 
REMARK       I    between atoms: N4_16  and  C8_18 
REMARK    6  A    between atoms: N7_26  and  C11_27 
REMARK    7  A    between atoms: C14_30  and  O4_31 
REMARK    8  A    between atoms: C17_34  and  C18_35 
REMARK    9  A    between atoms: C19_36  and  C20_37 
REMARK   10  A    between atoms: C21_46  and  O5_47 
ROOT
HETATM    1  C1  UNL     1       1.508  -8.682   8.468  1.00  0.00     0.231 C 
HETATM    2  N1  UNL     1       2.439  -9.610   8.626  1.00  0.00    -0.410 NA
HETATM    3  C2  UNL     1       3.292 -10.440   8.836  1.00  0.00     0.191 A 
HETATM    4  N2  UNL     1       3.686 -11.182   7.718  1.00  0.00    -0.283 N 
ATOM      5  H2  UNL     1       3.254 -11.002   6.812  1.00  0.00     0.173 HD
HETATM    6  C3  UNL     1       4.617 -12.117   7.832  1.00  0.00     0.328 A 
HETATM    7  O1  UNL     1       4.996 -12.813   6.827  1.00  0.00    -0.247 OA
HETATM    8  N3  UNL     1       5.198 -12.372   9.019  1.00  0.00    -0.288 N 
ATOM      9  H3  UNL     1       5.911 -13.098   9.084  1.00  0.00     0.172 HD
HETATM   10  C4  UNL     1       4.854 -11.689  10.108  1.00  0.00     0.155 A 
HETATM   11  C5  UNL     1       3.880 -10.691  10.048  1.00  0.00     0.053 A 
ENDROOT
BRANCH  11  12
HETATM   12  C6  UNL     1       3.533  -9.970  11.319  1.00  0.00     0.080 C 
BRANCH  12  13
HETATM   13  C7  UNL     1       4.482  -8.853  11.669  1.00  0.00     0.145 C 
BRANCH  13  14
HETATM   14  N4  UNL     1       4.458  -8.756  13.151  1.00  0.00    -0.351 N 
HETATM   15  C8  UNL     1       4.976  -9.633  14.065  1.00  0.00     0.214 C 
HETATM   16  C9  UNL     1       4.842  -9.326  15.546  1.00  0.00     0.117 C 
HETATM   17  O3  UNL     1       5.567 -10.690  13.800  1.00  0.00    -0.274 OA
ATOM     18  H4  UNL     1       3.997  -7.931  13.536  1.00  0.00     0.163 HD
ENDBRANCH  13  14
BRANCH  13  19
HETATM   19  C10 UNL     1       3.703  -7.590  11.295  1.00  0.00     0.102 A 
HETATM   20  N5  UNL     1       4.076  -6.720  10.336  1.00  0.00    -0.284 N 
HETATM   21  N6  UNL     1       3.073  -5.887  10.162  1.00  0.00    -0.233 N 
ATOM     22  H5  UNL     1       4.966  -6.710   9.839  1.00  0.00     0.188 HD
HETATM   23  N7  UNL     1       2.047  -6.195  10.999  1.00  0.00    -0.217 N 
ATOM     24  H6  UNL     1       3.066  -5.117   9.494  1.00  0.00     0.209 HD
HETATM   25  C21 UNL     1       2.438  -7.236  11.695  1.00  0.00     0.190 A 
BRANCH  23  26
HETATM   26  C11 UNL     1       0.861  -5.451  10.992  1.00  0.00     0.070 A 
HETATM   27  C12 UNL     1       0.150  -5.381   9.774  1.00  0.00     0.035 A 
HETATM   28  C13 UNL     1      -1.032  -4.704   9.651  1.00  0.00     0.039 A 
HETATM   29  C14 UNL     1      -1.552  -4.067  10.740  1.00  0.00     0.069 A 
HETATM   30  C16 UNL     1      -0.891  -4.108  11.942  1.00  0.00     0.050 A 
HETATM   31  C17 UNL     1       0.304  -4.796  12.058  1.00  0.00    -0.004 A 
BRANCH  29  32
HETATM   32  O4  UNL     1      -2.733  -3.381  10.663  1.00  0.00    -0.356 OA
HETATM   33  C15 UNL     1      -3.776  -3.577   9.753  1.00  0.00     0.210 C 
ENDBRANCH  29  32
BRANCH  31  34
HETATM   34  C18 UNL     1       0.938  -4.811  13.347  1.00  0.00     0.017 C 
HETATM   35  C19 UNL     1       2.005  -4.120  13.677  1.00  0.00     0.052 C 
BRANCH  35  36
HETATM   36  C20 UNL     1       2.572  -4.230  15.042  1.00  0.00     0.136 A 
HETATM   37  N8  UNL     1       2.673  -3.269  15.964  1.00  0.00    -0.269 N 
HETATM   38  N9  UNL     1       3.223  -3.740  17.058  1.00  0.00    -0.227 N 
ATOM     39  H8  UNL     1       2.366  -2.305  15.836  1.00  0.00     0.190 HD
HETATM   40  N10 UNL     1       3.484  -5.012  16.851  1.00  0.00    -0.227 N 
ATOM     41  H9  UNL     1       3.413  -3.215  17.912  1.00  0.00     0.210 HD
HETATM   42  N11 UNL     1       3.102  -5.349  15.628  1.00  0.00    -0.269 N 
ATOM     43  H10 UNL     1       3.914  -5.643  17.528  1.00  0.00     0.210 HD
ATOM     44  H11 UNL     1       3.187  -6.272  15.202  1.00  0.00     0.190 HD
ENDBRANCH  35  36
ENDBRANCH  31  34
ENDBRANCH  23  26
BRANCH  25  45
HETATM   45  O5  UNL     1       1.761  -7.941  12.709  1.00  0.00    -0.343 OA
ATOM     46  H5  UNL     1       1.346  -8.779  12.540  1.00  0.00     0.219 HD
ENDBRANCH  25  45
ENDBRANCH  13  19
ENDBRANCH  12  13
ENDBRANCH  11  12
BRANCH  10  47
HETATM   47  O2  UNL     1       5.467 -11.969  11.347  1.00  0.00    -0.345 OA
ATOM     48  H2  UNL     1       5.541 -12.866  11.653  1.00  0.00     0.219 HD
ENDBRANCH  10  47
TORSDOF 10
ENDMDL
MODEL 2
REMARK VINA RESULT: -9.724409735      2.549      5.877
REMARK  10 active torsions:
REMARK  status: ('A' for Active; 'I' for Inactive)
REMARK    1  A    between atoms: C4_10  and  O2_11 
REMARK    2  A    between atoms: C5_13  and  C6_14 
REMARK    3  A    between atoms: C6_14  and  C7_15 
REMARK    4  A    between atoms: C7_15  and  N4_16 
REMARK    5  A    between atoms: C7_15  and  C10_21 
REMARK       I    between atoms: N4_16  and  C8_18 
REMARK    6  A    between atoms: N7_26  and  C11_27 
REMARK    7  A    between atoms: C14_30  and  O4_31 
REMARK    8  A    between atoms: C17_34  and  C18_35 
REMARK    9  A    between atoms: C19_36  and  C20_37 
REMARK   10  A    between atoms: C21_46  and  O5_47 
ROOT
HETATM    1  C1  UNL     1       3.000  -5.834  15.516  1.00  0.00     0.231 C 
HETATM    2  N1  UNL     1       3.515  -6.989  15.121  1.00  0.00    -0.410 NA
HETATM    3  C2  UNL     1       3.969  -8.026  14.698  1.00  0.00     0.191 A 
HETATM    4  N2  UNL     1       4.494  -8.883  15.669  1.00  0.00    -0.283 N 
ATOM      5  H2  UNL     1       4.476  -8.610  16.652  1.00  0.00     0.173 HD
HETATM    6  C3  UNL     1       5.015 -10.050  15.318  1.00  0.00     0.328 A 
HETATM    7  O1  UNL     1       5.505 -10.854  16.185  1.00  0.00    -0.247 OA
HETATM    8  N3  UNL     1       5.050 -10.430  14.028  1.00  0.00    -0.288 N 
ATOM      9  H3  UNL     1       5.458 -11.331  13.780  1.00  0.00     0.172 HD
HETATM   10  C4  UNL     1       4.561  -9.645  13.071  1.00  0.00     0.155 A 
HETATM   11  C5  UNL     1       3.998  -8.406  13.382  1.00  0.00     0.053 A 
ENDROOT
BRANCH  11  12
HETATM   12  C6  UNL     1       3.476  -7.567  12.250  1.00  0.00     0.080 C 
BRANCH  12  13
HETATM   13  C7  UNL     1       2.050  -7.869  11.871  1.00  0.00     0.145 C 
BRANCH  13  14
HETATM   14  N4  UNL     1       2.096  -8.301  10.451  1.00  0.00    -0.351 N 
HETATM   15  C8  UNL     1       1.960  -9.567   9.947  1.00  0.00     0.214 C 
HETATM   16  C9  UNL     1       2.034  -9.778   8.444  1.00  0.00     0.117 C 
HETATM   17  O3  UNL     1       1.774 -10.596  10.612  1.00  0.00    -0.274 OA
ATOM     18  H4  UNL     1       2.248  -7.562   9.764  1.00  0.00     0.163 HD
ENDBRANCH  13  14
BRANCH  13  19
HETATM   19  C10 UNL     1       1.418  -6.484  11.719  1.00  0.00     0.102 A 
HETATM   20  N5  UNL     1       1.976  -5.339  12.161  1.00  0.00    -0.284 N 
HETATM   21  N6  UNL     1       1.257  -4.350  11.677  1.00  0.00    -0.233 N 
ATOM     22  H5  UNL     1       2.799  -5.255  12.758  1.00  0.00     0.188 HD
HETATM   23  N7  UNL     1       0.231  -4.829  10.925  1.00  0.00    -0.217 N 
ATOM     24  H6  UNL     1       1.443  -3.360  11.842  1.00  0.00     0.209 HD
HETATM   25  C21 UNL     1       0.329  -6.137  10.957  1.00  0.00     0.190 A 
BRANCH  23  26
HETATM   26  C11 UNL     1      -0.671  -3.962  10.296  1.00  0.00     0.070 A 
HETATM   27  C12 UNL     1      -1.840  -3.619  11.009  1.00  0.00     0.035 A 
HETATM   28  C13 UNL     1      -2.782  -2.762  10.508  1.00  0.00     0.039 A 
HETATM   29  C14 UNL     1      -2.594  -2.214   9.272  1.00  0.00     0.069 A 
HETATM   30  C16 UNL     1      -1.471  -2.523   8.546  1.00  0.00     0.050 A 
HETATM   31  C17 UNL     1      -0.524  -3.390   9.061  1.00  0.00    -0.004 A 
BRANCH  29  32
HETATM   32  O4  UNL     1      -3.507  -1.350   8.734  1.00  0.00    -0.356 OA
HETATM   33  C15 UNL     1      -4.812  -1.106   9.172  1.00  0.00     0.210 C 
ENDBRANCH  29  32
BRANCH  31  34
HETATM   34  C18 UNL     1       0.634  -3.662   8.254  1.00  0.00     0.017 C 
HETATM   35  C19 UNL     1       0.733  -4.622   7.365  1.00  0.00     0.052 C 
BRANCH  35  36
HETATM   36  C20 UNL     1       1.990  -4.807   6.602  1.00  0.00     0.136 A 
HETATM   37  N8  UNL     1       2.410  -4.113   5.541  1.00  0.00    -0.269 N 
HETATM   38  N9  UNL     1       3.577  -4.556   5.137  1.00  0.00    -0.227 N 
ATOM     39  H8  UNL     1       1.897  -3.346   5.107  1.00  0.00     0.190 HD
HETATM   40  N10 UNL     1       3.920  -5.543   5.935  1.00  0.00    -0.227 N 
ATOM     41  H9  UNL     1       4.118  -4.200   4.349  1.00  0.00     0.210 HD
HETATM   42  N11 UNL     1       2.974  -5.729   6.843  1.00  0.00    -0.269 N 
ATOM     43  H10 UNL     1       4.783  -6.083   5.865  1.00  0.00     0.210 HD
ATOM     44  H11 UNL     1       2.978  -6.429   7.585  1.00  0.00     0.190 HD
ENDBRANCH  35  36
ENDBRANCH  31  34
ENDBRANCH  23  26
BRANCH  25  45
HETATM   45  O5  UNL     1      -0.491  -7.112  10.358  1.00  0.00    -0.343 OA
ATOM     46  H5  UNL     1      -1.390  -6.926  10.116  1.00  0.00     0.219 HD
ENDBRANCH  25  45
ENDBRANCH  13  19
ENDBRANCH  12  13
ENDBRANCH  11  12
BRANCH  10  47
HETATM   47  O2  UNL     1       4.608 -10.053  11.723  1.00  0.00    -0.345 OA
ATOM     48  H2  UNL     1       4.363 -10.939  11.481  1.00  0.00     0.219 HD
ENDBRANCH  10  47
TORSDOF 10
ENDMDL
MODEL 3
REMARK VINA RESULT: -9.665509845      2.722      5.827
REMARK  10 active torsions:
REMARK  status: ('A' for Active; 'I' for Inactive)
REMARK    1  A    between atoms: C4_10  and  O2_11 
REMARK    2  A    between atoms: C5_13  and  C6_14 
REMARK    3  A    between atoms: C6_14  and  C7_15 
REMARK    4  A    between atoms: C7_15  and  N4_16 
REMARK    5  A    between atoms: C7_15  and  C10_21 
REMARK       I    between atoms: N4_16  and  C8_18 
REMARK    6  A    between atoms: N7_26  and  C11_27 
REMARK    7  A    between atoms: C14_30  and  O4_31 
REMARK    8  A    between atoms: C17_34  and  C18_35 
REMARK    9  A    between atoms: C19_36  and  C20_37 
REMARK   10  A    between atoms: C21_46  and  O5_47 
ROOT
HETATM    1  C1  UNL     1       5.037 -10.797  10.598  1.00  0.00     0.231 C 
HETATM    2  N1  UNL     1       4.824 -10.291  11.803  1.00  0.00    -0.410 NA
HETATM    3  C2  UNL     1       4.599  -9.777  12.874  1.00  0.00     0.191 A 
HETATM    4  N2  UNL     1       5.051 -10.497  13.984  1.00  0.00    -0.283 N 
ATOM      5  H2  UNL     1       5.530 -11.388  13.851  1.00  0.00     0.173 HD
HETATM    6  C3  UNL     1       4.861 -10.025  15.207  1.00  0.00     0.328 A 
HETATM    7  O1  UNL     1       5.263 -10.662  16.242  1.00  0.00    -0.247 OA
HETATM    8  N3  UNL     1       4.231  -8.852  15.405  1.00  0.00    -0.288 N 
ATOM      9  H3  UNL     1       4.094  -8.509  16.356  1.00  0.00     0.172 HD
HETATM   10  C4  UNL     1       3.785  -8.135  14.377  1.00  0.00     0.155 A 
HETATM   11  C5  UNL     1       3.958  -8.581  13.066  1.00  0.00     0.053 A 
ENDROOT
BRANCH  11  12
HETATM   12  C6  UNL     1       3.418  -7.726  11.954  1.00  0.00     0.080 C 
BRANCH  12  13
HETATM   13  C7  UNL     1       1.992  -8.038  11.582  1.00  0.00     0.145 C 
BRANCH  13  14
HETATM   14  N4  UNL     1       2.023  -8.394  10.140  1.00  0.00    -0.351 N 
HETATM   15  C8  UNL     1       1.782  -9.612   9.564  1.00  0.00     0.214 C 
HETATM   16  C9  UNL     1       1.863  -9.746   8.053  1.00  0.00     0.117 C 
HETATM   17  O3  UNL     1       1.492 -10.654  10.168  1.00  0.00    -0.274 OA
ATOM     18  H4  UNL     1       2.254  -7.635   9.498  1.00  0.00     0.163 HD
ENDBRANCH  13  14
BRANCH  13  19
HETATM   19  C10 UNL     1       1.331  -6.659  11.512  1.00  0.00     0.102 A 
HETATM   20  N5  UNL     1       1.841  -5.540  12.066  1.00  0.00    -0.284 N 
HETATM   21  N6  UNL     1       1.116  -4.532  11.631  1.00  0.00    -0.233 N 
ATOM     22  H5  UNL     1       2.636  -5.486  12.702  1.00  0.00     0.188 HD
HETATM   23  N7  UNL     1       0.134  -4.974  10.801  1.00  0.00    -0.217 N 
ATOM     24  H6  UNL     1       1.270  -3.555  11.881  1.00  0.00     0.209 HD
HETATM   25  C21 UNL     1       0.265  -6.278  10.735  1.00  0.00     0.190 A 
BRANCH  23  26
HETATM   26  C11 UNL     1      -0.763  -4.080  10.205  1.00  0.00     0.070 A 
HETATM   27  C12 UNL     1      -1.940  -3.771  10.922  1.00  0.00     0.035 A 
HETATM   28  C13 UNL     1      -2.879  -2.894  10.453  1.00  0.00     0.039 A 
HETATM   29  C14 UNL     1      -2.681  -2.290   9.245  1.00  0.00     0.069 A 
HETATM   30  C16 UNL     1      -1.551  -2.564   8.515  1.00  0.00     0.050 A 
HETATM   31  C17 UNL     1      -0.607  -3.452   8.998  1.00  0.00    -0.004 A 
BRANCH  29  32
HETATM   32  O4  UNL     1      -3.591  -1.403   8.738  1.00  0.00    -0.356 OA
HETATM   33  C15 UNL     1      -4.906  -1.193   9.165  1.00  0.00     0.210 C 
ENDBRANCH  29  32
BRANCH  31  34
HETATM   34  C18 UNL     1       0.558  -3.685   8.190  1.00  0.00     0.017 C 
HETATM   35  C19 UNL     1       0.712  -4.681   7.348  1.00  0.00     0.052 C 
BRANCH  35  36
HETATM   36  C20 UNL     1       1.971  -4.819   6.578  1.00  0.00     0.136 A 
HETATM   37  N8  UNL     1       2.347  -4.127   5.499  1.00  0.00    -0.269 N 
HETATM   38  N9  UNL     1       3.531  -4.519   5.094  1.00  0.00    -0.227 N 
ATOM     39  H8  UNL     1       1.792  -3.397   5.053  1.00  0.00     0.190 HD
HETATM   40  N10 UNL     1       3.931  -5.471   5.908  1.00  0.00    -0.227 N 
ATOM     41  H9  UNL     1       4.047  -4.154   4.293  1.00  0.00     0.210 HD
HETATM   42  N11 UNL     1       3.002  -5.685   6.829  1.00  0.00    -0.269 N 
ATOM     43  H10 UNL     1       4.819  -5.969   5.842  1.00  0.00     0.210 HD
ATOM     44  H11 UNL     1       3.047  -6.368   7.585  1.00  0.00     0.190 HD
ENDBRANCH  35  36
ENDBRANCH  31  34
ENDBRANCH  23  26
BRANCH  25  45
HETATM   45  O5  UNL     1      -0.504  -7.220  10.026  1.00  0.00    -0.343 OA
ATOM     46  H5  UNL     1      -0.329  -7.421   9.114  1.00  0.00     0.219 HD
ENDBRANCH  25  45
ENDBRANCH  13  19
ENDBRANCH  12  13
ENDBRANCH  11  12
BRANCH  10  47
HETATM   47  O2  UNL     1       3.123  -6.910  14.598  1.00  0.00    -0.345 OA
ATOM     48  H2  UNL     1       2.896  -6.349  13.866  1.00  0.00     0.219 HD
ENDBRANCH  10  47
TORSDOF 10
ENDMDL
MODEL 4
REMARK VINA RESULT: -9.561689143      2.376      4.286
REMARK  10 active torsions:
REMARK  status: ('A' for Active; 'I' for Inactive)
REMARK    1  A    between atoms: C4_10  and  O2_11 
REMARK    2  A    between atoms: C5_13  and  C6_14 
REMARK    3  A    between atoms: C6_14  and  C7_15 
REMARK    4  A    between atoms: C7_15  and  N4_16 
REMARK    5  A    between atoms: C7_15  and  C10_21 
REMARK       I    between atoms: N4_16  and  C8_18 
REMARK    6  A    between atoms: N7_26  and  C11_27 
REMARK    7  A    between atoms: C14_30  and  O4_31 
REMARK    8  A    between atoms: C17_34  and  C18_35 
REMARK    9  A    between atoms: C19_36  and  C20_37 
REMARK   10  A    between atoms: C21_46  and  O5_47 
ROOT
HETATM    1  C1  UNL     1       1.597  -8.826   8.589  1.00  0.00     0.231 C 
HETATM    2  N1  UNL     1       2.676  -9.520   8.922  1.00  0.00    -0.410 NA
HETATM    3  C2  UNL     1       3.647 -10.139   9.289  1.00  0.00     0.191 A 
HETATM    4  N2  UNL     1       4.393 -10.733   8.267  1.00  0.00    -0.283 N 
ATOM      5  H2  UNL     1       4.099 -10.627   7.296  1.00  0.00     0.173 HD
HETATM    6  C3  UNL     1       5.480 -11.433   8.555  1.00  0.00     0.328 A 
HETATM    7  O1  UNL     1       6.182 -11.990   7.642  1.00  0.00    -0.247 OA
HETATM    8  N3  UNL     1       5.886 -11.586   9.830  1.00  0.00    -0.288 N 
ATOM      9  H3  UNL     1       6.724 -12.130  10.029  1.00  0.00     0.172 HD
HETATM   10  C4  UNL     1       5.205 -11.036  10.833  1.00  0.00     0.155 A 
HETATM   11  C5  UNL     1       4.053 -10.287  10.589  1.00  0.00     0.053 A 
ENDROOT
BRANCH  11  12
HETATM   12  C6  UNL     1       3.328  -9.707  11.771  1.00  0.00     0.080 C 
BRANCH  12  13
HETATM   13  C7  UNL     1       3.763  -8.309  12.129  1.00  0.00     0.145 C 
BRANCH  13  14
HETATM   14  N4  UNL     1       3.713  -8.242  13.612  1.00  0.00    -0.351 N 
HETATM   15  C8  UNL     1       4.283  -7.309  14.436  1.00  0.00     0.214 C 
HETATM   16  C9  UNL     1       4.094  -7.433  15.938  1.00  0.00     0.117 C 
HETATM   17  O3  UNL     1       4.960  -6.338  14.071  1.00  0.00    -0.274 OA
ATOM     18  H4  UNL     1       3.188  -8.985  14.075  1.00  0.00     0.163 HD
ENDBRANCH  13  14
BRANCH  13  19
HETATM   19  C10 UNL     1       2.545  -7.453  11.772  1.00  0.00     0.102 A 
HETATM   20  N5  UNL     1       1.273  -7.900  11.774  1.00  0.00    -0.284 N 
HETATM   21  N6  UNL     1       0.497  -6.848  11.620  1.00  0.00    -0.233 N 
ATOM     22  H5  UNL     1       0.969  -8.868  11.875  1.00  0.00     0.188 HD
HETATM   23  N7  UNL     1       1.243  -5.717  11.512  1.00  0.00    -0.217 N 
ATOM     24  H6  UNL     1      -0.522  -6.878  11.585  1.00  0.00     0.209 HD
HETATM   25  C21 UNL     1       2.498  -6.092  11.601  1.00  0.00     0.190 A 
BRANCH  23  26
HETATM   26  C11 UNL     1       0.638  -4.465  11.349  1.00  0.00     0.070 A 
HETATM   27  C12 UNL     1      -0.010  -3.910  12.474  1.00  0.00     0.035 A 
HETATM   28  C13 UNL     1      -0.616  -2.684  12.443  1.00  0.00     0.039 A 
HETATM   29  C14 UNL     1      -0.601  -1.963  11.284  1.00  0.00     0.069 A 
HETATM   30  C16 UNL     1       0.016  -2.467  10.167  1.00  0.00     0.050 A 
HETATM   31  C17 UNL     1       0.627  -3.708  10.208  1.00  0.00    -0.004 A 
BRANCH  29  32
HETATM   32  O4  UNL     1      -1.192  -0.731  11.209  1.00  0.00    -0.356 OA
HETATM   33  C15 UNL     1      -2.428  -0.411  10.639  1.00  0.00     0.210 C 
ENDBRANCH  29  32
BRANCH  31  34
HETATM   34  C18 UNL     1       1.265  -4.173   9.007  1.00  0.00     0.017 C 
HETATM   35  C19 UNL     1       2.443  -3.785   8.574  1.00  0.00     0.052 C 
BRANCH  35  36
HETATM   36  C20 UNL     1       2.990  -4.332   7.310  1.00  0.00     0.136 A 
HETATM   37  N8  UNL     1       2.970  -3.765   6.100  1.00  0.00    -0.269 N 
HETATM   38  N9  UNL     1       3.558  -4.542   5.222  1.00  0.00    -0.227 N 
ATOM     39  H8  UNL     1       2.556  -2.858   5.889  1.00  0.00     0.190 HD
HETATM   40  N10 UNL     1       3.962  -5.620   5.858  1.00  0.00    -0.227 N 
ATOM     41  H9  UNL     1       3.678  -4.346   4.228  1.00  0.00     0.210 HD
HETATM   42  N11 UNL     1       3.631  -5.530   7.137  1.00  0.00    -0.269 N 
ATOM     43  H10 UNL     1       4.455  -6.405   5.432  1.00  0.00     0.210 HD
ATOM     44  H11 UNL     1       3.819  -6.224   7.860  1.00  0.00     0.190 HD
ENDBRANCH  35  36
ENDBRANCH  31  34
ENDBRANCH  23  26
BRANCH  25  45
HETATM   45  O5  UNL     1       3.671  -5.316  11.535  1.00  0.00    -0.343 OA
ATOM     46  H5  UNL     1       4.476  -5.596  11.955  1.00  0.00     0.219 HD
ENDBRANCH  25  45
ENDBRANCH  13  19
ENDBRANCH  12  13
ENDBRANCH  11  12
BRANCH  10  47
HETATM   47  O2  UNL     1       5.638 -11.208  12.164  1.00  0.00    -0.345 OA
ATOM     48  H2  UNL     1       5.606 -10.481  12.776  1.00  0.00     0.219 HD
ENDBRANCH  10  47
TORSDOF 10
ENDMDL
MODEL 5
REMARK VINA RESULT: -9.368402370      2.771      8.053
REMARK  10 active torsions:
REMARK  status: ('A' for Active; 'I' for Inactive)
REMARK    1  A    between atoms: C4_10  and  O2_11 
REMARK    2  A    between atoms: C5_13  and  C6_14 
REMARK    3  A    between atoms: C6_14  and  C7_15 
REMARK    4  A    between atoms: C7_15  and  N4_16 
REMARK    5  A    between atoms: C7_15  and  C10_21 
REMARK       I    between atoms: N4_16  and  C8_18 
REMARK    6  A    between atoms: N7_26  and  C11_27 
REMARK    7  A    between atoms: C14_30  and  O4_31 
REMARK    8  A    between atoms: C17_34  and  C18_35 
REMARK    9  A    between atoms: C19_36  and  C20_37 
REMARK   10  A    between atoms: C21_46  and  O5_47 
ROOT
HETATM    1  C1  UNL     1       2.512  -4.819  14.036  1.00  0.00     0.231 C 
HETATM    2  N1  UNL     1       2.887  -6.088  14.088  1.00  0.00    -0.410 NA
HETATM    3  C2  UNL     1       3.191  -7.258  14.082  1.00  0.00     0.191 A 
HETATM    4  N2  UNL     1       4.067  -7.649  15.100  1.00  0.00    -0.283 N 
ATOM      5  H2  UNL     1       4.401  -6.960  15.774  1.00  0.00     0.173 HD
HETATM    6  C3  UNL     1       4.464  -8.909  15.191  1.00  0.00     0.328 A 
HETATM    7  O1  UNL     1       5.267  -9.295  16.109  1.00  0.00    -0.247 OA
HETATM    8  N3  UNL     1       4.037  -9.833  14.310  1.00  0.00    -0.288 N 
ATOM      9  H3  UNL     1       4.357 -10.798  14.398  1.00  0.00     0.172 HD
HETATM   10  C4  UNL     1       3.202  -9.505  13.327  1.00  0.00     0.155 A 
HETATM   11  C5  UNL     1       2.748  -8.192  13.183  1.00  0.00     0.053 A 
ENDROOT
BRANCH  11  12
HETATM   12  C6  UNL     1       1.818  -7.891  12.043  1.00  0.00     0.080 C 
BRANCH  12  13
HETATM   13  C7  UNL     1       2.491  -7.251  10.857  1.00  0.00     0.145 C 
BRANCH  13  14
HETATM   14  N4  UNL     1       1.654  -6.074  10.509  1.00  0.00    -0.351 N 
HETATM   15  C8  UNL     1       2.059  -4.786  10.278  1.00  0.00     0.214 C 
HETATM   16  C9  UNL     1       1.022  -3.735   9.926  1.00  0.00     0.117 C 
HETATM   17  O3  UNL     1       3.227  -4.375  10.327  1.00  0.00    -0.274 OA
ATOM     18  H4  UNL     1       0.651  -6.246  10.432  1.00  0.00     0.163 HD
ENDBRANCH  13  14
BRANCH  13  19
HETATM   19  C10 UNL     1       2.143  -8.189   9.699  1.00  0.00     0.102 A 
HETATM   20  N5  UNL     1       1.042  -8.075   8.929  1.00  0.00    -0.284 N 
HETATM   21  N6  UNL     1       1.185  -8.915   7.927  1.00  0.00    -0.233 N 
ATOM     22  H5  UNL     1       0.249  -7.455   9.092  1.00  0.00     0.188 HD
HETATM   23  N7  UNL     1       2.364  -9.584   8.031  1.00  0.00    -0.217 N 
ATOM     24  H6  UNL     1       0.506  -9.047   7.177  1.00  0.00     0.209 HD
HETATM   25  C21 UNL     1       2.946  -9.140   9.120  1.00  0.00     0.190 A 
BRANCH  23  26
HETATM   26  C11 UNL     1       2.744 -10.530   7.072  1.00  0.00     0.070 A 
HETATM   27  C12 UNL     1       3.250 -10.041   5.847  1.00  0.00     0.035 A 
HETATM   28  C13 UNL     1       3.674 -10.869   4.844  1.00  0.00     0.039 A 
HETATM   29  C14 UNL     1       3.610 -12.220   5.023  1.00  0.00     0.069 A 
HETATM   30  C16 UNL     1       3.123 -12.737   6.198  1.00  0.00     0.050 A 
HETATM   31  C17 UNL     1       2.696 -11.892   7.207  1.00  0.00    -0.004 A 
BRANCH  29  32
HETATM   32  O4  UNL     1       4.026 -13.085   4.048  1.00  0.00    -0.356 OA
HETATM   33  C15 UNL     1       4.314 -12.790   2.712  1.00  0.00     0.210 C 
ENDBRANCH  29  32
BRANCH  31  34
HETATM   34  C18 UNL     1       2.209 -12.497   8.416  1.00  0.00     0.017 C 
HETATM   35  C19 UNL     1       2.950 -12.854   9.439  1.00  0.00     0.052 C 
BRANCH  35  36
HETATM   36  C20 UNL     1       2.327 -13.482  10.629  1.00  0.00     0.136 A 
HETATM   37  N8  UNL     1       2.532 -14.714  11.102  1.00  0.00    -0.269 N 
HETATM   38  N9  UNL     1       1.811 -14.916  12.179  1.00  0.00    -0.227 N 
ATOM     39  H8  UNL     1       3.160 -15.401  10.685  1.00  0.00     0.190 HD
HETATM   40  N10 UNL     1       1.133 -13.814  12.411  1.00  0.00    -0.227 N 
ATOM     41  H9  UNL     1       1.782 -15.771  12.735  1.00  0.00     0.210 HD
HETATM   42  N11 UNL     1       1.420 -12.914  11.482  1.00  0.00    -0.269 N 
ATOM     43  H10 UNL     1       0.484 -13.673  13.186  1.00  0.00     0.210 HD
ATOM     44  H11 UNL     1       1.035 -11.971  11.415  1.00  0.00     0.190 HD
ENDBRANCH  35  36
ENDBRANCH  31  34
ENDBRANCH  23  26
BRANCH  25  45
HETATM   45  O5  UNL     1       4.177  -9.513   9.693  1.00  0.00    -0.343 OA
ATOM     46  H5  UNL     1       4.659 -10.272   9.386  1.00  0.00     0.219 HD
ENDBRANCH  25  45
ENDBRANCH  13  19
ENDBRANCH  12  13
ENDBRANCH  11  12
BRANCH  10  47
HETATM   47  O2  UNL     1       2.765 -10.481  12.409  1.00  0.00    -0.345 OA
ATOM     48  H2  UNL     1       1.961 -10.353  11.919  1.00  0.00     0.219 HD
ENDBRANCH  10  47
TORSDOF 10
ENDMDL
