MODEL 1
REMARK VINA RESULT: -8.807805203      0.000      0.000
REMARK  13 active torsions:
REMARK  status: ('A' for Active; 'I' for Inactive)
REMARK    1  A    between atoms: C2_3  and  S1_4 
REMARK    2  A    between atoms: S1_4  and  C3_5 
REMARK    3  A    between atoms: C3_5  and  C4_6 
REMARK    4  A    between atoms: C5_12  and  N4_13 
REMARK    5  A    between atoms: C7_21  and  N7_22 
REMARK    6  A    between atoms: C8_27  and  N9_28 
REMARK    7  A    between atoms: N9_28  and  C9_30 
REMARK    8  A    between atoms: C9_30  and  C10_31 
REMARK    9  A    between atoms: C10_31  and  N10_32 
REMARK       I    between atoms: N10_32  and  C11_34 
REMARK   10  A    between atoms: C11_34  and  C12_36 
REMARK   11  A    between atoms: C14_38  and  C15_39 
REMARK   12  A    between atoms: C15_39  and  O3_40 
REMARK   13  A    between atoms: C16_43  and  O5_44 
ROOT
HETATM    1  C1  UNL     1       0.905  -7.138  10.330  1.00  0.00     0.161 C 
HETATM    2  N1  UNL     1       1.419  -6.627  11.573  1.00  0.00    -0.298 N 
HETATM    3  C2  UNL     1       1.376  -5.298  11.771  1.00  0.00     0.150 A 
HETATM    4  N5  UNL     1       1.862  -4.833  12.937  1.00  0.00    -0.321 N 
ATOM      5  H5  UNL     1       1.840  -3.828  13.107  1.00  0.00     0.169 HD
HETATM    6  C6  UNL     1       2.375  -5.636  13.892  1.00  0.00     0.142 A 
HETATM    7  N6  UNL     1       2.860  -5.174  15.058  1.00  0.00    -0.176 N 
ATOM      8  H6  UNL     1       2.837  -4.168  15.227  1.00  0.00     0.186 HD
HETATM    9  C7  UNL     1       3.374  -5.973  16.013  1.00  0.00     0.679 A 
HETATM   10  N8  UNL     1       3.416  -7.303  15.814  1.00  0.00    -0.176 N 
ATOM     11  H8  UNL     1       3.805  -7.911  16.535  1.00  0.00     0.186 HD
HETATM   12  C8  UNL     1       2.944  -7.843  14.658  1.00  0.00     0.136 A 
HETATM   13  C17 UNL     1       2.422  -7.005  13.694  1.00  0.00     0.121 A 
HETATM   14  C18 UNL     1       1.924  -7.477  12.496  1.00  0.00     0.267 A 
HETATM   15  O6  UNL     1       1.965  -8.729  12.312  1.00  0.00    -0.267 OA
ENDROOT
BRANCH  12  16
HETATM   16  N9  UNL     1       2.954  -9.093  14.408  1.00  0.00    -0.373 N 
ATOM     17  H9  UNL     1       2.126  -9.495  13.968  1.00  0.00     0.161 HD
BRANCH  16  18
HETATM   18  C9  UNL     1       4.059  -9.985  14.703  1.00  0.00     0.141 C 
BRANCH  18  19
HETATM   19  C10 UNL     1       5.178  -9.616  13.755  1.00  0.00     0.142 C 
BRANCH  19  20
HETATM   20  N10 UNL     1       4.727  -9.618  12.400  1.00  0.00    -0.355 N 
HETATM   21  C11 UNL     1       4.982 -10.631  11.449  1.00  0.00     0.256 C 
HETATM   22  O2  UNL     1       5.658 -11.631  11.786  1.00  0.00    -0.267 OA
ATOM     23  H10 UNL     1       4.174  -8.818  12.092  1.00  0.00     0.162 HD
BRANCH  21  24
HETATM   24  C12 UNL     1       4.473 -10.529  10.087  1.00  0.00     0.092 A 
HETATM   25  C13 UNL     1       3.194 -10.146   9.707  1.00  0.00     0.057 A 
HETATM   26  C14 UNL     1       3.145 -10.189   8.325  1.00  0.00     0.080 A 
HETATM   27  O4  UNL     1       4.315 -10.573   7.896  1.00  0.00    -0.289 OA
HETATM   28  C16 UNL     1       5.129 -10.784   8.901  1.00  0.00     0.199 A 
BRANCH  26  29
HETATM   29  C15 UNL     1       1.972  -9.859   7.481  1.00  0.00     0.229 C 
BRANCH  29  30
HETATM   30  O3  UNL     1       2.139  -8.712   6.737  1.00  0.00    -0.394 OA
ATOM     31  H3  UNL     1       2.108  -7.917   7.256  1.00  0.00     0.209 HD
ENDBRANCH  29  30
ENDBRANCH  26  29
BRANCH  28  32
HETATM   32  O5  UNL     1       6.445 -11.201   8.780  1.00  0.00    -0.340 OA
ATOM     33  H5  UNL     1       7.059 -10.910   8.115  1.00  0.00     0.220 HD
ENDBRANCH  28  32
ENDBRANCH  21  24
ENDBRANCH  19  20
ENDBRANCH  18  19
ENDBRANCH  16  18
ENDBRANCH  12  16
BRANCH   9  34
HETATM   34  N7  UNL     1       3.833  -5.493  17.126  1.00  0.00    -0.234 N 
ATOM     35  H72 UNL     1       3.753  -4.491  17.299  1.00  0.00     0.174 HD
ATOM     36  H71 UNL     1       4.268  -6.091  17.827  1.00  0.00     0.174 HD
ENDBRANCH   9  34
BRANCH   3  37
HETATM   37  S1  UNL     1       0.701  -4.186  10.527  1.00  0.00    -0.087 SA
BRANCH  37  38
HETATM   38  C3  UNL     1       2.023  -3.465   9.521  1.00  0.00     0.145 C 
BRANCH  38  39
HETATM   39  C4  UNL     1       2.411  -4.484   8.511  1.00  0.00     0.089 A 
HETATM   40  N2  UNL     1       3.389  -5.385   8.516  1.00  0.00    -0.241 N 
HETATM   41  O1  UNL     1       3.331  -6.053   7.416  1.00  0.00    -0.155 OA
ATOM     42  H2  UNL     1       4.069  -5.524   9.263  1.00  0.00     0.196 HD
HETATM   43  N3  UNL     1       2.353  -5.647   6.659  1.00  0.00    -0.224 N 
HETATM   44  C5  UNL     1       1.743  -4.653   7.316  1.00  0.00     0.146 A 
ATOM     45  H3  UNL     1       2.100  -6.015   5.742  1.00  0.00     0.198 HD
BRANCH  44  46
HETATM   46  N4  UNL     1       0.718  -3.980   6.898  1.00  0.00    -0.382 N 
ATOM     47  H42 UNL     1      -0.245  -4.313   6.869  1.00  0.00     0.157 HD
ATOM     48  H41 UNL     1       0.718  -3.026   6.537  1.00  0.00     0.157 HD
ENDBRANCH  44  46
ENDBRANCH  38  39
ENDBRANCH  37  38
ENDBRANCH   3  37
TORSDOF 13
ENDMDL
MODEL 2
REMARK VINA RESULT: -8.735706284      0.817      1.173
REMARK  13 active torsions:
REMARK  status: ('A' for Active; 'I' for Inactive)
REMARK    1  A    between atoms: C2_3  and  S1_4 
REMARK    2  A    between atoms: S1_4  and  C3_5 
REMARK    3  A    between atoms: C3_5  and  C4_6 
REMARK    4  A    between atoms: C5_12  and  N4_13 
REMARK    5  A    between atoms: C7_21  and  N7_22 
REMARK    6  A    between atoms: C8_27  and  N9_28 
REMARK    7  A    between atoms: N9_28  and  C9_30 
REMARK    8  A    between atoms: C9_30  and  C10_31 
REMARK    9  A    between atoms: C10_31  and  N10_32 
REMARK       I    between atoms: N10_32  and  C11_34 
REMARK   10  A    between atoms: C11_34  and  C12_36 
REMARK   11  A    between atoms: C14_38  and  C15_39 
REMARK   12  A    between atoms: C15_39  and  O3_40 
REMARK   13  A    between atoms: C16_43  and  O5_44 
ROOT
HETATM    1  C1  UNL     1       1.211  -7.075   9.871  1.00  0.00     0.161 C 
HETATM    2  N1  UNL     1       1.653  -6.555  11.138  1.00  0.00    -0.298 N 
HETATM    3  C2  UNL     1       1.749  -5.220  11.269  1.00  0.00     0.150 A 
HETATM    4  N5  UNL     1       2.165  -4.747  12.458  1.00  0.00    -0.321 N 
ATOM      5  H5  UNL     1       2.246  -3.737  12.579  1.00  0.00     0.169 HD
HETATM    6  C6  UNL     1       2.478  -5.547  13.499  1.00  0.00     0.142 A 
HETATM    7  N6  UNL     1       2.892  -5.076  14.688  1.00  0.00    -0.176 N 
ATOM      8  H6  UNL     1       2.973  -4.066  14.808  1.00  0.00     0.186 HD
HETATM    9  C7  UNL     1       3.207  -5.871  15.729  1.00  0.00     0.679 A 
HETATM   10  N8  UNL     1       3.110  -7.207  15.597  1.00  0.00    -0.176 N 
ATOM     11  H8  UNL     1       3.348  -7.812  16.383  1.00  0.00     0.186 HD
HETATM   12  C8  UNL     1       2.697  -7.756  14.422  1.00  0.00     0.136 A 
HETATM   13  C17 UNL     1       2.381  -6.921  13.371  1.00  0.00     0.121 A 
HETATM   14  C18 UNL     1       1.955  -7.402  12.148  1.00  0.00     0.267 A 
HETATM   15  O6  UNL     1       1.865  -8.659  12.027  1.00  0.00    -0.267 OA
ENDROOT
BRANCH  12  16
HETATM   16  N9  UNL     1       2.584  -9.011  14.232  1.00  0.00    -0.373 N 
ATOM     17  H9  UNL     1       1.718  -9.350  13.813  1.00  0.00     0.161 HD
BRANCH  16  18
HETATM   18  C9  UNL     1       3.597  -9.992  14.568  1.00  0.00     0.141 C 
BRANCH  18  19
HETATM   19  C10 UNL     1       4.794  -9.695  13.693  1.00  0.00     0.142 C 
BRANCH  19  20
HETATM   20  N10 UNL     1       4.442  -9.732  12.309  1.00  0.00    -0.355 N 
HETATM   21  C11 UNL     1       4.885 -10.692  11.372  1.00  0.00     0.256 C 
HETATM   22  O2  UNL     1       5.654 -11.607  11.750  1.00  0.00    -0.267 OA
ATOM     23  H10 UNL     1       3.817  -9.002  11.968  1.00  0.00     0.162 HD
BRANCH  21  24
HETATM   24  C12 UNL     1       4.463 -10.633   9.978  1.00  0.00     0.092 A 
HETATM   25  C13 UNL     1       3.194 -10.320   9.509  1.00  0.00     0.057 A 
HETATM   26  C14 UNL     1       3.239 -10.383   8.128  1.00  0.00     0.080 A 
HETATM   27  O4  UNL     1       4.453 -10.713   7.783  1.00  0.00    -0.289 OA
HETATM   28  C16 UNL     1       5.208 -10.870   8.842  1.00  0.00     0.199 A 
BRANCH  26  29
HETATM   29  C15 UNL     1       2.110 -10.123   7.204  1.00  0.00     0.229 C 
BRANCH  29  30
HETATM   30  O3  UNL     1       2.259  -8.967   6.469  1.00  0.00    -0.394 OA
ATOM     31  H3  UNL     1       1.531  -8.364   6.563  1.00  0.00     0.209 HD
ENDBRANCH  29  30
ENDBRANCH  26  29
BRANCH  28  32
HETATM   32  O5  UNL     1       6.548 -11.222   8.814  1.00  0.00    -0.340 OA
ATOM     33  H5  UNL     1       6.894 -12.060   8.531  1.00  0.00     0.220 HD
ENDBRANCH  28  32
ENDBRANCH  21  24
ENDBRANCH  19  20
ENDBRANCH  18  19
ENDBRANCH  16  18
ENDBRANCH  12  16
BRANCH   9  34
HETATM   34  N7  UNL     1       3.603  -5.383  16.862  1.00  0.00    -0.234 N 
ATOM     35  H72 UNL     1       3.048  -4.650  17.303  1.00  0.00     0.174 HD
ATOM     36  H71 UNL     1       4.453  -5.714  17.319  1.00  0.00     0.174 HD
ENDBRANCH   9  34
BRANCH   3  37
HETATM   37  S1  UNL     1       1.342  -4.113   9.910  1.00  0.00    -0.087 SA
BRANCH  37  38
HETATM   38  C3  UNL     1       2.829  -3.290   9.282  1.00  0.00     0.145 C 
BRANCH  38  39
HETATM   39  C4  UNL     1       3.178  -3.941   7.992  1.00  0.00     0.089 A 
HETATM   40  N2  UNL     1       2.801  -3.662   6.748  1.00  0.00    -0.241 N 
HETATM   41  O1  UNL     1       3.366  -4.505   5.955  1.00  0.00    -0.155 OA
ATOM     42  H2  UNL     1       2.172  -2.909   6.469  1.00  0.00     0.196 HD
HETATM   43  N3  UNL     1       4.115  -5.348   6.604  1.00  0.00    -0.224 N 
HETATM   44  C5  UNL     1       4.025  -5.025   7.901  1.00  0.00     0.146 A 
ATOM     45  H3  UNL     1       4.664  -6.109   6.203  1.00  0.00     0.198 HD
BRANCH  44  46
HETATM   46  N4  UNL     1       4.624  -5.627   8.878  1.00  0.00    -0.382 N 
ATOM     47  H42 UNL     1       4.816  -6.627   8.939  1.00  0.00     0.157 HD
ATOM     48  H41 UNL     1       4.991  -5.199   9.728  1.00  0.00     0.157 HD
ENDBRANCH  44  46
ENDBRANCH  38  39
ENDBRANCH  37  38
ENDBRANCH   3  37
TORSDOF 13
ENDMDL
MODEL 3
REMARK VINA RESULT: -8.703763753      1.696      2.589
REMARK  13 active torsions:
REMARK  status: ('A' for Active; 'I' for Inactive)
REMARK    1  A    between atoms: C2_3  and  S1_4 
REMARK    2  A    between atoms: S1_4  and  C3_5 
REMARK    3  A    between atoms: C3_5  and  C4_6 
REMARK    4  A    between atoms: C5_12  and  N4_13 
REMARK    5  A    between atoms: C7_21  and  N7_22 
REMARK    6  A    between atoms: C8_27  and  N9_28 
REMARK    7  A    between atoms: N9_28  and  C9_30 
REMARK    8  A    between atoms: C9_30  and  C10_31 
REMARK    9  A    between atoms: C10_31  and  N10_32 
REMARK       I    between atoms: N10_32  and  C11_34 
REMARK   10  A    between atoms: C11_34  and  C12_36 
REMARK   11  A    between atoms: C14_38  and  C15_39 
REMARK   12  A    between atoms: C15_39  and  O3_40 
REMARK   13  A    between atoms: C16_43  and  O5_44 
ROOT
HETATM    1  C1  UNL     1       0.967  -6.975  11.817  1.00  0.00     0.161 C 
HETATM    2  N1  UNL     1       1.309  -5.964  12.782  1.00  0.00    -0.298 N 
HETATM    3  C2  UNL     1       0.836  -4.721  12.581  1.00  0.00     0.150 A 
HETATM    4  N5  UNL     1       1.164  -3.784  13.490  1.00  0.00    -0.321 N 
ATOM      5  H5  UNL     1       0.816  -2.835  13.357  1.00  0.00     0.169 HD
HETATM    6  C6  UNL     1       1.931  -4.043  14.570  1.00  0.00     0.142 A 
HETATM    7  N6  UNL     1       2.259  -3.109  15.478  1.00  0.00    -0.176 N 
ATOM      8  H6  UNL     1       1.911  -2.160  15.345  1.00  0.00     0.186 HD
HETATM    9  C7  UNL     1       3.026  -3.364  16.557  1.00  0.00     0.679 A 
HETATM   10  N8  UNL     1       3.499  -4.608  16.755  1.00  0.00    -0.176 N 
ATOM     11  H8  UNL     1       4.080  -4.804  17.570  1.00  0.00     0.186 HD
HETATM   12  C8  UNL     1       3.208  -5.605  15.877  1.00  0.00     0.136 A 
HETATM   13  C17 UNL     1       2.421  -5.320  14.781  1.00  0.00     0.121 A 
HETATM   14  C18 UNL     1       2.083  -6.278  13.845  1.00  0.00     0.267 A 
HETATM   15  O6  UNL     1       2.530  -7.447  14.035  1.00  0.00    -0.267 OA
ENDROOT
BRANCH  12  16
HETATM   16  N9  UNL     1       3.624  -6.803  16.008  1.00  0.00    -0.373 N 
ATOM     17  H9  UNL     1       2.936  -7.553  15.938  1.00  0.00     0.161 HD
BRANCH  16  18
HETATM   18  C9  UNL     1       5.004  -7.177  16.248  1.00  0.00     0.141 C 
BRANCH  18  19
HETATM   19  C10 UNL     1       5.179  -8.570  15.687  1.00  0.00     0.142 C 
BRANCH  19  20
HETATM   20  N10 UNL     1       5.050  -8.573  14.265  1.00  0.00    -0.355 N 
HETATM   21  C11 UNL     1       5.142  -9.710  13.432  1.00  0.00     0.256 C 
HETATM   22  O2  UNL     1       5.354 -10.832  13.949  1.00  0.00    -0.267 OA
ATOM     23  H10 UNL     1       4.876  -7.676  13.812  1.00  0.00     0.162 HD
BRANCH  21  24
HETATM   24  C12 UNL     1       4.995  -9.597  11.986  1.00  0.00     0.092 A 
HETATM   25  C13 UNL     1       5.170 -10.611  11.054  1.00  0.00     0.057 A 
HETATM   26  C14 UNL     1       4.933 -10.066   9.805  1.00  0.00     0.080 A 
HETATM   27  O4  UNL     1       4.635  -8.807   9.968  1.00  0.00    -0.289 OA
HETATM   28  C16 UNL     1       4.660  -8.487  11.239  1.00  0.00     0.199 A 
BRANCH  26  29
HETATM   29  C15 UNL     1       5.005 -10.784   8.510  1.00  0.00     0.229 C 
BRANCH  29  30
HETATM   30  O3  UNL     1       5.847 -10.186   7.599  1.00  0.00    -0.394 OA
ATOM     31  H3  UNL     1       5.717 -10.490   6.708  1.00  0.00     0.209 HD
ENDBRANCH  29  30
ENDBRANCH  26  29
BRANCH  28  32
HETATM   32  O5  UNL     1       4.390  -7.226  11.744  1.00  0.00    -0.340 OA
ATOM     33  H5  UNL     1       4.046  -6.492  11.246  1.00  0.00     0.220 HD
ENDBRANCH  28  32
ENDBRANCH  21  24
ENDBRANCH  19  20
ENDBRANCH  18  19
ENDBRANCH  16  18
ENDBRANCH  12  16
BRANCH   9  34
HETATM   34  N7  UNL     1       3.323  -2.438  17.413  1.00  0.00    -0.234 N 
ATOM     35  H72 UNL     1       3.075  -1.472  17.199  1.00  0.00     0.174 HD
ATOM     36  H71 UNL     1       3.795  -2.653  18.292  1.00  0.00     0.174 HD
ENDBRANCH   9  34
BRANCH   3  37
HETATM   37  S1  UNL     1      -0.192  -4.327  11.158  1.00  0.00    -0.087 SA
BRANCH  37  38
HETATM   38  C3  UNL     1       0.805  -3.622   9.819  1.00  0.00     0.145 C 
BRANCH  38  39
HETATM   39  C4  UNL     1       1.649  -4.719   9.277  1.00  0.00     0.089 A 
HETATM   40  N2  UNL     1       1.377  -5.663   8.380  1.00  0.00    -0.241 N 
HETATM   41  O1  UNL     1       2.427  -6.393   8.229  1.00  0.00    -0.155 OA
ATOM     42  H2  UNL     1       0.488  -5.787   7.896  1.00  0.00     0.196 HD
HETATM   43  N3  UNL     1       3.407  -5.987   8.983  1.00  0.00    -0.224 N 
HETATM   44  C5  UNL     1       2.956  -4.926   9.665  1.00  0.00     0.146 A 
ATOM     45  H3  UNL     1       4.339  -6.398   9.044  1.00  0.00     0.198 HD
BRANCH  44  46
HETATM   46  N4  UNL     1       3.630  -4.232  10.526  1.00  0.00    -0.382 N 
ATOM     47  H42 UNL     1       3.353  -3.333  10.919  1.00  0.00     0.157 HD
ATOM     48  H41 UNL     1       4.531  -4.476  10.937  1.00  0.00     0.157 HD
ENDBRANCH  44  46
ENDBRANCH  38  39
ENDBRANCH  37  38
ENDBRANCH   3  37
TORSDOF 13
ENDMDL
MODEL 4
REMARK VINA RESULT: -8.688994147      1.214      1.742
REMARK  13 active torsions:
REMARK  status: ('A' for Active; 'I' for Inactive)
REMARK    1  A    between atoms: C2_3  and  S1_4 
REMARK    2  A    between atoms: S1_4  and  C3_5 
REMARK    3  A    between atoms: C3_5  and  C4_6 
REMARK    4  A    between atoms: C5_12  and  N4_13 
REMARK    5  A    between atoms: C7_21  and  N7_22 
REMARK    6  A    between atoms: C8_27  and  N9_28 
REMARK    7  A    between atoms: N9_28  and  C9_30 
REMARK    8  A    between atoms: C9_30  and  C10_31 
REMARK    9  A    between atoms: C10_31  and  N10_32 
REMARK       I    between atoms: N10_32  and  C11_34 
REMARK   10  A    between atoms: C11_34  and  C12_36 
REMARK   11  A    between atoms: C14_38  and  C15_39 
REMARK   12  A    between atoms: C15_39  and  O3_40 
REMARK   13  A    between atoms: C16_43  and  O5_44 
ROOT
HETATM    1  C1  UNL     1       1.177  -7.000   9.930  1.00  0.00     0.161 C 
HETATM    2  N1  UNL     1       1.636  -6.480  11.190  1.00  0.00    -0.298 N 
HETATM    3  C2  UNL     1       1.761  -5.146  11.309  1.00  0.00     0.150 A 
HETATM    4  N5  UNL     1       2.191  -4.672  12.493  1.00  0.00    -0.321 N 
ATOM      5  H5  UNL     1       2.294  -3.664  12.605  1.00  0.00     0.169 HD
HETATM    6  C6  UNL     1       2.493  -5.470  13.539  1.00  0.00     0.142 A 
HETATM    7  N6  UNL     1       2.923  -4.998  14.722  1.00  0.00    -0.176 N 
ATOM      8  H6  UNL     1       3.025  -3.989  14.833  1.00  0.00     0.186 HD
HETATM    9  C7  UNL     1       3.226  -5.792  15.768  1.00  0.00     0.679 A 
HETATM   10  N8  UNL     1       3.101  -7.126  15.647  1.00  0.00    -0.176 N 
ATOM     11  H8  UNL     1       3.330  -7.730  16.436  1.00  0.00     0.186 HD
HETATM   12  C8  UNL     1       2.671  -7.675  14.479  1.00  0.00     0.136 A 
HETATM   13  C17 UNL     1       2.367  -6.843  13.422  1.00  0.00     0.121 A 
HETATM   14  C18 UNL     1       1.925  -7.324  12.205  1.00  0.00     0.267 A 
HETATM   15  O6  UNL     1       1.809  -8.581  12.095  1.00  0.00    -0.267 OA
ENDROOT
BRANCH  12  16
HETATM   16  N9  UNL     1       2.531  -8.930  14.299  1.00  0.00    -0.373 N 
ATOM     17  H9  UNL     1       1.692  -9.247  13.812  1.00  0.00     0.161 HD
BRANCH  16  18
HETATM   18  C9  UNL     1       3.477  -9.938  14.737  1.00  0.00     0.141 C 
BRANCH  18  19
HETATM   19  C10 UNL     1       4.628  -9.905  13.756  1.00  0.00     0.142 C 
BRANCH  19  20
HETATM   20  N10 UNL     1       4.162 -10.015  12.411  1.00  0.00    -0.355 N 
HETATM   21  C11 UNL     1       4.699 -10.867  11.420  1.00  0.00     0.256 C 
HETATM   22  O2  UNL     1       5.668 -11.606  11.709  1.00  0.00    -0.267 OA
ATOM     23  H10 UNL     1       3.373  -9.427  12.142  1.00  0.00     0.162 HD
BRANCH  21  24
HETATM   24  C12 UNL     1       4.143 -10.897  10.073  1.00  0.00     0.092 A 
HETATM   25  C13 UNL     1       4.857 -10.929   8.883  1.00  0.00     0.057 A 
HETATM   26  C14 UNL     1       3.937 -10.949   7.851  1.00  0.00     0.080 A 
HETATM   27  O4  UNL     1       2.744 -10.931   8.379  1.00  0.00    -0.289 OA
HETATM   28  C16 UNL     1       2.819 -10.900   9.687  1.00  0.00     0.199 A 
BRANCH  26  29
HETATM   29  C15 UNL     1       4.248 -10.986   6.402  1.00  0.00     0.229 C 
BRANCH  29  30
HETATM   30  O3  UNL     1       4.989  -9.906   5.974  1.00  0.00    -0.394 OA
ATOM     31  H3  UNL     1       4.474  -9.116   5.862  1.00  0.00     0.209 HD
ENDBRANCH  29  30
ENDBRANCH  26  29
BRANCH  28  32
HETATM   32  O5  UNL     1       1.729 -10.874  10.542  1.00  0.00    -0.340 OA
ATOM     33  H5  UNL     1       1.143 -10.137  10.670  1.00  0.00     0.220 HD
ENDBRANCH  28  32
ENDBRANCH  21  24
ENDBRANCH  19  20
ENDBRANCH  18  19
ENDBRANCH  16  18
ENDBRANCH  12  16
BRANCH   9  34
HETATM   34  N7  UNL     1       3.638  -5.302  16.895  1.00  0.00    -0.234 N 
ATOM     35  H72 UNL     1       4.612  -5.440  17.164  1.00  0.00     0.174 HD
ATOM     36  H71 UNL     1       3.013  -4.785  17.514  1.00  0.00     0.174 HD
ENDBRANCH   9  34
BRANCH   3  37
HETATM   37  S1  UNL     1       1.370  -4.042   9.943  1.00  0.00    -0.087 SA
BRANCH  37  38
HETATM   38  C3  UNL     1       2.870  -3.255   9.302  1.00  0.00     0.145 C 
BRANCH  38  39
HETATM   39  C4  UNL     1       3.201  -3.924   8.017  1.00  0.00     0.089 A 
HETATM   40  N2  UNL     1       2.817  -3.656   6.773  1.00  0.00    -0.241 N 
HETATM   41  O1  UNL     1       3.366  -4.514   5.985  1.00  0.00    -0.155 OA
ATOM     42  H2  UNL     1       2.194  -2.900   6.491  1.00  0.00     0.196 HD
HETATM   43  N3  UNL     1       4.111  -5.358   6.638  1.00  0.00    -0.224 N 
HETATM   44  C5  UNL     1       4.036  -5.019   7.932  1.00  0.00     0.146 A 
ATOM     45  H3  UNL     1       4.649  -6.129   6.242  1.00  0.00     0.198 HD
BRANCH  44  46
HETATM   46  N4  UNL     1       4.637  -5.616   8.911  1.00  0.00    -0.382 N 
ATOM     47  H42 UNL     1       4.837  -5.213   9.826  1.00  0.00     0.157 HD
ATOM     48  H41 UNL     1       4.999  -6.569   8.917  1.00  0.00     0.157 HD
ENDBRANCH  44  46
ENDBRANCH  38  39
ENDBRANCH  37  38
ENDBRANCH   3  37
TORSDOF 13
ENDMDL
MODEL 5
REMARK VINA RESULT: -8.646185372      2.167      2.494
REMARK  13 active torsions:
REMARK  status: ('A' for Active; 'I' for Inactive)
REMARK    1  A    between atoms: C2_3  and  S1_4 
REMARK    2  A    between atoms: S1_4  and  C3_5 
REMARK    3  A    between atoms: C3_5  and  C4_6 
REMARK    4  A    between atoms: C5_12  and  N4_13 
REMARK    5  A    between atoms: C7_21  and  N7_22 
REMARK    6  A    between atoms: C8_27  and  N9_28 
REMARK    7  A    between atoms: N9_28  and  C9_30 
REMARK    8  A    between atoms: C9_30  and  C10_31 
REMARK    9  A    between atoms: C10_31  and  N10_32 
REMARK       I    between atoms: N10_32  and  C11_34 
REMARK   10  A    between atoms: C11_34  and  C12_36 
REMARK   11  A    between atoms: C14_38  and  C15_39 
REMARK   12  A    between atoms: C15_39  and  O3_40 
REMARK   13  A    between atoms: C16_43  and  O5_44 
ROOT
HETATM    1  C1  UNL     1       0.971  -7.034  10.379  1.00  0.00     0.161 C 
HETATM    2  N1  UNL     1       1.477  -6.563  11.641  1.00  0.00    -0.298 N 
HETATM    3  C2  UNL     1       1.409  -5.244  11.891  1.00  0.00     0.150 A 
HETATM    4  N5  UNL     1       1.887  -4.817  13.074  1.00  0.00    -0.321 N 
ATOM      5  H5  UNL     1       1.846  -3.819  13.284  1.00  0.00     0.169 HD
HETATM    6  C6  UNL     1       2.416  -5.647  13.997  1.00  0.00     0.142 A 
HETATM    7  N6  UNL     1       2.893  -5.222  15.180  1.00  0.00    -0.176 N 
ATOM      8  H6  UNL     1       2.851  -4.225  15.389  1.00  0.00     0.186 HD
HETATM    9  C7  UNL     1       3.423  -6.049  16.103  1.00  0.00     0.679 A 
HETATM   10  N8  UNL     1       3.491  -7.369  15.851  1.00  0.00    -0.176 N 
ATOM     11  H8  UNL     1       3.892  -7.997  16.547  1.00  0.00     0.186 HD
HETATM   12  C8  UNL     1       3.028  -7.871  14.675  1.00  0.00     0.136 A 
HETATM   13  C17 UNL     1       2.489  -7.006  13.745  1.00  0.00     0.121 A 
HETATM   14  C18 UNL     1       1.999  -7.439  12.529  1.00  0.00     0.267 A 
HETATM   15  O6  UNL     1       2.064  -8.682  12.295  1.00  0.00    -0.267 OA
ENDROOT
BRANCH  12  16
HETATM   16  N9  UNL     1       3.062  -9.110  14.375  1.00  0.00    -0.373 N 
ATOM     17  H9  UNL     1       2.255  -9.501  13.888  1.00  0.00     0.161 HD
BRANCH  16  18
HETATM   18  C9  UNL     1       4.164 -10.003  14.676  1.00  0.00     0.141 C 
BRANCH  18  19
HETATM   19  C10 UNL     1       5.273  -9.663  13.706  1.00  0.00     0.142 C 
BRANCH  19  20
HETATM   20  N10 UNL     1       4.798  -9.662  12.360  1.00  0.00    -0.355 N 
HETATM   21  C11 UNL     1       5.026 -10.678  11.405  1.00  0.00     0.256 C 
HETATM   22  O2  UNL     1       5.700 -11.684  11.731  1.00  0.00    -0.267 OA
ATOM     23  H10 UNL     1       4.245  -8.859  12.061  1.00  0.00     0.162 HD
BRANCH  21  24
HETATM   24  C12 UNL     1       4.493 -10.573  10.053  1.00  0.00     0.092 A 
HETATM   25  C13 UNL     1       3.200 -10.216   9.697  1.00  0.00     0.057 A 
HETATM   26  C14 UNL     1       3.129 -10.245   8.316  1.00  0.00     0.080 A 
HETATM   27  O4  UNL     1       4.301 -10.598   7.864  1.00  0.00    -0.289 OA
HETATM   28  C16 UNL     1       5.136 -10.801   8.853  1.00  0.00     0.199 A 
BRANCH  26  29
HETATM   29  C15 UNL     1       1.936  -9.933   7.495  1.00  0.00     0.229 C 
BRANCH  29  30
HETATM   30  O3  UNL     1       2.134  -8.891   6.616  1.00  0.00    -0.394 OA
ATOM     31  H3  UNL     1       2.669  -9.125   5.867  1.00  0.00     0.209 HD
ENDBRANCH  29  30
ENDBRANCH  26  29
BRANCH  28  32
HETATM   32  O5  UNL     1       6.459 -11.186   8.707  1.00  0.00    -0.340 OA
ATOM     33  H5  UNL     1       7.198 -10.597   8.602  1.00  0.00     0.220 HD
ENDBRANCH  28  32
ENDBRANCH  21  24
ENDBRANCH  19  20
ENDBRANCH  18  19
ENDBRANCH  16  18
ENDBRANCH  12  16
BRANCH   9  34
HETATM   34  N7  UNL     1       3.874  -5.604  17.234  1.00  0.00    -0.234 N 
ATOM     35  H72 UNL     1       4.063  -4.607  17.330  1.00  0.00     0.174 HD
ATOM     36  H71 UNL     1       4.041  -6.226  18.024  1.00  0.00     0.174 HD
ENDBRANCH   9  34
BRANCH   3  37
HETATM   37  S1  UNL     1       0.711  -4.097  10.693  1.00  0.00    -0.087 SA
BRANCH  37  38
HETATM   38  C3  UNL     1      -0.887  -3.463  11.264  1.00  0.00     0.145 C 
BRANCH  38  39
HETATM   39  C4  UNL     1      -1.935  -4.094  10.421  1.00  0.00     0.089 A 
HETATM   40  N2  UNL     1      -2.091  -5.354  10.024  1.00  0.00    -0.241 N 
HETATM   41  O1  UNL     1      -3.155  -5.424   9.302  1.00  0.00    -0.155 OA
ATOM     42  H2  UNL     1      -1.472  -6.132  10.253  1.00  0.00     0.196 HD
HETATM   43  N3  UNL     1      -3.736  -4.265   9.189  1.00  0.00    -0.224 N 
HETATM   44  C5  UNL     1      -2.995  -3.392   9.885  1.00  0.00     0.146 A 
ATOM     45  H3  UNL     1      -4.590  -4.060   8.671  1.00  0.00     0.198 HD
BRANCH  44  46
HETATM   46  N4  UNL     1      -3.236  -2.127  10.020  1.00  0.00    -0.382 N 
ATOM     47  H42 UNL     1      -3.223  -1.605  10.896  1.00  0.00     0.157 HD
ATOM     48  H41 UNL     1      -3.476  -1.468   9.280  1.00  0.00     0.157 HD
ENDBRANCH  44  46
ENDBRANCH  38  39
ENDBRANCH  37  38
ENDBRANCH   3  37
TORSDOF 13
ENDMDL
