MODEL 1
REMARK VINA RESULT: -9.384139283      0.000      0.000
REMARK  10 active torsions:
REMARK  status: ('A' for Active; 'I' for Inactive)
REMARK    1  A    between atoms: N1_2  and  C2_3 
REMARK    2  A    between atoms: N1_2  and  C17_36 
REMARK    3  A    between atoms: C2_3  and  C3_4 
REMARK    4  A    between atoms: C4_7  and  N3_8 
REMARK    5  A    between atoms: N3_8  and  C5_10 
REMARK    6  A    between atoms: C5_10  and  C6_11 
REMARK    7  A    between atoms: C9_14  and  C10_15 
REMARK    8  A    between atoms: C10_15  and  S1_16 
REMARK    9  A    between atoms: S1_16  and  C11_17 
REMARK   10  A    between atoms: C19_41  and  N13_42 
ROOT
HETATM    1  C3  UNL     1       2.192  -5.006  13.736  1.00  0.00     0.264 A 
HETATM    2  N2  UNL     1       2.620  -6.391  13.952  1.00  0.00    -0.199 N 
ATOM      3  H2  UNL     1       2.537  -7.017  13.151  1.00  0.00     0.180 HD
HETATM    4  C4  UNL     1       3.080  -6.903  15.014  1.00  0.00     0.677 A 
HETATM    5  N8  UNL     1       3.257  -6.008  16.114  1.00  0.00    -0.175 N 
ATOM      6  H8  UNL     1       3.621  -6.364  16.998  1.00  0.00     0.186 HD
HETATM    7  C14 UNL     1       2.932  -4.632  15.992  1.00  0.00     0.141 A 
HETATM    8  C15 UNL     1       3.074  -3.546  16.854  1.00  0.00     0.069 A 
HETATM    9  C16 UNL     1       2.673  -2.409  16.195  1.00  0.00     0.111 A 
HETATM   10  N9  UNL     1       2.302  -2.805  14.977  1.00  0.00    -0.306 N 
ATOM     11  H9  UNL     1       1.954  -2.185  14.246  1.00  0.00     0.186 HD
HETATM   12  N10 UNL     1       2.454  -4.150  14.845  1.00  0.00    -0.247 N 
ENDROOT
BRANCH   4  13
HETATM   13  N3  UNL     1       3.442  -8.281  15.047  1.00  0.00    -0.222 N 
ATOM     14  H3  UNL     1       2.862  -8.977  15.516  1.00  0.00     0.178 HD
BRANCH  13  15
HETATM   15  C5  UNL     1       4.665  -8.638  14.388  1.00  0.00     0.176 C 
BRANCH  15  16
HETATM   16  C6  UNL     1       4.532  -9.321  13.107  1.00  0.00    -0.040 A 
HETATM   17  C7  UNL     1       5.515 -10.186  12.685  1.00  0.00     0.009 A 
HETATM   18  C8  UNL     1       5.453 -10.859  11.477  1.00  0.00     0.008 A 
HETATM   19  C9  UNL     1       4.363 -10.667  10.643  1.00  0.00    -0.049 A 
HETATM   20  C12 UNL     1       3.368  -9.808  11.042  1.00  0.00     0.008 A 
HETATM   21  C13 UNL     1       3.458  -9.142  12.267  1.00  0.00     0.009 A 
BRANCH  19  22
HETATM   22  C10 UNL     1       4.356 -11.426   9.373  1.00  0.00     0.121 C 
BRANCH  22  23
HETATM   23  S1  UNL     1       2.888 -12.392   9.089  1.00  0.00    -0.087 SA
BRANCH  23  24
HETATM   24  C11 UNL     1       2.238 -13.200  10.515  1.00  0.00     0.176 A 
HETATM   25  N4  UNL     1       1.391 -12.807  11.474  1.00  0.00    -0.263 N 
HETATM   26  N5  UNL     1       1.200 -13.776  12.347  1.00  0.00    -0.226 N 
ATOM     27  H4  UNL     1       0.954 -11.887  11.521  1.00  0.00     0.190 HD
HETATM   28  N6  UNL     1       1.930 -14.802  11.951  1.00  0.00    -0.226 N 
ATOM     29  H5  UNL     1       0.602 -13.739  13.173  1.00  0.00     0.210 HD
HETATM   30  N7  UNL     1       2.566 -14.474  10.843  1.00  0.00    -0.263 N 
ATOM     31  H6  UNL     1       1.991 -15.703  12.425  1.00  0.00     0.210 HD
ATOM     32  H7  UNL     1       3.200 -15.079  10.320  1.00  0.00     0.190 HD
ENDBRANCH  23  24
ENDBRANCH  22  23
ENDBRANCH  19  22
ENDBRANCH  15  16
ENDBRANCH  13  15
ENDBRANCH   4  13
BRANCH   1  33
HETATM   33  C2  UNL     1       0.794  -5.111  13.240  1.00  0.00     0.112 C 
BRANCH  33  34
HETATM   34  N1  UNL     1       0.412  -4.666  11.958  1.00  0.00    -0.354 N 
HETATM   35  C1  UNL     1      -0.227  -3.348  11.812  1.00  0.00     0.156 C 
BRANCH  34  36
HETATM   36  C17 UNL     1       0.789  -5.331  10.744  1.00  0.00     0.145 A 
HETATM   37  C18 UNL     1      -0.100  -6.323  10.279  1.00  0.00     0.164 A 
HETATM   38  N11 UNL     1      -1.281  -6.547  11.033  1.00  0.00    -0.080 NA
HETATM   39  N12 UNL     1       0.195  -6.996   9.174  1.00  0.00    -0.177 N 
HETATM   40  C19 UNL     1       1.297  -6.805   8.446  1.00  0.00     0.680 A 
ATOM     41  H12 UNL     1      -0.466  -7.708   8.860  1.00  0.00     0.185 HD
HETATM   42  N14 UNL     1       2.152  -5.868   8.874  1.00  0.00    -0.154 N 
HETATM   43  C20 UNL     1       1.901  -5.148   9.999  1.00  0.00     0.290 A 
ATOM     44  H14 UNL     1       3.007  -5.692   8.346  1.00  0.00     0.187 HD
HETATM   45  O1  UNL     1       2.764  -4.313  10.298  1.00  0.00    -0.265 OA
BRANCH  40  46
HETATM   46  N13 UNL     1       1.554  -7.480   7.370  1.00  0.00    -0.234 N 
ATOM     47 2H13 UNL     1       2.100  -8.339   7.422  1.00  0.00     0.174 HD
ATOM     48 1H13 UNL     1       1.232  -7.191   6.447  1.00  0.00     0.174 HD
ENDBRANCH  40  46
ENDBRANCH  34  36
ENDBRANCH  33  34
ENDBRANCH   1  33
TORSDOF 10
ENDMDL
MODEL 2
REMARK VINA RESULT: -9.358542819      2.836      6.812
REMARK  10 active torsions:
REMARK  status: ('A' for Active; 'I' for Inactive)
REMARK    1  A    between atoms: N1_2  and  C2_3 
REMARK    2  A    between atoms: N1_2  and  C17_36 
REMARK    3  A    between atoms: C2_3  and  C3_4 
REMARK    4  A    between atoms: C4_7  and  N3_8 
REMARK    5  A    between atoms: N3_8  and  C5_10 
REMARK    6  A    between atoms: C5_10  and  C6_11 
REMARK    7  A    between atoms: C9_14  and  C10_15 
REMARK    8  A    between atoms: C10_15  and  S1_16 
REMARK    9  A    between atoms: S1_16  and  C11_17 
REMARK   10  A    between atoms: C19_41  and  N13_42 
ROOT
HETATM    1  C3  UNL     1       1.524  -7.013   8.144  1.00  0.00     0.264 A 
HETATM    2  N2  UNL     1       0.403  -6.754   9.052  1.00  0.00    -0.199 N 
ATOM      3  H2  UNL     1       0.111  -7.534   9.640  1.00  0.00     0.180 HD
HETATM    4  C4  UNL     1      -0.246  -5.676   9.192  1.00  0.00     0.677 A 
HETATM    5  N8  UNL     1       0.207  -4.567   8.414  1.00  0.00    -0.175 N 
ATOM      6  H8  UNL     1      -0.279  -3.673   8.482  1.00  0.00     0.186 HD
HETATM    7  C14 UNL     1       1.325  -4.694   7.549  1.00  0.00     0.141 A 
HETATM    8  C15 UNL     1       2.015  -3.779   6.754  1.00  0.00     0.069 A 
HETATM    9  C16 UNL     1       3.085  -4.421   6.179  1.00  0.00     0.111 A 
HETATM   10  N9  UNL     1       3.036  -5.678   6.617  1.00  0.00    -0.306 N 
ATOM     11  H9  UNL     1       3.703  -6.408   6.366  1.00  0.00     0.186 HD
HETATM   12  N10 UNL     1       1.971  -5.854   7.446  1.00  0.00    -0.247 N 
ENDROOT
BRANCH   4  13
HETATM   13  N3  UNL     1      -1.321  -5.604  10.126  1.00  0.00    -0.222 N 
ATOM     14  H3  UNL     1      -2.177  -6.145  10.002  1.00  0.00     0.178 HD
BRANCH  13  15
HETATM   15  C5  UNL     1      -1.136  -4.730  11.247  1.00  0.00     0.176 C 
BRANCH  15  16
HETATM   16  C6  UNL     1      -0.052  -5.071  12.160  1.00  0.00    -0.040 A 
HETATM   17  C7  UNL     1       0.137  -6.378  12.544  1.00  0.00     0.009 A 
HETATM   18  C8  UNL     1       1.142  -6.765  13.413  1.00  0.00     0.008 A 
HETATM   19  C9  UNL     1       2.006  -5.812  13.929  1.00  0.00    -0.049 A 
HETATM   20  C12 UNL     1       1.837  -4.499  13.560  1.00  0.00     0.008 A 
HETATM   21  C13 UNL     1       0.813  -4.137  12.681  1.00  0.00     0.009 A 
BRANCH  19  22
HETATM   22  C10 UNL     1       3.063  -6.296  14.843  1.00  0.00     0.121 C 
BRANCH  22  23
HETATM   23  S1  UNL     1       3.157  -8.066  15.005  1.00  0.00    -0.087 SA
BRANCH  23  24
HETATM   24  C11 UNL     1       4.152  -8.875  13.794  1.00  0.00     0.176 A 
HETATM   25  N4  UNL     1       4.569  -8.514  12.574  1.00  0.00    -0.263 N 
HETATM   26  N5  UNL     1       5.305  -9.467  12.037  1.00  0.00    -0.226 N 
ATOM     27  H4  UNL     1       4.348  -7.627  12.123  1.00  0.00     0.190 HD
HETATM   28  N6  UNL     1       5.364 -10.451  12.916  1.00  0.00    -0.226 N 
ATOM     29  H5  UNL     1       5.746  -9.448  11.117  1.00  0.00     0.210 HD
HETATM   30  N7  UNL     1       4.672 -10.113  13.987  1.00  0.00    -0.263 N 
ATOM     31  H6  UNL     1       5.864 -11.331  12.787  1.00  0.00     0.210 HD
ATOM     32  H7  UNL     1       4.548 -10.686  14.821  1.00  0.00     0.190 HD
ENDBRANCH  23  24
ENDBRANCH  22  23
ENDBRANCH  19  22
ENDBRANCH  15  16
ENDBRANCH  13  15
ENDBRANCH   4  13
BRANCH   1  33
HETATM   33  C2  UNL     1       1.105  -8.199   7.349  1.00  0.00     0.112 C 
BRANCH  33  34
HETATM   34  N1  UNL     1       1.798  -9.426   7.401  1.00  0.00    -0.354 N 
HETATM   35  C1  UNL     1       2.651  -9.822   6.269  1.00  0.00     0.156 C 
BRANCH  34  36
HETATM   36  C17 UNL     1       1.888 -10.235   8.582  1.00  0.00     0.145 A 
HETATM   37  C18 UNL     1       0.904 -11.236   8.724  1.00  0.00     0.164 A 
HETATM   38  N11 UNL     1      -0.053 -11.363   7.683  1.00  0.00    -0.080 NA
HETATM   39  N12 UNL     1       0.910 -12.009   9.802  1.00  0.00    -0.177 N 
HETATM   40  C19 UNL     1       1.798 -11.911  10.794  1.00  0.00     0.680 A 
ATOM     41  H12 UNL     1       0.187 -12.725   9.878  1.00  0.00     0.185 HD
HETATM   42  N14 UNL     1       2.738 -10.966  10.676  1.00  0.00    -0.154 N 
HETATM   43  C20 UNL     1       2.779 -10.146   9.592  1.00  0.00     0.290 A 
ATOM     44  H14 UNL     1       3.435 -10.858  11.413  1.00  0.00     0.187 HD
HETATM   45  O1  UNL     1       3.691  -9.309   9.595  1.00  0.00    -0.265 OA
BRANCH  40  46
HETATM   46  N13 UNL     1       1.777 -12.683  11.834  1.00  0.00    -0.234 N 
ATOM     47 2H13 UNL     1       1.205 -13.528  11.835  1.00  0.00     0.174 HD
ATOM     48 1H13 UNL     1       2.313 -12.488  12.679  1.00  0.00     0.174 HD
ENDBRANCH  40  46
ENDBRANCH  34  36
ENDBRANCH  33  34
ENDBRANCH   1  33
TORSDOF 10
ENDMDL
MODEL 3
REMARK VINA RESULT: -9.344145727      3.093      7.122
REMARK  10 active torsions:
REMARK  status: ('A' for Active; 'I' for Inactive)
REMARK    1  A    between atoms: N1_2  and  C2_3 
REMARK    2  A    between atoms: N1_2  and  C17_36 
REMARK    3  A    between atoms: C2_3  and  C3_4 
REMARK    4  A    between atoms: C4_7  and  N3_8 
REMARK    5  A    between atoms: N3_8  and  C5_10 
REMARK    6  A    between atoms: C5_10  and  C6_11 
REMARK    7  A    between atoms: C9_14  and  C10_15 
REMARK    8  A    between atoms: C10_15  and  S1_16 
REMARK    9  A    between atoms: S1_16  and  C11_17 
REMARK   10  A    between atoms: C19_41  and  N13_42 
ROOT
HETATM    1  C3  UNL     1       3.157  -8.635  13.698  1.00  0.00     0.264 A 
HETATM    2  N2  UNL     1       2.075  -8.179  12.820  1.00  0.00    -0.199 N 
ATOM      3  H2  UNL     1       1.782  -8.831  12.092  1.00  0.00     0.180 HD
HETATM    4  C4  UNL     1       1.462  -7.073  12.858  1.00  0.00     0.677 A 
HETATM    5  N8  UNL     1       1.829  -6.190  13.919  1.00  0.00    -0.175 N 
ATOM      6  H8  UNL     1       1.372  -5.281  13.998  1.00  0.00     0.186 HD
HETATM    7  C14 UNL     1       2.822  -6.560  14.863  1.00  0.00     0.141 A 
HETATM    8  C15 UNL     1       3.309  -5.944  16.015  1.00  0.00     0.069 A 
HETATM    9  C16 UNL     1       4.219  -6.785  16.609  1.00  0.00     0.111 A 
HETATM   10  N9  UNL     1       4.273  -7.869  15.835  1.00  0.00    -0.306 N 
ATOM     11  H9  UNL     1       4.863  -8.682  16.014  1.00  0.00     0.186 HD
HETATM   12  N10 UNL     1       3.432  -7.741  14.773  1.00  0.00    -0.247 N 
ENDROOT
BRANCH   4  13
HETATM   13  N3  UNL     1       0.432  -6.792  11.913  1.00  0.00    -0.222 N 
ATOM     14  H3  UNL     1       0.094  -7.500  11.261  1.00  0.00     0.178 HD
BRANCH  13  15
HETATM   15  C5  UNL     1      -0.104  -5.462  11.928  1.00  0.00     0.176 C 
BRANCH  15  16
HETATM   16  C6  UNL     1      -0.039  -4.726  10.672  1.00  0.00    -0.040 A 
HETATM   17  C7  UNL     1      -0.289  -5.371   9.483  1.00  0.00     0.009 A 
HETATM   18  C8  UNL     1      -0.236  -4.731   8.257  1.00  0.00     0.008 A 
HETATM   19  C9  UNL     1       0.080  -3.383   8.203  1.00  0.00    -0.049 A 
HETATM   20  C12 UNL     1       0.334  -2.716   9.377  1.00  0.00     0.008 A 
HETATM   21  C13 UNL     1       0.273  -3.388  10.600  1.00  0.00     0.009 A 
BRANCH  19  22
HETATM   22  C10 UNL     1       0.109  -2.760   6.861  1.00  0.00     0.121 C 
BRANCH  22  23
HETATM   23  S1  UNL     1       1.739  -2.440   6.221  1.00  0.00    -0.087 SA
BRANCH  23  24
HETATM   24  C11 UNL     1       2.912  -3.730   6.487  1.00  0.00     0.176 A 
HETATM   25  N4  UNL     1       3.731  -4.016   7.506  1.00  0.00    -0.263 N 
HETATM   26  N5  UNL     1       4.434  -5.100   7.243  1.00  0.00    -0.226 N 
ATOM     27  H4  UNL     1       3.801  -3.472   8.365  1.00  0.00     0.190 HD
HETATM   28  N6  UNL     1       4.067  -5.518   6.046  1.00  0.00    -0.226 N 
ATOM     29  H5  UNL     1       5.130  -5.534   7.850  1.00  0.00     0.210 HD
HETATM   30  N7  UNL     1       3.146  -4.702   5.570  1.00  0.00    -0.263 N 
ATOM     31  H6  UNL     1       4.437  -6.339   5.566  1.00  0.00     0.210 HD
ATOM     32  H7  UNL     1       2.686  -4.787   4.663  1.00  0.00     0.190 HD
ENDBRANCH  23  24
ENDBRANCH  22  23
ENDBRANCH  19  22
ENDBRANCH  15  16
ENDBRANCH  13  15
ENDBRANCH   4  13
BRANCH   1  33
HETATM   33  C2  UNL     1       4.269  -8.996  12.778  1.00  0.00     0.112 C 
BRANCH  33  34
HETATM   34  N1  UNL     1       4.049  -9.350  11.431  1.00  0.00    -0.354 N 
HETATM   35  C1  UNL     1       4.333  -8.369  10.371  1.00  0.00     0.156 C 
BRANCH  34  36
HETATM   36  C17 UNL     1       3.753 -10.687  11.002  1.00  0.00     0.145 A 
HETATM   37  C18 UNL     1       2.452 -10.902  10.499  1.00  0.00     0.164 A 
HETATM   38  N11 UNL     1       1.581  -9.783  10.442  1.00  0.00    -0.080 NA
HETATM   39  N12 UNL     1       2.099 -12.118  10.104  1.00  0.00    -0.177 N 
HETATM   40  C19 UNL     1       2.898 -13.186  10.146  1.00  0.00     0.680 A 
ATOM     41  H12 UNL     1       1.152 -12.245   9.744  1.00  0.00     0.185 HD
HETATM   42  N14 UNL     1       4.135 -13.000  10.621  1.00  0.00    -0.154 N 
HETATM   43  C20 UNL     1       4.551 -11.775  11.040  1.00  0.00     0.290 A 
ATOM     44  H14 UNL     1       4.777 -13.791  10.670  1.00  0.00     0.187 HD
HETATM   45  O1  UNL     1       5.713 -11.725  11.462  1.00  0.00    -0.265 OA
BRANCH  40  46
HETATM   46  N13 UNL     1       2.522 -14.361   9.751  1.00  0.00    -0.234 N 
ATOM     47 2H13 UNL     1       2.330 -15.095  10.433  1.00  0.00     0.174 HD
ATOM     48 1H13 UNL     1       2.403 -14.602   8.767  1.00  0.00     0.174 HD
ENDBRANCH  40  46
ENDBRANCH  34  36
ENDBRANCH  33  34
ENDBRANCH   1  33
TORSDOF 10
ENDMDL
MODEL 4
REMARK VINA RESULT: -9.311908767      2.744      6.669
REMARK  10 active torsions:
REMARK  status: ('A' for Active; 'I' for Inactive)
REMARK    1  A    between atoms: N1_2  and  C2_3 
REMARK    2  A    between atoms: N1_2  and  C17_36 
REMARK    3  A    between atoms: C2_3  and  C3_4 
REMARK    4  A    between atoms: C4_7  and  N3_8 
REMARK    5  A    between atoms: N3_8  and  C5_10 
REMARK    6  A    between atoms: C5_10  and  C6_11 
REMARK    7  A    between atoms: C9_14  and  C10_15 
REMARK    8  A    between atoms: C10_15  and  S1_16 
REMARK    9  A    between atoms: S1_16  and  C11_17 
REMARK   10  A    between atoms: C19_41  and  N13_42 
ROOT
HETATM    1  C3  UNL     1       2.963  -6.031   9.481  1.00  0.00     0.264 A 
HETATM    2  N2  UNL     1       2.143  -5.379  10.506  1.00  0.00    -0.199 N 
ATOM      3  H2  UNL     1       2.211  -5.764  11.448  1.00  0.00     0.180 HD
HETATM    4  C4  UNL     1       1.362  -4.394  10.361  1.00  0.00     0.677 A 
HETATM    5  N8  UNL     1       1.320  -3.816   9.056  1.00  0.00    -0.175 N 
ATOM      6  H8  UNL     1       0.705  -3.021   8.877  1.00  0.00     0.186 HD
HETATM    7  C14 UNL     1       2.122  -4.332   8.005  1.00  0.00     0.141 A 
HETATM    8  C15 UNL     1       2.334  -3.925   6.688  1.00  0.00     0.069 A 
HETATM    9  C16 UNL     1       3.286  -4.741   6.126  1.00  0.00     0.111 A 
HETATM   10  N9  UNL     1       3.631  -5.609   7.078  1.00  0.00    -0.306 N 
ATOM     11  H9  UNL     1       4.324  -6.348   6.967  1.00  0.00     0.186 HD
HETATM   12  N10 UNL     1       2.929  -5.370   8.219  1.00  0.00    -0.247 N 
ENDROOT
BRANCH   4  13
HETATM   13  N3  UNL     1       0.631  -3.889  11.476  1.00  0.00    -0.222 N 
ATOM     14  H3  UNL     1       0.450  -2.892  11.592  1.00  0.00     0.178 HD
BRANCH  13  15
HETATM   15  C5  UNL     1       0.165  -4.856  12.427  1.00  0.00     0.176 C 
BRANCH  15  16
HETATM   16  C6  UNL     1       1.113  -5.258  13.458  1.00  0.00    -0.040 A 
HETATM   17  C7  UNL     1       1.870  -4.308  14.103  1.00  0.00     0.009 A 
HETATM   18  C8  UNL     1       2.793  -4.625  15.085  1.00  0.00     0.008 A 
HETATM   19  C9  UNL     1       2.977  -5.949  15.448  1.00  0.00    -0.049 A 
HETATM   20  C12 UNL     1       2.233  -6.917  14.818  1.00  0.00     0.008 A 
HETATM   21  C13 UNL     1       1.308  -6.568  13.830  1.00  0.00     0.009 A 
BRANCH  19  22
HETATM   22  C10 UNL     1       3.971  -6.216  16.511  1.00  0.00     0.121 C 
BRANCH  22  23
HETATM   23  S1  UNL     1       5.463  -7.012  15.955  1.00  0.00    -0.087 SA
BRANCH  23  24
HETATM   24  C11 UNL     1       5.226  -8.563  15.150  1.00  0.00     0.176 A 
HETATM   25  N4  UNL     1       5.580  -9.023  13.944  1.00  0.00    -0.263 N 
HETATM   26  N5  UNL     1       5.175 -10.268  13.787  1.00  0.00    -0.226 N 
ATOM     27  H4  UNL     1       6.091  -8.485  13.244  1.00  0.00     0.190 HD
HETATM   28  N6  UNL     1       4.555 -10.616  14.899  1.00  0.00    -0.226 N 
ATOM     29  H5  UNL     1       5.315 -10.852  12.962  1.00  0.00     0.210 HD
HETATM   30  N7  UNL     1       4.575  -9.597  15.738  1.00  0.00    -0.263 N 
ATOM     31  H6  UNL     1       4.130 -11.525  15.080  1.00  0.00     0.210 HD
ATOM     32  H7  UNL     1       4.167  -9.589  16.673  1.00  0.00     0.190 HD
ENDBRANCH  23  24
ENDBRANCH  22  23
ENDBRANCH  19  22
ENDBRANCH  15  16
ENDBRANCH  13  15
ENDBRANCH   4  13
BRANCH   1  33
HETATM   33  C2  UNL     1       2.574  -7.466   9.537  1.00  0.00     0.112 C 
BRANCH  33  34
HETATM   34  N1  UNL     1       3.443  -8.466  10.021  1.00  0.00    -0.354 N 
HETATM   35  C1  UNL     1       4.835  -8.116  10.347  1.00  0.00     0.156 C 
BRANCH  34  36
HETATM   36  C17 UNL     1       3.004  -9.775  10.411  1.00  0.00     0.145 A 
HETATM   37  C18 UNL     1       2.939 -10.739   9.383  1.00  0.00     0.164 A 
HETATM   38  N11 UNL     1       3.333 -10.333   8.081  1.00  0.00    -0.080 NA
HETATM   39  N12 UNL     1       2.521 -11.966   9.666  1.00  0.00    -0.177 N 
HETATM   40  C19 UNL     1       2.145 -12.373  10.880  1.00  0.00     0.680 A 
ATOM     41  H12 UNL     1       2.483 -12.643   8.903  1.00  0.00     0.185 HD
HETATM   42  N14 UNL     1       2.201 -11.471  11.867  1.00  0.00    -0.154 N 
HETATM   43  C20 UNL     1       2.621 -10.199  11.635  1.00  0.00     0.290 A 
ATOM     44  H14 UNL     1       1.922 -11.743  12.810  1.00  0.00     0.187 HD
HETATM   45  O1  UNL     1       2.628  -9.454  12.623  1.00  0.00    -0.265 OA
BRANCH  40  46
HETATM   46  N13 UNL     1       1.743 -13.581  11.122  1.00  0.00    -0.234 N 
ATOM     47 2H13 UNL     1       1.928 -14.012  12.028  1.00  0.00     0.174 HD
ATOM     48 1H13 UNL     1       1.237 -14.143  10.438  1.00  0.00     0.174 HD
ENDBRANCH  40  46
ENDBRANCH  34  36
ENDBRANCH  33  34
ENDBRANCH   1  33
TORSDOF 10
ENDMDL
MODEL 5
REMARK VINA RESULT: -9.296711986      4.656      9.285
REMARK  10 active torsions:
REMARK  status: ('A' for Active; 'I' for Inactive)
REMARK    1  A    between atoms: N1_2  and  C2_3 
REMARK    2  A    between atoms: N1_2  and  C17_36 
REMARK    3  A    between atoms: C2_3  and  C3_4 
REMARK    4  A    between atoms: C4_7  and  N3_8 
REMARK    5  A    between atoms: N3_8  and  C5_10 
REMARK    6  A    between atoms: C5_10  and  C6_11 
REMARK    7  A    between atoms: C9_14  and  C10_15 
REMARK    8  A    between atoms: C10_15  and  S1_16 
REMARK    9  A    between atoms: S1_16  and  C11_17 
REMARK   10  A    between atoms: C19_41  and  N13_42 
ROOT
HETATM    1  C3  UNL     1       2.941  -7.825  13.566  1.00  0.00     0.264 A 
HETATM    2  N2  UNL     1       2.200  -7.054  12.564  1.00  0.00    -0.199 N 
ATOM      3  H2  UNL     1       1.911  -7.563  11.729  1.00  0.00     0.180 HD
HETATM    4  C4  UNL     1       1.877  -5.831  12.611  1.00  0.00     0.677 A 
HETATM    5  N8  UNL     1       2.226  -5.138  13.810  1.00  0.00    -0.175 N 
ATOM      6  H8  UNL     1       1.995  -4.149  13.906  1.00  0.00     0.186 HD
HETATM    7  C14 UNL     1       2.891  -5.808  14.871  1.00  0.00     0.141 A 
HETATM    8  C15 UNL     1       3.271  -5.408  16.151  1.00  0.00     0.069 A 
HETATM    9  C16 UNL     1       3.813  -6.490  16.804  1.00  0.00     0.111 A 
HETATM   10  N9  UNL     1       3.758  -7.502  15.938  1.00  0.00    -0.306 N 
ATOM     11  H9  UNL     1       4.086  -8.449  16.130  1.00  0.00     0.186 HD
HETATM   12  N10 UNL     1       3.203  -7.098  14.764  1.00  0.00    -0.247 N 
ENDROOT
BRANCH   4  13
HETATM   13  N3  UNL     1       1.156  -5.238  11.534  1.00  0.00    -0.222 N 
ATOM     14  H3  UNL     1       1.627  -4.898  10.696  1.00  0.00     0.178 HD
BRANCH  13  15
HETATM   15  C5  UNL     1      -0.267  -5.145  11.691  1.00  0.00     0.176 C 
BRANCH  15  16
HETATM   16  C6  UNL     1      -0.881  -3.887  11.284  1.00  0.00    -0.040 A 
HETATM   17  C7  UNL     1      -2.059  -3.896  10.576  1.00  0.00     0.009 A 
HETATM   18  C8  UNL     1      -2.689  -2.737  10.154  1.00  0.00     0.008 A 
HETATM   19  C9  UNL     1      -2.124  -1.507  10.448  1.00  0.00    -0.049 A 
HETATM   20  C12 UNL     1      -0.946  -1.472  11.154  1.00  0.00     0.008 A 
HETATM   21  C13 UNL     1      -0.333  -2.658  11.567  1.00  0.00     0.009 A 
BRANCH  19  22
HETATM   22  C10 UNL     1      -2.854  -0.309   9.976  1.00  0.00     0.121 C 
BRANCH  22  23
HETATM   23  S1  UNL     1      -3.012  -0.180   8.208  1.00  0.00    -0.087 SA
BRANCH  23  24
HETATM   24  C11 UNL     1      -3.085   1.468   7.583  1.00  0.00     0.176 A 
HETATM   25  N4  UNL     1      -2.166   2.270   7.032  1.00  0.00    -0.263 N 
HETATM   26  N5  UNL     1      -2.700   3.434   6.716  1.00  0.00    -0.226 N 
ATOM     27  H4  UNL     1      -1.190   2.017   6.879  1.00  0.00     0.190 HD
HETATM   28  N6  UNL     1      -3.972   3.383   7.065  1.00  0.00    -0.226 N 
ATOM     29  H5  UNL     1      -2.220   4.223   6.283  1.00  0.00     0.210 HD
HETATM   30  N7  UNL     1      -4.226   2.201   7.592  1.00  0.00    -0.263 N 
ATOM     31  H6  UNL     1      -4.649   4.137   6.946  1.00  0.00     0.210 HD
ATOM     32  H7  UNL     1      -5.130   1.889   7.948  1.00  0.00     0.190 HD
ENDBRANCH  23  24
ENDBRANCH  22  23
ENDBRANCH  19  22
ENDBRANCH  15  16
ENDBRANCH  13  15
ENDBRANCH   4  13
BRANCH   1  33
HETATM   33  C2  UNL     1       4.095  -8.404  12.826  1.00  0.00     0.112 C 
BRANCH  33  34
HETATM   34  N1  UNL     1       3.988  -8.850  11.492  1.00  0.00    -0.354 N 
HETATM   35  C1  UNL     1       4.440  -7.972  10.400  1.00  0.00     0.156 C 
BRANCH  34  36
HETATM   36  C17 UNL     1       3.650 -10.196  11.132  1.00  0.00     0.145 A 
HETATM   37  C18 UNL     1       2.341 -10.397  10.643  1.00  0.00     0.164 A 
HETATM   38  N11 UNL     1       1.504  -9.256  10.531  1.00  0.00    -0.080 NA
HETATM   39  N12 UNL     1       1.950 -11.620  10.311  1.00  0.00    -0.177 N 
HETATM   40  C19 UNL     1       2.717 -12.709  10.405  1.00  0.00     0.680 A 
ATOM     41  H12 UNL     1       0.999 -11.736   9.960  1.00  0.00     0.185 HD
HETATM   42  N14 UNL     1       3.961 -12.537  10.868  1.00  0.00    -0.154 N 
HETATM   43  C20 UNL     1       4.415 -11.305  11.223  1.00  0.00     0.290 A 
ATOM     44  H14 UNL     1       4.579 -13.343  10.955  1.00  0.00     0.187 HD
HETATM   45  O1  UNL     1       5.580 -11.270  11.639  1.00  0.00    -0.265 OA
BRANCH  40  46
HETATM   46  N13 UNL     1       2.303 -13.890  10.071  1.00  0.00    -0.234 N 
ATOM     47 2H13 UNL     1       1.676 -14.008   9.275  1.00  0.00     0.174 HD
ATOM     48 1H13 UNL     1       2.576 -14.734  10.573  1.00  0.00     0.174 HD
ENDBRANCH  40  46
ENDBRANCH  34  36
ENDBRANCH  33  34
ENDBRANCH   1  33
TORSDOF 10
ENDMDL
