MODEL 1
REMARK VINA RESULT: -8.289785003      0.000      0.000
REMARK  13 active torsions:
REMARK  status: ('A' for Active; 'I' for Inactive)
REMARK    1  A    between atoms: O1_2  and  C2_3 
REMARK    2  A    between atoms: C3_4  and  O2_5 
REMARK    3  A    between atoms: C4_7  and  C5_8 
REMARK    4  A    between atoms: C5_8  and  N1_9 
REMARK    5  A    between atoms: C8_14  and  N2_15 
REMARK    6  A    between atoms: N2_15  and  C9_17 
REMARK    7  A    between atoms: C9_17  and  C10_18 
REMARK    8  A    between atoms: C10_18  and  N3_19 
REMARK    9  A    between atoms: N4_25  and  C12_26 
REMARK   10  A    between atoms: C13_29  and  N6_30 
REMARK   11  A    between atoms: C18_39  and  N9_40 
REMARK   12  A    between atoms: N9_40  and  C19_42 
REMARK   13  A    between atoms: C23_48  and  O4_49 
ROOT
HETATM    1  C2  UNL     1       4.491  -9.266  10.904  1.00  0.00     0.138 A 
HETATM    2  C3  UNL     1       4.904  -9.892  12.038  1.00  0.00     0.114 A 
HETATM    3  C4  UNL     1       4.640  -9.319  13.318  1.00  0.00     0.028 A 
HETATM    4  C6  UNL     1       3.963  -8.129  13.340  1.00  0.00     0.011 A 
HETATM    5  C7  UNL     1       3.664  -7.501  14.531  1.00  0.00     0.050 A 
HETATM    6  C8  UNL     1       2.981  -6.306  14.513  1.00  0.00     0.099 A 
HETATM    7  C11 UNL     1       2.600  -5.737  13.354  1.00  0.00     0.293 A 
HETATM    8  O3  UNL     1       1.969  -4.628  13.368  1.00  0.00    -0.265 OA
HETATM    9  N4  UNL     1       2.875  -6.322  12.156  1.00  0.00    -0.104 N 
HETATM   10  C22 UNL     1       3.538  -7.486  12.148  1.00  0.00     0.107 A 
HETATM   11  C23 UNL     1       3.810  -8.068  10.935  1.00  0.00     0.131 A 
ENDROOT
BRANCH   9  12
HETATM   12  C12 UNL     1       2.411  -5.606  11.031  1.00  0.00     0.721 A 
HETATM   13  N5  UNL     1       1.129  -5.750  10.652  1.00  0.00    -0.021 N 
HETATM   14  C13 UNL     1       0.604  -5.072   9.613  1.00  0.00     0.709 A 
ATOM     15  H5  UNL     1       0.533  -6.396  11.169  1.00  0.00     0.203 HD
HETATM   16  N8  UNL     1       1.393  -4.218   8.926  1.00  0.00    -0.021 N 
HETATM   17  C18 UNL     1       2.678  -4.052   9.279  1.00  0.00     0.707 A 
ATOM     18  H8  UNL     1       1.011  -3.698   8.137  1.00  0.00     0.203 HD
HETATM   19  N10 UNL     1       3.183  -4.751  10.335  1.00  0.00    -0.021 N 
ATOM     20  H10 UNL     1       4.159  -4.624  10.602  1.00  0.00     0.203 HD
BRANCH  14  21
HETATM   21  N6  UNL     1      -0.744  -5.258   9.255  1.00  0.00    -0.214 N 
HETATM   22  C14 UNL     1      -1.103  -5.575   7.886  1.00  0.00     0.160 C 
HETATM   23  C15 UNL     1      -2.089  -4.482   7.452  1.00  0.00     0.134 C 
HETATM   24  N7  UNL     1      -3.249  -4.500   8.294  1.00  0.00    -0.418 N 
HETATM   25  C16 UNL     1      -2.982  -4.330   9.685  1.00  0.00     0.134 C 
ATOM     26  H7  UNL     1      -4.193  -4.624   7.928  1.00  0.00     0.153 HD
HETATM   27  C17 UNL     1      -1.835  -5.148  10.203  1.00  0.00     0.160 C 
ENDBRANCH  14  21
BRANCH  17  28
HETATM   28  N9  UNL     1       3.390  -3.232   8.600  1.00  0.00    -0.221 N 
ATOM     29  H9  UNL     1       3.690  -2.378   9.070  1.00  0.00     0.178 HD
BRANCH  28  30
HETATM   30  C19 UNL     1       3.801  -3.405   7.239  1.00  0.00     0.091 C 
HETATM   31  C20 UNL     1       2.696  -3.041   6.259  1.00  0.00     0.032 C 
HETATM   32  C21 UNL     1       4.281  -4.809   6.994  1.00  0.00     0.032 C 
ENDBRANCH  28  30
ENDBRANCH  17  28
ENDBRANCH   9  12
BRANCH   6  33
HETATM   33  N2  UNL     1       2.698  -5.701  15.773  1.00  0.00    -0.384 N 
ATOM     34  H2  UNL     1       1.816  -5.927  16.233  1.00  0.00     0.159 HD
BRANCH  33  35
HETATM   35  C9  UNL     1       3.593  -4.791  16.426  1.00  0.00     0.147 C 
BRANCH  35  36
HETATM   36  C10 UNL     1       2.877  -3.479  16.640  1.00  0.00     0.249 C 
BRANCH  36  37
HETATM   37  N3  UNL     1       3.606  -2.584  17.513  1.00  0.00    -0.078 N 
ATOM     38  H33 UNL     1       3.047  -2.330  18.327  1.00  0.00     0.274 HD
ATOM     39  H32 UNL     1       4.369  -3.072  17.982  1.00  0.00     0.274 HD
ATOM     40  H31 UNL     1       3.946  -1.754  17.027  1.00  0.00     0.274 HD
ENDBRANCH  36  37
ENDBRANCH  35  36
ENDBRANCH  33  35
ENDBRANCH   6  33
BRANCH  11  41
HETATM   41  O4  UNL     1       3.423  -7.491   9.745  1.00  0.00    -0.356 OA
ATOM     42  H4  UNL     1       3.461  -6.546   9.659  1.00  0.00     0.218 HD
ENDBRANCH  11  41
BRANCH   3  43
HETATM   43  C5  UNL     1       5.122 -10.086  14.450  1.00  0.00     0.095 C 
BRANCH  43  44
HETATM   44  N1  UNL     1       4.281 -10.759  15.309  1.00  0.00    -0.407 N 
ATOM     45  H12 UNL     1       3.868 -10.229  16.077  1.00  0.00     0.155 HD
ATOM     46  H11 UNL     1       4.061 -11.750  15.205  1.00  0.00     0.155 HD
ENDBRANCH  43  44
ENDBRANCH   3  43
BRANCH   1  47
HETATM   47  O1  UNL     1       4.756  -9.836   9.667  1.00  0.00    -0.351 OA
HETATM   48  C1  UNL     1       3.891 -10.751   9.029  1.00  0.00     0.210 C 
ENDBRANCH   1  47
BRANCH   2  49
HETATM   49  O2  UNL     1       5.581 -11.087  11.917  1.00  0.00    -0.357 OA
ATOM     50  H2  UNL     1       5.529 -11.710  12.632  1.00  0.00     0.217 HD
ENDBRANCH   2  49
TORSDOF 13
ENDMDL
MODEL 2
REMARK VINA RESULT: -8.220747285      2.536      5.769
REMARK  13 active torsions:
REMARK  status: ('A' for Active; 'I' for Inactive)
REMARK    1  A    between atoms: O1_2  and  C2_3 
REMARK    2  A    between atoms: C3_4  and  O2_5 
REMARK    3  A    between atoms: C4_7  and  C5_8 
REMARK    4  A    between atoms: C5_8  and  N1_9 
REMARK    5  A    between atoms: C8_14  and  N2_15 
REMARK    6  A    between atoms: N2_15  and  C9_17 
REMARK    7  A    between atoms: C9_17  and  C10_18 
REMARK    8  A    between atoms: C10_18  and  N3_19 
REMARK    9  A    between atoms: N4_25  and  C12_26 
REMARK   10  A    between atoms: C13_29  and  N6_30 
REMARK   11  A    between atoms: C18_39  and  N9_40 
REMARK   12  A    between atoms: N9_40  and  C19_42 
REMARK   13  A    between atoms: C23_48  and  O4_49 
ROOT
HETATM    1  C2  UNL     1       3.423  -6.484  13.269  1.00  0.00     0.138 A 
HETATM    2  C3  UNL     1       4.064  -7.498  13.907  1.00  0.00     0.114 A 
HETATM    3  C4  UNL     1       3.943  -8.841  13.437  1.00  0.00     0.028 A 
HETATM    4  C6  UNL     1       3.160  -9.045  12.332  1.00  0.00     0.011 A 
HETATM    5  C7  UNL     1       2.985 -10.308  11.807  1.00  0.00     0.050 A 
HETATM    6  C8  UNL     1       2.191 -10.474  10.693  1.00  0.00     0.099 A 
HETATM    7  C11 UNL     1       1.582  -9.425  10.108  1.00  0.00     0.293 A 
HETATM    8  O3  UNL     1       0.852  -9.610   9.078  1.00  0.00    -0.265 OA
HETATM    9  N4  UNL     1       1.728  -8.162  10.594  1.00  0.00    -0.104 N 
HETATM   10  C22 UNL     1       2.496  -7.975  11.676  1.00  0.00     0.107 A 
HETATM   11  C23 UNL     1       2.637  -6.699  12.156  1.00  0.00     0.131 A 
ENDROOT
BRANCH   9  12
HETATM   12  C12 UNL     1       1.029  -7.170   9.872  1.00  0.00     0.721 A 
HETATM   13  N5  UNL     1       1.615  -6.613   8.798  1.00  0.00    -0.021 N 
HETATM   14  C13 UNL     1       0.996  -5.689   8.037  1.00  0.00     0.709 A 
ATOM     15  H5  UNL     1       2.561  -6.901   8.549  1.00  0.00     0.203 HD
HETATM   16  N8  UNL     1      -0.255  -5.306   8.366  1.00  0.00    -0.021 N 
HETATM   17  C18 UNL     1      -0.869  -5.842   9.435  1.00  0.00     0.707 A 
ATOM     18  H8  UNL     1      -0.737  -4.606   7.802  1.00  0.00     0.203 HD
HETATM   19  N10 UNL     1      -0.219  -6.776  10.186  1.00  0.00    -0.021 N 
ATOM     20  H10 UNL     1      -0.686  -7.183  10.997  1.00  0.00     0.203 HD
BRANCH  14  21
HETATM   21  N6  UNL     1       1.652  -5.136   6.922  1.00  0.00    -0.214 N 
HETATM   22  C14 UNL     1       3.031  -5.482   6.635  1.00  0.00     0.160 C 
HETATM   23  C15 UNL     1       3.793  -4.151   6.595  1.00  0.00     0.134 C 
HETATM   24  N7  UNL     1       3.260  -3.307   5.564  1.00  0.00    -0.418 N 
HETATM   25  C16 UNL     1       1.869  -3.019   5.686  1.00  0.00     0.134 C 
ATOM     26  H7  UNL     1       3.832  -2.942   4.803  1.00  0.00     0.153 HD
HETATM   27  C17 UNL     1       1.012  -4.209   6.009  1.00  0.00     0.160 C 
ENDBRANCH  14  21
BRANCH  17  28
HETATM   28  N9  UNL     1      -2.056  -5.449   9.710  1.00  0.00    -0.221 N 
ATOM     29  H9  UNL     1      -2.748  -6.171   9.914  1.00  0.00     0.178 HD
BRANCH  28  30
HETATM   30  C19 UNL     1      -2.501  -4.089   9.756  1.00  0.00     0.091 C 
HETATM   31  C20 UNL     1      -1.929  -3.343  10.952  1.00  0.00     0.032 C 
HETATM   32  C21 UNL     1      -4.003  -4.011   9.757  1.00  0.00     0.032 C 
ENDBRANCH  28  30
ENDBRANCH  17  28
ENDBRANCH   9  12
BRANCH   6  33
HETATM   33  N2  UNL     1       2.044 -11.801  10.193  1.00  0.00    -0.384 N 
ATOM     34  H2  UNL     1       1.109 -12.125   9.942  1.00  0.00     0.159 HD
BRANCH  33  35
HETATM   35  C9  UNL     1       3.145 -12.703  10.025  1.00  0.00     0.147 C 
BRANCH  35  36
HETATM   36  C10 UNL     1       2.725 -14.073  10.500  1.00  0.00     0.249 C 
BRANCH  36  37
HETATM   37  N3  UNL     1       1.804 -14.016  11.615  1.00  0.00    -0.078 N 
ATOM     38  H33 UNL     1       2.302 -14.059  12.504  1.00  0.00     0.274 HD
ATOM     39  H32 UNL     1       1.392 -13.087  11.702  1.00  0.00     0.274 HD
ATOM     40  H31 UNL     1       1.082 -14.734  11.563  1.00  0.00     0.274 HD
ENDBRANCH  36  37
ENDBRANCH  35  36
ENDBRANCH  33  35
ENDBRANCH   6  33
BRANCH  11  41
HETATM   41  O4  UNL     1       2.017  -5.621  11.562  1.00  0.00    -0.356 OA
ATOM     42  H4  UNL     1       1.720  -4.903  12.109  1.00  0.00     0.218 HD
ENDBRANCH  11  41
BRANCH   3  43
HETATM   43  C5  UNL     1       4.681  -9.830  14.195  1.00  0.00     0.095 C 
BRANCH  43  44
HETATM   44  N1  UNL     1       4.181 -10.424  15.334  1.00  0.00    -0.407 N 
ATOM     45  H12 UNL     1       3.997  -9.824  16.138  1.00  0.00     0.155 HD
ATOM     46  H11 UNL     1       3.994 -11.425  15.399  1.00  0.00     0.155 HD
ENDBRANCH  43  44
ENDBRANCH   3  43
BRANCH   1  47
HETATM   47  O1  UNL     1       3.551  -5.184  13.739  1.00  0.00    -0.351 OA
HETATM   48  C1  UNL     1       2.655  -4.594  14.655  1.00  0.00     0.210 C 
ENDBRANCH   1  47
BRANCH   2  49
HETATM   49  O2  UNL     1       4.829  -7.197  15.014  1.00  0.00    -0.357 OA
ATOM     50  H2  UNL     1       5.501  -7.813  15.279  1.00  0.00     0.217 HD
ENDBRANCH   2  49
TORSDOF 13
ENDMDL
MODEL 3
REMARK VINA RESULT: -8.082889935      2.562      4.910
REMARK  13 active torsions:
REMARK  status: ('A' for Active; 'I' for Inactive)
REMARK    1  A    between atoms: O1_2  and  C2_3 
REMARK    2  A    between atoms: C3_4  and  O2_5 
REMARK    3  A    between atoms: C4_7  and  C5_8 
REMARK    4  A    between atoms: C5_8  and  N1_9 
REMARK    5  A    between atoms: C8_14  and  N2_15 
REMARK    6  A    between atoms: N2_15  and  C9_17 
REMARK    7  A    between atoms: C9_17  and  C10_18 
REMARK    8  A    between atoms: C10_18  and  N3_19 
REMARK    9  A    between atoms: N4_25  and  C12_26 
REMARK   10  A    between atoms: C13_29  and  N6_30 
REMARK   11  A    between atoms: C18_39  and  N9_40 
REMARK   12  A    between atoms: N9_40  and  C19_42 
REMARK   13  A    between atoms: C23_48  and  O4_49 
ROOT
HETATM    1  C2  UNL     1       2.937  -6.335  12.891  1.00  0.00     0.138 A 
HETATM    2  C3  UNL     1       3.307  -7.350  13.715  1.00  0.00     0.114 A 
HETATM    3  C4  UNL     1       3.155  -8.708  13.305  1.00  0.00     0.028 A 
HETATM    4  C6  UNL     1       2.625  -8.927  12.061  1.00  0.00     0.011 A 
HETATM    5  C7  UNL     1       2.440 -10.206  11.581  1.00  0.00     0.050 A 
HETATM    6  C8  UNL     1       1.905 -10.387  10.324  1.00  0.00     0.099 A 
HETATM    7  C11 UNL     1       1.558  -9.337   9.556  1.00  0.00     0.293 A 
HETATM    8  O3  UNL     1       1.064  -9.535   8.396  1.00  0.00    -0.265 OA
HETATM    9  N4  UNL     1       1.723  -8.058   9.992  1.00  0.00    -0.104 N 
HETATM   10  C22 UNL     1       2.242  -7.857  11.211  1.00  0.00     0.107 A 
HETATM   11  C23 UNL     1       2.405  -6.564  11.639  1.00  0.00     0.131 A 
ENDROOT
BRANCH   9  12
HETATM   12  C12 UNL     1       1.313  -7.066   9.074  1.00  0.00     0.721 A 
HETATM   13  N5  UNL     1       0.044  -6.624   9.118  1.00  0.00    -0.021 N 
HETATM   14  C13 UNL     1      -0.411  -5.654   8.302  1.00  0.00     0.709 A 
ATOM     15  H5  UNL     1      -0.598  -7.039   9.794  1.00  0.00     0.203 HD
HETATM   16  N8  UNL     1       0.437  -5.106   7.406  1.00  0.00    -0.021 N 
HETATM   17  C18 UNL     1       1.712  -5.525   7.336  1.00  0.00     0.707 A 
ATOM     18  H8  UNL     1       0.109  -4.371   6.780  1.00  0.00     0.203 HD
HETATM   19  N10 UNL     1       2.144  -6.509   8.175  1.00  0.00    -0.021 N 
ATOM     20  H10 UNL     1       3.112  -6.826   8.121  1.00  0.00     0.203 HD
BRANCH  14  21
HETATM   21  N6  UNL     1      -1.749  -5.226   8.387  1.00  0.00    -0.214 N 
HETATM   22  C14 UNL     1      -2.430  -4.709   7.215  1.00  0.00     0.160 C 
HETATM   23  C15 UNL     1      -2.914  -3.305   7.603  1.00  0.00     0.134 C 
HETATM   24  N7  UNL     1      -3.815  -3.383   8.716  1.00  0.00    -0.418 N 
HETATM   25  C16 UNL     1      -3.275  -4.004   9.881  1.00  0.00     0.134 C 
ATOM     26  H7  UNL     1      -4.768  -3.023   8.678  1.00  0.00     0.153 HD
HETATM   27  C17 UNL     1      -2.516  -5.272   9.616  1.00  0.00     0.160 C 
ENDBRANCH  14  21
BRANCH  17  28
HETATM   28  N9  UNL     1       2.481  -4.977   6.471  1.00  0.00    -0.221 N 
ATOM     29  H9  UNL     1       2.454  -5.351   5.522  1.00  0.00     0.178 HD
BRANCH  28  30
HETATM   30  C19 UNL     1       3.376  -3.887   6.716  1.00  0.00     0.091 C 
HETATM   31  C20 UNL     1       4.792  -4.365   6.998  1.00  0.00     0.032 C 
HETATM   32  C21 UNL     1       2.879  -3.022   7.841  1.00  0.00     0.032 C 
ENDBRANCH  28  30
ENDBRANCH  17  28
ENDBRANCH   9  12
BRANCH   6  33
HETATM   33  N2  UNL     1       1.736 -11.731   9.878  1.00  0.00    -0.384 N 
ATOM     34  H2  UNL     1       0.788 -12.094   9.779  1.00  0.00     0.159 HD
BRANCH  33  35
HETATM   35  C9  UNL     1       2.834 -12.596   9.560  1.00  0.00     0.147 C 
BRANCH  35  36
HETATM   36  C10 UNL     1       2.615 -13.924  10.244  1.00  0.00     0.249 C 
BRANCH  36  37
HETATM   37  N3  UNL     1       1.838 -13.803  11.458  1.00  0.00    -0.078 N 
ATOM     38  H33 UNL     1       1.629 -14.720  11.853  1.00  0.00     0.274 HD
ATOM     39  H32 UNL     1       2.402 -13.421  12.217  1.00  0.00     0.274 HD
ATOM     40  H31 UNL     1       0.986 -13.258  11.324  1.00  0.00     0.274 HD
ENDBRANCH  36  37
ENDBRANCH  35  36
ENDBRANCH  33  35
ENDBRANCH   6  33
BRANCH  11  41
HETATM   41  O4  UNL     1       2.051  -5.484  10.859  1.00  0.00    -0.356 OA
ATOM     42  H4  UNL     1       1.506  -5.630  10.095  1.00  0.00     0.218 HD
ENDBRANCH  11  41
BRANCH   3  43
HETATM   43  C5  UNL     1       3.594  -9.698  14.268  1.00  0.00     0.095 C 
BRANCH  43  44
HETATM   44  N1  UNL     1       4.914 -10.069  14.408  1.00  0.00    -0.407 N 
ATOM     45  H12 UNL     1       5.477 -10.140  13.561  1.00  0.00     0.155 HD
ATOM     46  H11 UNL     1       5.338 -10.271  15.314  1.00  0.00     0.155 HD
ENDBRANCH  43  44
ENDBRANCH   3  43
BRANCH   1  47
HETATM   47  O1  UNL     1       3.092  -5.019  13.305  1.00  0.00    -0.351 OA
HETATM   48  C1  UNL     1       2.133  -4.325  14.074  1.00  0.00     0.210 C 
ENDBRANCH   1  47
BRANCH   2  49
HETATM   49  O2  UNL     1       3.829  -7.032  14.951  1.00  0.00    -0.357 OA
ATOM     50  H2  UNL     1       4.432  -7.645  15.357  1.00  0.00     0.217 HD
ENDBRANCH   2  49
TORSDOF 13
ENDMDL
MODEL 4
REMARK VINA RESULT: -8.036091597      2.064      4.513
REMARK  13 active torsions:
REMARK  status: ('A' for Active; 'I' for Inactive)
REMARK    1  A    between atoms: O1_2  and  C2_3 
REMARK    2  A    between atoms: C3_4  and  O2_5 
REMARK    3  A    between atoms: C4_7  and  C5_8 
REMARK    4  A    between atoms: C5_8  and  N1_9 
REMARK    5  A    between atoms: C8_14  and  N2_15 
REMARK    6  A    between atoms: N2_15  and  C9_17 
REMARK    7  A    between atoms: C9_17  and  C10_18 
REMARK    8  A    between atoms: C10_18  and  N3_19 
REMARK    9  A    between atoms: N4_25  and  C12_26 
REMARK   10  A    between atoms: C13_29  and  N6_30 
REMARK   11  A    between atoms: C18_39  and  N9_40 
REMARK   12  A    between atoms: N9_40  and  C19_42 
REMARK   13  A    between atoms: C23_48  and  O4_49 
ROOT
HETATM    1  C2  UNL     1       4.173  -6.602  14.497  1.00  0.00     0.138 A 
HETATM    2  C3  UNL     1       4.680  -7.782  14.943  1.00  0.00     0.114 A 
HETATM    3  C4  UNL     1       4.667  -8.938  14.107  1.00  0.00     0.028 A 
HETATM    4  C6  UNL     1       4.125  -8.796  12.857  1.00  0.00     0.011 A 
HETATM    5  C7  UNL     1       4.068  -9.859  11.980  1.00  0.00     0.050 A 
HETATM    6  C8  UNL     1       3.517  -9.678  10.731  1.00  0.00     0.099 A 
HETATM    7  C11 UNL     1       3.030  -8.481  10.350  1.00  0.00     0.293 A 
HETATM    8  O3  UNL     1       2.524  -8.343   9.188  1.00  0.00    -0.265 OA
HETATM    9  N4  UNL     1       3.065  -7.406  11.185  1.00  0.00    -0.104 N 
HETATM   10  C22 UNL     1       3.598  -7.558  12.405  1.00  0.00     0.107 A 
HETATM   11  C23 UNL     1       3.629  -6.468  13.237  1.00  0.00     0.131 A 
ENDROOT
BRANCH   9  12
HETATM   12  C12 UNL     1       2.518  -6.222  10.643  1.00  0.00     0.721 A 
HETATM   13  N5  UNL     1       1.206  -5.978  10.808  1.00  0.00    -0.021 N 
HETATM   14  C13 UNL     1       0.620  -4.854  10.354  1.00  0.00     0.709 A 
ATOM     15  H5  UNL     1       0.635  -6.669  11.295  1.00  0.00     0.203 HD
HETATM   16  N8  UNL     1       1.375  -3.940   9.709  1.00  0.00    -0.021 N 
HETATM   17  C18 UNL     1       2.688  -4.154   9.526  1.00  0.00     0.707 A 
ATOM     18  H8  UNL     1       0.946  -3.084   9.357  1.00  0.00     0.203 HD
HETATM   19  N10 UNL     1       3.255  -5.301   9.997  1.00  0.00    -0.021 N 
ATOM     20  H10 UNL     1       4.253  -5.462   9.859  1.00  0.00     0.203 HD
BRANCH  14  21
HETATM   21  N6  UNL     1      -0.758  -4.644  10.552  1.00  0.00    -0.214 N 
HETATM   22  C14 UNL     1      -1.721  -5.638  10.118  1.00  0.00     0.160 C 
HETATM   23  C15 UNL     1      -2.676  -4.902   9.167  1.00  0.00     0.134 C 
HETATM   24  N7  UNL     1      -3.333  -3.831   9.859  1.00  0.00    -0.418 N 
HETATM   25  C16 UNL     1      -2.458  -2.868  10.442  1.00  0.00     0.134 C 
ATOM     26  H7  UNL     1      -4.348  -3.763   9.928  1.00  0.00     0.153 HD
HETATM   27  C17 UNL     1      -1.293  -3.455  11.185  1.00  0.00     0.160 C 
ENDBRANCH  14  21
BRANCH  17  28
HETATM   28  N9  UNL     1       3.366  -3.260   8.909  1.00  0.00    -0.221 N 
ATOM     29  H9  UNL     1       3.718  -2.479   9.463  1.00  0.00     0.178 HD
BRANCH  28  30
HETATM   30  C19 UNL     1       3.676  -3.258   7.511  1.00  0.00     0.091 C 
HETATM   31  C20 UNL     1       2.424  -3.181   6.650  1.00  0.00     0.032 C 
HETATM   32  C21 UNL     1       4.498  -4.461   7.137  1.00  0.00     0.032 C 
ENDBRANCH  28  30
ENDBRANCH  17  28
ENDBRANCH   9  12
BRANCH   6  33
HETATM   33  N2  UNL     1       3.484 -10.810   9.866  1.00  0.00    -0.384 N 
ATOM     34  H2  UNL     1       3.629 -10.661   8.866  1.00  0.00     0.159 HD
BRANCH  33  35
HETATM   35  C9  UNL     1       3.258 -12.147  10.330  1.00  0.00     0.147 C 
BRANCH  35  36
HETATM   36  C10 UNL     1       1.773 -12.350  10.514  1.00  0.00     0.249 C 
BRANCH  36  37
HETATM   37  N3  UNL     1       1.460 -13.098  11.713  1.00  0.00    -0.078 N 
ATOM     38  H33 UNL     1       2.282 -13.588  12.065  1.00  0.00     0.274 HD
ATOM     39  H32 UNL     1       1.291 -12.473  12.501  1.00  0.00     0.274 HD
ATOM     40  H31 UNL     1       0.679 -13.740  11.580  1.00  0.00     0.274 HD
ENDBRANCH  36  37
ENDBRANCH  35  36
ENDBRANCH  33  35
ENDBRANCH   6  33
BRANCH  11  41
HETATM   41  O4  UNL     1       3.133  -5.241  12.854  1.00  0.00    -0.356 OA
ATOM     42  H4  UNL     1       2.228  -5.179  12.573  1.00  0.00     0.218 HD
ENDBRANCH  11  41
BRANCH   3  43
HETATM   43  C5  UNL     1       5.245 -10.131  14.692  1.00  0.00     0.095 C 
BRANCH  43  44
HETATM   44  N1  UNL     1       4.618 -10.856  15.683  1.00  0.00    -0.407 N 
ATOM     45  H12 UNL     1       3.879 -11.500  15.401  1.00  0.00     0.155 HD
ATOM     46  H11 UNL     1       4.865 -10.772  16.669  1.00  0.00     0.155 HD
ENDBRANCH  43  44
ENDBRANCH   3  43
BRANCH   1  47
HETATM   47  O1  UNL     1       4.194  -5.487  15.323  1.00  0.00    -0.351 OA
HETATM   48  C1  UNL     1       3.160  -5.168  16.230  1.00  0.00     0.210 C 
ENDBRANCH   1  47
BRANCH   2  49
HETATM   49  O2  UNL     1       5.204  -7.830  16.218  1.00  0.00    -0.357 OA
ATOM     50  H2  UNL     1       6.133  -8.001  16.318  1.00  0.00     0.217 HD
ENDBRANCH   2  49
TORSDOF 13
ENDMDL
MODEL 5
REMARK VINA RESULT: -7.926045742      2.389      4.831
REMARK  13 active torsions:
REMARK  status: ('A' for Active; 'I' for Inactive)
REMARK    1  A    between atoms: O1_2  and  C2_3 
REMARK    2  A    between atoms: C3_4  and  O2_5 
REMARK    3  A    between atoms: C4_7  and  C5_8 
REMARK    4  A    between atoms: C5_8  and  N1_9 
REMARK    5  A    between atoms: C8_14  and  N2_15 
REMARK    6  A    between atoms: N2_15  and  C9_17 
REMARK    7  A    between atoms: C9_17  and  C10_18 
REMARK    8  A    between atoms: C10_18  and  N3_19 
REMARK    9  A    between atoms: N4_25  and  C12_26 
REMARK   10  A    between atoms: C13_29  and  N6_30 
REMARK   11  A    between atoms: C18_39  and  N9_40 
REMARK   12  A    between atoms: N9_40  and  C19_42 
REMARK   13  A    between atoms: C23_48  and  O4_49 
ROOT
HETATM    1  C2  UNL     1       1.933  -6.602  13.627  1.00  0.00     0.138 A 
HETATM    2  C3  UNL     1       2.325  -7.756  14.229  1.00  0.00     0.114 A 
HETATM    3  C4  UNL     1       2.586  -8.925  13.453  1.00  0.00     0.028 A 
HETATM    4  C6  UNL     1       2.421  -8.821  12.097  1.00  0.00     0.011 A 
HETATM    5  C7  UNL     1       2.649  -9.898  11.267  1.00  0.00     0.050 A 
HETATM    6  C8  UNL     1       2.475  -9.756   9.908  1.00  0.00     0.099 A 
HETATM    7  C11 UNL     1       2.083  -8.583   9.374  1.00  0.00     0.293 A 
HETATM    8  O3  UNL     1       1.929  -8.480   8.112  1.00  0.00    -0.265 OA
HETATM    9  N4  UNL     1       1.847  -7.494  10.157  1.00  0.00    -0.104 N 
HETATM   10  C22 UNL     1       2.011  -7.609  11.482  1.00  0.00     0.107 A 
HETATM   11  C23 UNL     1       1.771  -6.506  12.261  1.00  0.00     0.131 A 
ENDROOT
BRANCH   9  12
HETATM   12  C12 UNL     1       1.444  -6.339   9.452  1.00  0.00     0.721 A 
HETATM   13  N5  UNL     1       0.131  -6.118   9.262  1.00  0.00    -0.021 N 
HETATM   14  C13 UNL     1      -0.331  -5.020   8.634  1.00  0.00     0.709 A 
ATOM     15  H5  UNL     1      -0.538  -6.807   9.607  1.00  0.00     0.203 HD
HETATM   16  N8  UNL     1       0.554  -4.109   8.176  1.00  0.00    -0.021 N 
HETATM   17  C18 UNL     1       1.872  -4.301   8.349  1.00  0.00     0.707 A 
ATOM     18  H8  UNL     1       0.221  -3.273   7.697  1.00  0.00     0.203 HD
HETATM   19  N10 UNL     1       2.312  -5.421   8.990  1.00  0.00    -0.021 N 
ATOM     20  H10 UNL     1       3.314  -5.565   9.121  1.00  0.00     0.203 HD
BRANCH  14  21
HETATM   21  N6  UNL     1      -1.715  -4.834   8.460  1.00  0.00    -0.214 N 
HETATM   22  C14 UNL     1      -2.245  -4.425   7.173  1.00  0.00     0.160 C 
HETATM   23  C15 UNL     1      -3.031  -3.134   7.439  1.00  0.00     0.134 C 
HETATM   24  N7  UNL     1      -4.096  -3.387   8.365  1.00  0.00    -0.418 N 
HETATM   25  C16 UNL     1      -3.684  -3.923   9.621  1.00  0.00     0.134 C 
ATOM     26  H7  UNL     1      -5.073  -3.198   8.143  1.00  0.00     0.153 HD
HETATM   27  C17 UNL     1      -2.679  -5.034   9.524  1.00  0.00     0.160 C 
ENDBRANCH  14  21
BRANCH  17  28
HETATM   28  N9  UNL     1       2.676  -3.411   7.900  1.00  0.00    -0.221 N 
ATOM     29  H9  UNL     1       2.734  -2.534   8.417  1.00  0.00     0.178 HD
BRANCH  28  30
HETATM   30  C19 UNL     1       3.500  -3.536   6.736  1.00  0.00     0.091 C 
HETATM   31  C20 UNL     1       2.710  -4.012   5.527  1.00  0.00     0.032 C 
HETATM   32  C21 UNL     1       4.667  -4.449   6.995  1.00  0.00     0.032 C 
ENDBRANCH  28  30
ENDBRANCH  17  28
ENDBRANCH   9  12
BRANCH   6  33
HETATM   33  N2  UNL     1       2.725 -10.902   9.098  1.00  0.00    -0.384 N 
ATOM     34  H2  UNL     1       1.944 -11.313   8.585  1.00  0.00     0.159 HD
BRANCH  33  35
HETATM   35  C9  UNL     1       4.019 -11.504   8.967  1.00  0.00     0.147 C 
BRANCH  35  36
HETATM   36  C10 UNL     1       4.617 -11.084   7.646  1.00  0.00     0.249 C 
BRANCH  36  37
HETATM   37  N3  UNL     1       5.953 -10.549   7.787  1.00  0.00    -0.078 N 
ATOM     38  H33 UNL     1       6.067  -9.698   7.236  1.00  0.00     0.274 HD
ATOM     39  H32 UNL     1       6.097 -10.162   8.719  1.00  0.00     0.274 HD
ATOM     40  H31 UNL     1       6.674 -11.233   7.559  1.00  0.00     0.274 HD
ENDBRANCH  36  37
ENDBRANCH  35  36
ENDBRANCH  33  35
ENDBRANCH   6  33
BRANCH  11  41
HETATM   41  O4  UNL     1       1.370  -5.302  11.722  1.00  0.00    -0.356 OA
ATOM     42  H4  UNL     1       1.825  -4.510  11.981  1.00  0.00     0.218 HD
ENDBRANCH  11  41
BRANCH   3  43
HETATM   43  C5  UNL     1       3.006 -10.088  14.208  1.00  0.00     0.095 C 
BRANCH  43  44
HETATM   44  N1  UNL     1       4.102 -10.081  15.043  1.00  0.00    -0.407 N 
ATOM     45  H12 UNL     1       4.068 -10.673  15.872  1.00  0.00     0.155 HD
ATOM     46  H11 UNL     1       4.932  -9.515  14.861  1.00  0.00     0.155 HD
ENDBRANCH  43  44
ENDBRANCH   3  43
BRANCH   1  47
HETATM   47  O1  UNL     1       1.684  -5.474  14.397  1.00  0.00    -0.351 OA
HETATM   48  C1  UNL     1       2.629  -4.446  14.603  1.00  0.00     0.210 C 
ENDBRANCH   1  47
BRANCH   2  49
HETATM   49  O2  UNL     1       2.462  -7.766  15.601  1.00  0.00    -0.357 OA
ATOM     50  H2  UNL     1       1.978  -8.415  16.098  1.00  0.00     0.217 HD
ENDBRANCH   2  49
TORSDOF 13
ENDMDL
