MODEL 1
REMARK VINA RESULT: -7.766932418      0.000      0.000
REMARK  10 active torsions:
REMARK  status: ('A' for Active; 'I' for Inactive)
REMARK       I    between atoms: C2_2  and  N1_4 
REMARK    1  A    between atoms: N1_4  and  C3_6 
REMARK    2  A    between atoms: C5_11  and  S1_12 
REMARK    3  A    between atoms: S1_12  and  C6_13 
REMARK    4  A    between atoms: C6_13  and  C7_14 
REMARK       I    between atoms: C7_14  and  N4_16 
REMARK    5  A    between atoms: N4_16  and  S2_18 
REMARK    6  A    between atoms: S2_18  and  C8_21 
REMARK    7  A    between atoms: C10_31  and  O4_32 
REMARK    8  A    between atoms: C11_34  and  N8_35 
REMARK    9  A    between atoms: N8_35  and  C12_36 
REMARK   10  A    between atoms: C12_36  and  C14_38 
ROOT
HETATM    1  C3  UNL     1       3.255  -9.466  10.593  1.00  0.00     0.120 A 
HETATM    2  C4  UNL     1       3.938  -8.304  10.918  1.00  0.00     0.147 A 
HETATM    3  N2  UNL     1       4.385  -7.468   9.846  1.00  0.00    -0.080 NA
HETATM    4  N3  UNL     1       4.183  -7.964  12.196  1.00  0.00    -0.335 N 
ATOM      5  H3  UNL     1       4.689  -7.097  12.380  1.00  0.00     0.168 HD
HETATM    6  C5  UNL     1       3.794  -8.706  13.234  1.00  0.00     0.108 A 
HETATM    7  C10 UNL     1       3.116  -9.864  12.947  1.00  0.00     0.142 A 
HETATM    8  C11 UNL     1       2.826 -10.281  11.613  1.00  0.00     0.167 A 
ENDROOT
BRANCH   6   9
HETATM    9  S1  UNL     1       4.150  -8.256  14.919  1.00  0.00    -0.100 SA
BRANCH   9  10
HETATM   10  C6  UNL     1       3.133  -6.943  15.576  1.00  0.00     0.184 C 
BRANCH  10  11
HETATM   11  C7  UNL     1       2.481  -6.163  14.535  1.00  0.00     0.239 C 
HETATM   12  O2  UNL     1       2.881  -4.960  14.332  1.00  0.00    -0.272 OA
HETATM   13  N4  UNL     1       1.428  -6.597  13.708  1.00  0.00    -0.272 N 
ATOM     14  H4  UNL     1       1.080  -7.543  13.861  1.00  0.00     0.179 HD
BRANCH  13  15
HETATM   15  S2  UNL     1       0.682  -5.688  12.476  1.00  0.00     0.149 S 
HETATM   16  O3  UNL     1      -0.224  -6.657  11.710  1.00  0.00    -0.230 OA
HETATM   17  S3  UNL     1      -0.356  -4.476  13.058  1.00  0.00     0.037 SA
BRANCH  15  18
HETATM   18  C8  UNL     1       1.809  -5.066  11.280  1.00  0.00     0.179 A 
HETATM   19  N5  UNL     1       3.115  -4.838  11.408  1.00  0.00    -0.283 N 
HETATM   20  N6  UNL     1       3.774  -4.372  10.435  1.00  0.00    -0.279 N 
ATOM     21  H5  UNL     1       3.582  -5.038  12.292  1.00  0.00     0.188 HD
HETATM   22  C9  UNL     1       3.158  -4.114   9.288  1.00  0.00     0.159 A 
ATOM     23  H6  UNL     1       4.774  -4.196  10.531  1.00  0.00     0.189 HD
HETATM   24  N7  UNL     1       3.647  -3.638   8.172  1.00  0.00    -0.379 N 
HETATM   25  S4  UNL     1       1.541  -4.578   9.664  1.00  0.00    -0.023 SA
ATOM     26  H72 UNL     1       4.604  -3.364   7.949  1.00  0.00     0.158 HD
ATOM     27  H71 UNL     1       3.174  -3.440   7.291  1.00  0.00     0.158 HD
ENDBRANCH  15  18
ENDBRANCH  13  15
ENDBRANCH  10  11
ENDBRANCH   9  10
ENDBRANCH   6   9
BRANCH   7  28
HETATM   28  O4  UNL     1       2.689 -10.672  13.975  1.00  0.00    -0.355 OA
ATOM     29  H4  UNL     1       1.759 -10.759  14.148  1.00  0.00     0.218 HD
ENDBRANCH   7  28
BRANCH   8  30
HETATM   30  N8  UNL     1       2.230 -11.316  11.435  1.00  0.00    -0.431 NA
BRANCH  30  31
HETATM   31  C12 UNL     1       1.718 -12.456  10.979  1.00  0.00     0.220 C 
HETATM   32  C13 UNL     1       2.563 -13.150   9.906  1.00  0.00     0.055 C 
BRANCH  31  33
HETATM   33  C14 UNL     1       1.461 -13.495  12.049  1.00  0.00     0.269 C 
HETATM   34  O5  UNL     1       1.205 -13.076  13.188  1.00  0.00    -0.303 OA
ENDBRANCH  31  33
ENDBRANCH  30  31
ENDBRANCH   8  30
BRANCH   1  35
HETATM   35  N1  UNL     1       3.035  -9.712   9.208  1.00  0.00    -0.322 N 
HETATM   36  C2  UNL     1       1.887  -9.633   8.471  1.00  0.00     0.218 C 
HETATM   37  C1  UNL     1       1.822  -9.926   6.996  1.00  0.00     0.117 C 
HETATM   38  O1  UNL     1       0.758  -9.300   8.967  1.00  0.00    -0.274 OA
ATOM     39  H1  UNL     1       3.864  -9.992   8.684  1.00  0.00     0.169 HD
ENDBRANCH   1  35
TORSDOF 10
ENDMDL
MODEL 2
REMARK VINA RESULT: -7.687209853      2.531      4.914
REMARK  10 active torsions:
REMARK  status: ('A' for Active; 'I' for Inactive)
REMARK       I    between atoms: C2_2  and  N1_4 
REMARK    1  A    between atoms: N1_4  and  C3_6 
REMARK    2  A    between atoms: C5_11  and  S1_12 
REMARK    3  A    between atoms: S1_12  and  C6_13 
REMARK    4  A    between atoms: C6_13  and  C7_14 
REMARK       I    between atoms: C7_14  and  N4_16 
REMARK    5  A    between atoms: N4_16  and  S2_18 
REMARK    6  A    between atoms: S2_18  and  C8_21 
REMARK    7  A    between atoms: C10_31  and  O4_32 
REMARK    8  A    between atoms: C11_34  and  N8_35 
REMARK    9  A    between atoms: N8_35  and  C12_36 
REMARK   10  A    between atoms: C12_36  and  C14_38 
ROOT
HETATM    1  C3  UNL     1       2.700  -7.451  13.332  1.00  0.00     0.120 A 
HETATM    2  C4  UNL     1       2.443  -6.325  14.099  1.00  0.00     0.147 A 
HETATM    3  N2  UNL     1       3.303  -6.060  15.211  1.00  0.00    -0.080 NA
HETATM    4  N3  UNL     1       1.417  -5.501  13.818  1.00  0.00    -0.335 N 
ATOM      5  H3  UNL     1       1.271  -4.685  14.414  1.00  0.00     0.168 HD
HETATM    6  C5  UNL     1       0.581  -5.700  12.798  1.00  0.00     0.108 A 
HETATM    7  C10 UNL     1       0.807  -6.807  12.021  1.00  0.00     0.142 A 
HETATM    8  C11 UNL     1       1.876  -7.720  12.265  1.00  0.00     0.167 A 
ENDROOT
BRANCH   6   9
HETATM    9  S1  UNL     1      -0.789  -4.616  12.457  1.00  0.00    -0.100 SA
BRANCH   9  10
HETATM   10  C6  UNL     1      -0.400  -3.220  11.415  1.00  0.00     0.184 C 
BRANCH  10  11
HETATM   11  C7  UNL     1      -0.271  -3.585  10.012  1.00  0.00     0.239 C 
HETATM   12  O2  UNL     1       0.242  -2.730   9.204  1.00  0.00    -0.272 OA
HETATM   13  N4  UNL     1      -0.665  -4.805   9.432  1.00  0.00    -0.272 N 
ATOM     14  H4  UNL     1      -1.092  -5.495  10.050  1.00  0.00     0.179 HD
BRANCH  13  15
HETATM   15  S2  UNL     1      -0.493  -5.237   7.793  1.00  0.00     0.149 S 
HETATM   16  O3  UNL     1      -0.712  -6.751   7.718  1.00  0.00    -0.230 OA
HETATM   17  S3  UNL     1      -1.682  -4.565   6.784  1.00  0.00     0.037 SA
BRANCH  15  18
HETATM   18  C8  UNL     1       1.126  -4.973   7.163  1.00  0.00     0.179 A 
HETATM   19  N5  UNL     1       1.492  -4.624   5.931  1.00  0.00    -0.283 N 
HETATM   20  N6  UNL     1       2.717  -4.489   5.650  1.00  0.00    -0.279 N 
ATOM     21  H5  UNL     1       0.783  -4.467   5.215  1.00  0.00     0.188 HD
HETATM   22  C9  UNL     1       3.633  -4.696   6.587  1.00  0.00     0.159 A 
ATOM     23  H6  UNL     1       2.999  -4.223   4.706  1.00  0.00     0.189 HD
HETATM   24  N7  UNL     1       4.936  -4.609   6.508  1.00  0.00    -0.379 N 
HETATM   25  S4  UNL     1       2.644  -5.106   7.938  1.00  0.00    -0.023 SA
ATOM     26  H72 UNL     1       5.522  -4.366   5.709  1.00  0.00     0.158 HD
ATOM     27  H71 UNL     1       5.640  -4.767   7.228  1.00  0.00     0.158 HD
ENDBRANCH  15  18
ENDBRANCH  13  15
ENDBRANCH  10  11
ENDBRANCH   9  10
ENDBRANCH   6   9
BRANCH   7  28
HETATM   28  O4  UNL     1      -0.022  -7.067  10.953  1.00  0.00    -0.355 OA
ATOM     29  H4  UNL     1       0.321  -7.527  10.195  1.00  0.00     0.218 HD
ENDBRANCH   7  28
BRANCH   8  30
HETATM   30  N8  UNL     1       2.013  -8.678  11.543  1.00  0.00    -0.431 NA
BRANCH  30  31
HETATM   31  C12 UNL     1       2.443  -9.637  10.726  1.00  0.00     0.220 C 
HETATM   32  C13 UNL     1       2.243 -11.061  11.256  1.00  0.00     0.055 C 
BRANCH  31  33
HETATM   33  C14 UNL     1       1.818  -9.609   9.349  1.00  0.00     0.269 C 
HETATM   34  O5  UNL     1       0.591  -9.432   9.293  1.00  0.00    -0.303 OA
ENDBRANCH  31  33
ENDBRANCH  30  31
ENDBRANCH   8  30
BRANCH   1  35
HETATM   35  N1  UNL     1       3.826  -8.237  13.709  1.00  0.00    -0.322 N 
HETATM   36  C2  UNL     1       3.884  -9.468  14.298  1.00  0.00     0.218 C 
HETATM   37  C1  UNL     1       5.171 -10.173  14.632  1.00  0.00     0.117 C 
HETATM   38  O1  UNL     1       2.846 -10.139  14.621  1.00  0.00    -0.274 OA
ATOM     39  H1  UNL     1       4.733  -7.814  13.507  1.00  0.00     0.169 HD
ENDBRANCH   1  35
TORSDOF 10
ENDMDL
MODEL 3
REMARK VINA RESULT: -7.656105954      2.627      6.222
REMARK  10 active torsions:
REMARK  status: ('A' for Active; 'I' for Inactive)
REMARK       I    between atoms: C2_2  and  N1_4 
REMARK    1  A    between atoms: N1_4  and  C3_6 
REMARK    2  A    between atoms: C5_11  and  S1_12 
REMARK    3  A    between atoms: S1_12  and  C6_13 
REMARK    4  A    between atoms: C6_13  and  C7_14 
REMARK       I    between atoms: C7_14  and  N4_16 
REMARK    5  A    between atoms: N4_16  and  S2_18 
REMARK    6  A    between atoms: S2_18  and  C8_21 
REMARK    7  A    between atoms: C10_31  and  O4_32 
REMARK    8  A    between atoms: C11_34  and  N8_35 
REMARK    9  A    between atoms: N8_35  and  C12_36 
REMARK   10  A    between atoms: C12_36  and  C14_38 
ROOT
HETATM    1  C3  UNL     1       1.395  -4.772   8.735  1.00  0.00     0.120 A 
HETATM    2  C4  UNL     1       1.770  -5.490   7.610  1.00  0.00     0.147 A 
HETATM    3  N2  UNL     1       2.071  -4.757   6.418  1.00  0.00    -0.080 NA
HETATM    4  N3  UNL     1       1.849  -6.833   7.625  1.00  0.00    -0.335 N 
ATOM      5  H3  UNL     1       2.131  -7.312   6.769  1.00  0.00     0.168 HD
HETATM    6  C5  UNL     1       1.576  -7.566   8.705  1.00  0.00     0.108 A 
HETATM    7  C10 UNL     1       1.200  -6.886   9.835  1.00  0.00     0.142 A 
HETATM    8  C11 UNL     1       1.096  -5.464   9.885  1.00  0.00     0.167 A 
ENDROOT
BRANCH   6   9
HETATM    9  S1  UNL     1       1.658  -9.344   8.700  1.00  0.00    -0.100 SA
BRANCH   9  10
HETATM   10  C6  UNL     1       3.240 -10.024   9.173  1.00  0.00     0.184 C 
BRANCH  10  11
HETATM   11  C7  UNL     1       3.684  -9.558  10.478  1.00  0.00     0.239 C 
HETATM   12  O2  UNL     1       4.688  -8.760  10.533  1.00  0.00    -0.272 OA
HETATM   13  N4  UNL     1       3.118  -9.903  11.720  1.00  0.00    -0.272 N 
ATOM     14  H4  UNL     1       2.330 -10.551  11.704  1.00  0.00     0.179 HD
BRANCH  13  15
HETATM   15  S2  UNL     1       3.627  -9.340  13.244  1.00  0.00     0.149 S 
HETATM   16  O3  UNL     1       2.747 -10.042  14.283  1.00  0.00    -0.230 OA
HETATM   17  S3  UNL     1       5.218  -9.783  13.638  1.00  0.00     0.037 SA
BRANCH  15  18
HETATM   18  C8  UNL     1       3.346  -7.622  13.488  1.00  0.00     0.179 A 
HETATM   19  N5  UNL     1       3.336  -6.645  12.583  1.00  0.00    -0.283 N 
HETATM   20  N6  UNL     1       3.127  -5.452  12.944  1.00  0.00    -0.279 N 
ATOM     21  H5  UNL     1       3.497  -6.860  11.600  1.00  0.00     0.188 HD
HETATM   22  C9  UNL     1       2.917  -5.180  14.226  1.00  0.00     0.159 A 
ATOM     23  H6  UNL     1       3.119  -4.702  12.252  1.00  0.00     0.189 HD
HETATM   24  N7  UNL     1       2.682  -4.030  14.803  1.00  0.00    -0.379 N 
HETATM   25  S4  UNL     1       3.035  -6.751  14.925  1.00  0.00    -0.023 SA
ATOM     26  H72 UNL     1       2.612  -3.100  14.389  1.00  0.00     0.158 HD
ATOM     27  H71 UNL     1       2.521  -3.820  15.788  1.00  0.00     0.158 HD
ENDBRANCH  15  18
ENDBRANCH  13  15
ENDBRANCH  10  11
ENDBRANCH   9  10
ENDBRANCH   6   9
BRANCH   7  28
HETATM   28  O4  UNL     1       0.905  -7.588  10.982  1.00  0.00    -0.355 OA
ATOM     29  H4  UNL     1       0.019  -7.900  11.125  1.00  0.00     0.218 HD
ENDBRANCH   7  28
BRANCH   8  30
HETATM   30  N8  UNL     1       0.753  -4.932  10.913  1.00  0.00    -0.431 NA
BRANCH  30  31
HETATM   31  C12 UNL     1       0.149  -4.250  11.883  1.00  0.00     0.220 C 
HETATM   32  C13 UNL     1      -0.913  -3.258  11.397  1.00  0.00     0.055 C 
BRANCH  31  33
HETATM   33  C14 UNL     1      -0.529  -5.114  12.923  1.00  0.00     0.269 C 
HETATM   34  O5  UNL     1       0.015  -6.196  13.195  1.00  0.00    -0.303 OA
ENDBRANCH  31  33
ENDBRANCH  30  31
ENDBRANCH   8  30
BRANCH   1  35
HETATM   35  N1  UNL     1       1.368  -3.353   8.609  1.00  0.00    -0.322 N 
HETATM   36  C2  UNL     1       2.376  -2.439   8.730  1.00  0.00     0.218 C 
HETATM   37  C1  UNL     1       2.180  -0.956   8.561  1.00  0.00     0.117 C 
HETATM   38  O1  UNL     1       3.583  -2.759   8.997  1.00  0.00    -0.274 OA
ATOM     39  H1  UNL     1       0.452  -2.958   8.395  1.00  0.00     0.169 HD
ENDBRANCH   1  35
TORSDOF 10
ENDMDL
MODEL 4
REMARK VINA RESULT: -7.635328663      2.925      5.295
REMARK  10 active torsions:
REMARK  status: ('A' for Active; 'I' for Inactive)
REMARK       I    between atoms: C2_2  and  N1_4 
REMARK    1  A    between atoms: N1_4  and  C3_6 
REMARK    2  A    between atoms: C5_11  and  S1_12 
REMARK    3  A    between atoms: S1_12  and  C6_13 
REMARK    4  A    between atoms: C6_13  and  C7_14 
REMARK       I    between atoms: C7_14  and  N4_16 
REMARK    5  A    between atoms: N4_16  and  S2_18 
REMARK    6  A    between atoms: S2_18  and  C8_21 
REMARK    7  A    between atoms: C10_31  and  O4_32 
REMARK    8  A    between atoms: C11_34  and  N8_35 
REMARK    9  A    between atoms: N8_35  and  C12_36 
REMARK   10  A    between atoms: C12_36  and  C14_38 
ROOT
HETATM    1  C3  UNL     1       2.932  -7.900  11.629  1.00  0.00     0.120 A 
HETATM    2  C4  UNL     1       2.315  -7.520  10.447  1.00  0.00     0.147 A 
HETATM    3  N2  UNL     1       2.931  -7.907   9.215  1.00  0.00    -0.080 NA
HETATM    4  N3  UNL     1       1.174  -6.806  10.445  1.00  0.00    -0.335 N 
ATOM      5  H3  UNL     1       0.761  -6.553   9.547  1.00  0.00     0.168 HD
HETATM    6  C5  UNL     1       0.559  -6.415  11.561  1.00  0.00     0.108 A 
HETATM    7  C10 UNL     1       1.144  -6.774  12.749  1.00  0.00     0.142 A 
HETATM    8  C11 UNL     1       2.353  -7.528  12.819  1.00  0.00     0.167 A 
ENDROOT
BRANCH   6   9
HETATM    9  S1  UNL     1      -0.935  -5.447  11.541  1.00  0.00    -0.100 SA
BRANCH   9  10
HETATM   10  C6  UNL     1      -2.029  -5.783  10.171  1.00  0.00     0.184 C 
BRANCH  10  11
HETATM   11  C7  UNL     1      -1.380  -5.614   8.879  1.00  0.00     0.239 C 
HETATM   12  O2  UNL     1      -0.803  -6.630   8.349  1.00  0.00    -0.272 OA
HETATM   13  N4  UNL     1      -1.314  -4.423   8.133  1.00  0.00    -0.272 N 
ATOM     14  H4  UNL     1      -1.750  -3.596   8.542  1.00  0.00     0.179 HD
BRANCH  13  15
HETATM   15  S2  UNL     1      -0.572  -4.234   6.612  1.00  0.00     0.149 S 
HETATM   16  O3  UNL     1      -1.183  -5.298   5.695  1.00  0.00    -0.230 OA
HETATM   17  S3  UNL     1      -0.920  -2.749   5.864  1.00  0.00     0.037 SA
BRANCH  15  18
HETATM   18  C8  UNL     1       1.153  -4.572   6.624  1.00  0.00     0.179 A 
HETATM   19  N5  UNL     1       1.772  -5.726   6.863  1.00  0.00    -0.283 N 
HETATM   20  N6  UNL     1       3.035  -5.783   6.841  1.00  0.00    -0.279 N 
ATOM     21  H5  UNL     1       1.227  -6.564   7.063  1.00  0.00     0.188 HD
HETATM   22  C9  UNL     1       3.737  -4.687   6.579  1.00  0.00     0.159 A 
ATOM     23  H6  UNL     1       3.511  -6.666   7.024  1.00  0.00     0.189 HD
HETATM   24  N7  UNL     1       5.034  -4.530   6.506  1.00  0.00    -0.379 N 
HETATM   25  S4  UNL     1       2.480  -3.528   6.356  1.00  0.00    -0.023 SA
ATOM     26  H72 UNL     1       5.778  -5.216   6.638  1.00  0.00     0.158 HD
ATOM     27  H71 UNL     1       5.574  -3.689   6.305  1.00  0.00     0.158 HD
ENDBRANCH  15  18
ENDBRANCH  13  15
ENDBRANCH  10  11
ENDBRANCH   9  10
ENDBRANCH   6   9
BRANCH   7  28
HETATM   28  O4  UNL     1       0.556  -6.398  13.935  1.00  0.00    -0.355 OA
ATOM     29  H4  UNL     1       0.759  -6.878  14.730  1.00  0.00     0.218 HD
ENDBRANCH   7  28
BRANCH   8  30
HETATM   30  N8  UNL     1       2.816  -7.804  13.900  1.00  0.00    -0.431 NA
BRANCH  30  31
HETATM   31  C12 UNL     1       3.513  -7.887  15.030  1.00  0.00     0.220 C 
HETATM   32  C13 UNL     1       4.988  -8.255  14.843  1.00  0.00     0.055 C 
BRANCH  31  33
HETATM   33  C14 UNL     1       3.497  -6.626  15.867  1.00  0.00     0.269 C 
HETATM   34  O5  UNL     1       3.812  -6.742  17.061  1.00  0.00    -0.303 OA
ENDBRANCH  31  33
ENDBRANCH  30  31
ENDBRANCH   8  30
BRANCH   1  35
HETATM   35  N1  UNL     1       4.122  -8.672  11.509  1.00  0.00    -0.322 N 
HETATM   36  C2  UNL     1       4.311 -10.022  11.610  1.00  0.00     0.218 C 
HETATM   37  C1  UNL     1       5.650 -10.690  11.452  1.00  0.00     0.117 C 
HETATM   38  O1  UNL     1       3.363 -10.845  11.848  1.00  0.00    -0.274 OA
ATOM     39  H1  UNL     1       4.967  -8.133  11.318  1.00  0.00     0.169 HD
ENDBRANCH   1  35
TORSDOF 10
ENDMDL
MODEL 5
REMARK VINA RESULT: -7.632010581      2.764      4.616
REMARK  10 active torsions:
REMARK  status: ('A' for Active; 'I' for Inactive)
REMARK       I    between atoms: C2_2  and  N1_4 
REMARK    1  A    between atoms: N1_4  and  C3_6 
REMARK    2  A    between atoms: C5_11  and  S1_12 
REMARK    3  A    between atoms: S1_12  and  C6_13 
REMARK    4  A    between atoms: C6_13  and  C7_14 
REMARK       I    between atoms: C7_14  and  N4_16 
REMARK    5  A    between atoms: N4_16  and  S2_18 
REMARK    6  A    between atoms: S2_18  and  C8_21 
REMARK    7  A    between atoms: C10_31  and  O4_32 
REMARK    8  A    between atoms: C11_34  and  N8_35 
REMARK    9  A    between atoms: N8_35  and  C12_36 
REMARK   10  A    between atoms: C12_36  and  C14_38 
ROOT
HETATM    1  C3  UNL     1       3.682  -7.797  11.814  1.00  0.00     0.120 A 
HETATM    2  C4  UNL     1       2.872  -7.201  10.859  1.00  0.00     0.147 A 
HETATM    3  N2  UNL     1       2.986  -7.654   9.507  1.00  0.00    -0.080 NA
HETATM    4  N3  UNL     1       2.004  -6.224  11.181  1.00  0.00    -0.335 N 
ATOM      5  H3  UNL     1       1.431  -5.820  10.440  1.00  0.00     0.168 HD
HETATM    6  C5  UNL     1       1.859  -5.760  12.422  1.00  0.00     0.108 A 
HETATM    7  C10 UNL     1       2.647  -6.328  13.391  1.00  0.00     0.142 A 
HETATM    8  C11 UNL     1       3.587  -7.366  13.115  1.00  0.00     0.167 A 
ENDROOT
BRANCH   6   9
HETATM    9  S1  UNL     1       0.726  -4.447  12.827  1.00  0.00    -0.100 SA
BRANCH   9  10
HETATM   10  C6  UNL     1      -0.789  -4.446  11.882  1.00  0.00     0.184 C 
BRANCH  10  11
HETATM   11  C7  UNL     1      -0.558  -4.324  10.451  1.00  0.00     0.239 C 
HETATM   12  O2  UNL     1      -0.017  -3.248  10.009  1.00  0.00    -0.272 OA
HETATM   13  N4  UNL     1      -0.879  -5.285   9.474  1.00  0.00    -0.272 N 
ATOM     14  H4  UNL     1      -1.327  -6.142   9.797  1.00  0.00     0.179 HD
BRANCH  13  15
HETATM   15  S2  UNL     1      -0.588  -5.148   7.801  1.00  0.00     0.149 S 
HETATM   16  O3  UNL     1      -1.200  -6.392   7.150  1.00  0.00    -0.230 OA
HETATM   17  S3  UNL     1      -1.382  -3.832   7.077  1.00  0.00     0.037 SA
BRANCH  15  18
HETATM   18  C8  UNL     1       1.117  -5.197   7.378  1.00  0.00     0.179 A 
HETATM   19  N5  UNL     1       1.844  -6.238   6.977  1.00  0.00    -0.283 N 
HETATM   20  N6  UNL     1       3.073  -6.091   6.724  1.00  0.00    -0.279 N 
ATOM     21  H5  UNL     1       1.408  -7.154   6.875  1.00  0.00     0.188 HD
HETATM   22  C9  UNL     1       3.633  -4.895   6.858  1.00  0.00     0.159 A 
ATOM     23  H6  UNL     1       3.633  -6.887   6.418  1.00  0.00     0.189 HD
HETATM   24  N7  UNL     1       4.872  -4.530   6.649  1.00  0.00    -0.379 N 
HETATM   25  S4  UNL     1       2.288  -3.952   7.381  1.00  0.00    -0.023 SA
ATOM     26  H72 UNL     1       5.668  -5.087   6.340  1.00  0.00     0.158 HD
ATOM     27  H71 UNL     1       5.302  -3.611   6.753  1.00  0.00     0.158 HD
ENDBRANCH  15  18
ENDBRANCH  13  15
ENDBRANCH  10  11
ENDBRANCH   9  10
ENDBRANCH   6   9
BRANCH   7  28
HETATM   28  O4  UNL     1       2.543  -5.890  14.692  1.00  0.00    -0.355 OA
ATOM     29  H4  UNL     1       3.330  -5.776  15.212  1.00  0.00     0.218 HD
ENDBRANCH   7  28
BRANCH   8  30
HETATM   30  N8  UNL     1       4.252  -7.815  14.017  1.00  0.00    -0.431 NA
BRANCH  30  31
HETATM   31  C12 UNL     1       5.191  -8.340  14.800  1.00  0.00     0.220 C 
HETATM   32  C13 UNL     1       5.547  -7.490  16.025  1.00  0.00     0.055 C 
BRANCH  31  33
HETATM   33  C14 UNL     1       4.865  -9.720  15.326  1.00  0.00     0.269 C 
HETATM   34  O5  UNL     1       5.278 -10.685  14.664  1.00  0.00    -0.303 OA
ENDBRANCH  31  33
ENDBRANCH  30  31
ENDBRANCH   8  30
BRANCH   1  35
HETATM   35  N1  UNL     1       4.545  -8.835  11.362  1.00  0.00    -0.322 N 
HETATM   36  C2  UNL     1       4.383 -10.191  11.393  1.00  0.00     0.218 C 
HETATM   37  C1  UNL     1       5.402 -11.165  10.864  1.00  0.00     0.117 C 
HETATM   38  O1  UNL     1       3.347 -10.762  11.876  1.00  0.00    -0.274 OA
ATOM     39  H1  UNL     1       5.422  -8.516  10.950  1.00  0.00     0.169 HD
ENDBRANCH   1  35
TORSDOF 10
ENDMDL
