MODEL 1
REMARK VINA RESULT: -8.131905945      0.000      0.000
REMARK  13 active torsions:
REMARK  status: ('A' for Active; 'I' for Inactive)
REMARK    1  A    between atoms: C2_2  and  C4_4 
REMARK    2  A    between atoms: C4_4  and  N1_5 
REMARK    3  A    between atoms: C4_4  and  C11_15 
REMARK       I    between atoms: N1_5  and  C5_7 
REMARK    4  A    between atoms: C5_7  and  C6_9 
REMARK       I    between atoms: C11_15  and  N2_17 
REMARK       I    between atoms: N3_20  and  C14_21 
REMARK       I    between atoms: C14_21  and  N4_23 
REMARK    5  A    between atoms: N4_23  and  S1_25 
REMARK    6  A    between atoms: S1_25  and  C15_28 
REMARK    7  A    between atoms: C16_29  and  O7_30 
REMARK    8  A    between atoms: C16_29  and  N5_32 
REMARK    9  A    between atoms: C19_35  and  O8_36 
REMARK   10  A    between atoms: O8_36  and  C20_37 
REMARK   11  A    between atoms: C20_37  and  O9_38 
REMARK   12  A    between atoms: C20_37  and  N6_40 
REMARK   13  A    between atoms: N6_40  and  C21_41 
ROOT
HETATM    1  C21 UNL     1      12.149   1.713  -8.980  1.00  0.00     0.185 A 
HETATM    2  C22 UNL     1      12.855   0.692  -9.820  1.00  0.00     0.105 C 
HETATM    3  N7  UNL     1      13.404  -0.109 -10.444  1.00  0.00    -0.193 NA
HETATM    4  C23 UNL     1      12.880   3.004  -8.892  1.00  0.00     0.066 A 
HETATM    5  C24 UNL     1      12.918   2.097  -7.702  1.00  0.00     0.066 A 
ENDROOT
BRANCH   1   6
HETATM    6  N6  UNL     1      10.777   1.588  -8.854  1.00  0.00    -0.377 NA
BRANCH   6   7
HETATM    7  C20 UNL     1       9.431   1.466  -8.728  1.00  0.00     0.337 C 
BRANCH   7   8
HETATM    8  O8  UNL     1       8.536   1.009  -9.590  1.00  0.00    -0.300 OA
BRANCH   8   9
HETATM    9  C19 UNL     1       7.660   0.610 -10.435  1.00  0.00     0.137 C 
HETATM   10  C18 UNL     1       6.253   1.205 -10.294  1.00  0.00     0.052 C 
HETATM   11  C17 UNL     1       5.472   0.668 -11.465  1.00  0.00     0.128 C 
HETATM   12  N5  UNL     1       5.385  -0.830 -11.411  1.00  0.00    -0.353 N 
HETATM   13  C26 UNL     1       6.667  -1.444 -11.384  1.00  0.00     0.029 C 
HETATM   14  C25 UNL     1       7.413  -0.901 -10.177  1.00  0.00     0.063 C 
HETATM   15  C27 UNL     1       6.744  -2.934 -11.238  1.00  0.00     0.038 C 
HETATM   16  C28 UNL     1       7.521  -1.079 -12.617  1.00  0.00     0.038 C 
BRANCH  12  17
HETATM   17  C16 UNL     1       4.124  -1.416 -11.407  1.00  0.00     0.151 C 
HETATM   18  C15 UNL     1       3.117  -1.924 -12.274  1.00  0.00     0.187 C 
BRANCH  18  19
HETATM   19  S1  UNL     1       1.883  -0.938 -12.986  1.00  0.00     0.260 S 
HETATM   20  O5  UNL     1       0.916  -0.570 -11.800  1.00  0.00    -0.201 OA
HETATM   21  O6  UNL     1       0.959  -1.581 -13.961  1.00  0.00    -0.201 OA
BRANCH  19  22
HETATM   22  N4  UNL     1       2.425   0.580 -13.579  1.00  0.00    -0.232 N 
HETATM   23  C14 UNL     1       3.286   0.760 -14.687  1.00  0.00     0.332 C 
HETATM   24  N3  UNL     1       3.680   2.065 -15.071  1.00  0.00    -0.327 N 
HETATM   25  O4  UNL     1       3.678  -0.275 -15.304  1.00  0.00    -0.246 OA
HETATM   26  C13 UNL     1       3.242   3.261 -14.412  1.00  0.00     0.148 C 
HETATM   27  C29 UNL     1       4.582   2.243 -16.170  1.00  0.00     0.172 C 
HETATM   28  C12 UNL     1       4.431   3.882 -13.677  1.00  0.00     0.151 C 
HETATM   29  N2  UNL     1       5.597   3.804 -14.565  1.00  0.00    -0.327 N 
HETATM   30  C11 UNL     1       6.852   4.157 -13.956  1.00  0.00     0.246 C 
HETATM   31  C30 UNL     1       5.541   3.370 -15.904  1.00  0.00     0.086 C 
HETATM   32  O3  UNL     1       6.775   4.287 -12.665  1.00  0.00    -0.271 OA
ATOM     33  H4  UNL     1       2.100   1.417 -13.095  1.00  0.00     0.183 HD
BRANCH  30  34
HETATM   34  C4  UNL     1       8.094   4.368 -14.643  1.00  0.00     0.180 C 
BRANCH  34  35
HETATM   35  C2  UNL     1       8.346   5.900 -14.869  1.00  0.00     0.009 C 
HETATM   36  C1  UNL     1       7.747   6.381 -16.144  1.00  0.00     0.012 C 
HETATM   37  C3  UNL     1       9.847   6.072 -14.953  1.00  0.00     0.012 C 
ENDBRANCH  34  35
BRANCH  34  38
HETATM   38  N1  UNL     1       9.306   3.896 -13.919  1.00  0.00    -0.347 N 
HETATM   39  C5  UNL     1       9.670   2.558 -13.887  1.00  0.00     0.224 C 
HETATM   40  O1  UNL     1       8.924   1.707 -14.505  1.00  0.00    -0.273 OA
ATOM     41  H1  UNL     1       9.888   4.579 -13.432  1.00  0.00     0.163 HD
BRANCH  39  42
HETATM   42  C6  UNL     1      10.844   2.013 -13.202  1.00  0.00     0.102 C 
HETATM   43  C7  UNL     1      11.642   3.054 -12.454  1.00  0.00     0.018 C 
HETATM   44  C8  UNL     1      12.823   3.477 -13.309  1.00  0.00     0.027 C 
HETATM   45  C9  UNL     1      13.752   2.272 -13.454  1.00  0.00     0.167 C 
HETATM   46  O2  UNL     1      13.001   1.096 -13.412  1.00  0.00    -0.390 OA
HETATM   47  C10 UNL     1      11.766   1.204 -14.046  1.00  0.00     0.181 C 
ENDBRANCH  39  42
ENDBRANCH  34  38
ENDBRANCH  30  34
ENDBRANCH  19  22
ENDBRANCH  18  19
BRANCH  17  48
HETATM   48  O7  UNL     1       3.719  -1.578 -10.099  1.00  0.00    -0.346 OA
ATOM     49  H7  UNL     1       2.892  -1.127  -9.973  1.00  0.00     0.219 HD
ENDBRANCH  17  48
ENDBRANCH  12  17
ENDBRANCH   8   9
ENDBRANCH   7   8
BRANCH   7  50
HETATM   50  O9  UNL     1       8.741   1.808  -7.658  1.00  0.00    -0.316 OA
ATOM     51  H9  UNL     1       8.709   2.757  -7.673  1.00  0.00     0.222 HD
ENDBRANCH   7  50
ENDBRANCH   6   7
ENDBRANCH   1   6
TORSDOF 13
ENDMDL
MODEL 2
REMARK VINA RESULT: -8.081191779      2.844      7.921
REMARK  13 active torsions:
REMARK  status: ('A' for Active; 'I' for Inactive)
REMARK    1  A    between atoms: C2_2  and  C4_4 
REMARK    2  A    between atoms: C4_4  and  N1_5 
REMARK    3  A    between atoms: C4_4  and  C11_15 
REMARK       I    between atoms: N1_5  and  C5_7 
REMARK    4  A    between atoms: C5_7  and  C6_9 
REMARK       I    between atoms: C11_15  and  N2_17 
REMARK       I    between atoms: N3_20  and  C14_21 
REMARK       I    between atoms: C14_21  and  N4_23 
REMARK    5  A    between atoms: N4_23  and  S1_25 
REMARK    6  A    between atoms: S1_25  and  C15_28 
REMARK    7  A    between atoms: C16_29  and  O7_30 
REMARK    8  A    between atoms: C16_29  and  N5_32 
REMARK    9  A    between atoms: C19_35  and  O8_36 
REMARK   10  A    between atoms: O8_36  and  C20_37 
REMARK   11  A    between atoms: C20_37  and  O9_38 
REMARK   12  A    between atoms: C20_37  and  N6_40 
REMARK   13  A    between atoms: N6_40  and  C21_41 
ROOT
HETATM    1  C21 UNL     1       3.270  -3.369 -13.163  1.00  0.00     0.185 A 
HETATM    2  C22 UNL     1       3.950  -4.400 -14.012  1.00  0.00     0.105 C 
HETATM    3  N7  UNL     1       4.475  -5.176 -14.686  1.00  0.00    -0.193 NA
HETATM    4  C23 UNL     1       1.829  -3.657 -12.935  1.00  0.00     0.066 A 
HETATM    5  C24 UNL     1       2.179  -2.579 -13.911  1.00  0.00     0.066 A 
ENDROOT
BRANCH   1   6
HETATM    6  N6  UNL     1       4.063  -2.643 -12.293  1.00  0.00    -0.377 NA
BRANCH   6   7
HETATM    7  C20 UNL     1       4.840  -1.931 -11.438  1.00  0.00     0.337 C 
BRANCH   7   8
HETATM    8  O8  UNL     1       6.098  -1.538 -11.562  1.00  0.00    -0.300 OA
BRANCH   8   9
HETATM    9  C19 UNL     1       7.304  -1.135 -11.721  1.00  0.00     0.137 C 
HETATM   10  C18 UNL     1       8.366  -2.221 -11.937  1.00  0.00     0.052 C 
HETATM   11  C17 UNL     1       9.647  -1.479 -12.213  1.00  0.00     0.128 C 
HETATM   12  N5  UNL     1      10.039  -0.629 -11.039  1.00  0.00    -0.353 N 
HETATM   13  C26 UNL     1       9.025   0.305 -10.688  1.00  0.00     0.029 C 
HETATM   14  C25 UNL     1       7.759  -0.480 -10.389  1.00  0.00     0.063 C 
HETATM   15  C27 UNL     1       9.233   1.164  -9.476  1.00  0.00     0.038 C 
HETATM   16  C28 UNL     1       8.676   1.260 -11.848  1.00  0.00     0.038 C 
BRANCH  12  17
HETATM   17  C16 UNL     1      11.289  -0.831 -10.467  1.00  0.00     0.151 C 
HETATM   18  C15 UNL     1      12.398  -0.136  -9.910  1.00  0.00     0.187 C 
BRANCH  18  19
HETATM   19  S1  UNL     1      13.710   0.487 -10.855  1.00  0.00     0.260 S 
HETATM   20  O5  UNL     1      14.149  -0.706 -11.783  1.00  0.00    -0.201 OA
HETATM   21  O6  UNL     1      14.977   0.822 -10.148  1.00  0.00    -0.201 OA
BRANCH  19  22
HETATM   22  N4  UNL     1      13.281   1.740 -11.949  1.00  0.00    -0.232 N 
HETATM   23  C14 UNL     1      12.582   2.920 -11.601  1.00  0.00     0.332 C 
HETATM   24  N3  UNL     1      12.268   3.875 -12.598  1.00  0.00    -0.327 N 
HETATM   25  O4  UNL     1      12.261   3.078 -10.386  1.00  0.00    -0.246 OA
HETATM   26  C13 UNL     1      12.632   3.742 -13.978  1.00  0.00     0.148 C 
HETATM   27  C29 UNL     1      11.528   5.051 -12.249  1.00  0.00     0.172 C 
HETATM   28  C12 UNL     1      11.365   3.508 -14.801  1.00  0.00     0.151 C 
HETATM   29  N2  UNL     1      10.329   4.421 -14.301  1.00  0.00    -0.327 N 
HETATM   30  C11 UNL     1       9.010   4.192 -14.826  1.00  0.00     0.246 C 
HETATM   31  C30 UNL     1      10.561   5.423 -13.339  1.00  0.00     0.086 C 
HETATM   32  O3  UNL     1       8.911   3.085 -15.498  1.00  0.00    -0.271 OA
ATOM     33  H4  UNL     1      13.551   1.624 -12.926  1.00  0.00     0.183 HD
BRANCH  30  34
HETATM   34  C4  UNL     1       7.877   5.060 -14.669  1.00  0.00     0.180 C 
BRANCH  34  35
HETATM   35  C2  UNL     1       7.622   5.877 -15.983  1.00  0.00     0.009 C 
HETATM   36  C1  UNL     1       7.454   7.331 -15.712  1.00  0.00     0.012 C 
HETATM   37  C3  UNL     1       6.328   5.348 -16.564  1.00  0.00     0.012 C 
ENDBRANCH  34  35
BRANCH  34  38
HETATM   38  N1  UNL     1       6.584   4.371 -14.404  1.00  0.00    -0.347 N 
HETATM   39  C5  UNL     1       6.175   4.042 -13.120  1.00  0.00     0.224 C 
HETATM   40  O1  UNL     1       6.950   4.346 -12.135  1.00  0.00    -0.273 OA
ATOM     41  H1  UNL     1       5.980   4.134 -15.191  1.00  0.00     0.163 HD
BRANCH  39  42
HETATM   42  C6  UNL     1       4.921   3.370 -12.774  1.00  0.00     0.102 C 
HETATM   43  C7  UNL     1       5.100   1.917 -12.402  1.00  0.00     0.018 C 
HETATM   44  C8  UNL     1       4.773   1.056 -13.609  1.00  0.00     0.027 C 
HETATM   45  C9  UNL     1       3.285   1.224 -13.915  1.00  0.00     0.167 C 
HETATM   46  O2  UNL     1       2.872   2.503 -13.539  1.00  0.00    -0.390 OA
HETATM   47  C10 UNL     1       3.828   3.487 -13.777  1.00  0.00     0.181 C 
ENDBRANCH  39  42
ENDBRANCH  34  38
ENDBRANCH  30  34
ENDBRANCH  19  22
ENDBRANCH  18  19
BRANCH  17  48
HETATM   48  O7  UNL     1      11.529  -2.187 -10.404  1.00  0.00    -0.346 OA
ATOM     49  H7  UNL     1      10.710  -2.654 -10.522  1.00  0.00     0.219 HD
ENDBRANCH  17  48
ENDBRANCH  12  17
ENDBRANCH   8   9
ENDBRANCH   7   8
BRANCH   7  50
HETATM   50  O9  UNL     1       4.451  -1.485 -10.260  1.00  0.00    -0.316 OA
ATOM     51  H9  UNL     1       3.959  -2.199  -9.872  1.00  0.00     0.222 HD
ENDBRANCH   7  50
ENDBRANCH   6   7
ENDBRANCH   1   6
TORSDOF 13
ENDMDL
MODEL 3
REMARK VINA RESULT: -8.011697483      2.671      6.584
REMARK  13 active torsions:
REMARK  status: ('A' for Active; 'I' for Inactive)
REMARK    1  A    between atoms: C2_2  and  C4_4 
REMARK    2  A    between atoms: C4_4  and  N1_5 
REMARK    3  A    between atoms: C4_4  and  C11_15 
REMARK       I    between atoms: N1_5  and  C5_7 
REMARK    4  A    between atoms: C5_7  and  C6_9 
REMARK       I    between atoms: C11_15  and  N2_17 
REMARK       I    between atoms: N3_20  and  C14_21 
REMARK       I    between atoms: C14_21  and  N4_23 
REMARK    5  A    between atoms: N4_23  and  S1_25 
REMARK    6  A    between atoms: S1_25  and  C15_28 
REMARK    7  A    between atoms: C16_29  and  O7_30 
REMARK    8  A    between atoms: C16_29  and  N5_32 
REMARK    9  A    between atoms: C19_35  and  O8_36 
REMARK   10  A    between atoms: O8_36  and  C20_37 
REMARK   11  A    between atoms: C20_37  and  O9_38 
REMARK   12  A    between atoms: C20_37  and  N6_40 
REMARK   13  A    between atoms: N6_40  and  C21_41 
ROOT
HETATM    1  C21 UNL     1      11.865   2.226  -7.656  1.00  0.00     0.185 A 
HETATM    2  C22 UNL     1      11.159   2.442  -6.351  1.00  0.00     0.105 C 
HETATM    3  N7  UNL     1      10.614   2.635  -5.352  1.00  0.00    -0.193 NA
HETATM    4  C23 UNL     1      13.305   1.894  -7.494  1.00  0.00     0.066 A 
HETATM    5  C24 UNL     1      12.953   3.276  -7.948  1.00  0.00     0.066 A 
ENDROOT
BRANCH   1   6
HETATM    6  N6  UNL     1      11.094   1.828  -8.733  1.00  0.00    -0.377 NA
BRANCH   6   7
HETATM    7  C20 UNL     1      10.336   1.439  -9.790  1.00  0.00     0.337 C 
BRANCH   7   8
HETATM    8  O8  UNL     1      10.442   1.754 -11.071  1.00  0.00    -0.300 OA
BRANCH   8   9
HETATM    9  C19 UNL     1      10.499   2.062 -12.314  1.00  0.00     0.137 C 
HETATM   10  C18 UNL     1      11.073   3.444 -12.651  1.00  0.00     0.052 C 
HETATM   11  C17 UNL     1      11.136   3.496 -14.155  1.00  0.00     0.128 C 
HETATM   12  N5  UNL     1       9.766   3.368 -14.755  1.00  0.00    -0.353 N 
HETATM   13  C26 UNL     1       9.112   2.169 -14.356  1.00  0.00     0.029 C 
HETATM   14  C25 UNL     1       9.041   2.166 -12.838  1.00  0.00     0.063 C 
HETATM   15  C27 UNL     1       7.699   1.943 -14.801  1.00  0.00     0.038 C 
HETATM   16  C28 UNL     1       9.905   0.906 -14.752  1.00  0.00     0.038 C 
BRANCH  12  17
HETATM   17  C16 UNL     1       9.320   4.378 -15.600  1.00  0.00     0.151 C 
HETATM   18  C15 UNL     1       9.192   5.791 -15.694  1.00  0.00     0.187 C 
BRANCH  18  19
HETATM   19  S1  UNL     1       7.832   6.671 -15.078  1.00  0.00     0.260 S 
HETATM   20  O5  UNL     1       7.015   7.107 -16.351  1.00  0.00    -0.201 OA
HETATM   21  O6  UNL     1       8.094   7.974 -14.407  1.00  0.00    -0.201 OA
BRANCH  19  22
HETATM   22  N4  UNL     1       6.721   5.734 -14.162  1.00  0.00    -0.232 N 
HETATM   23  C14 UNL     1       7.023   5.071 -12.949  1.00  0.00     0.332 C 
HETATM   24  N3  UNL     1       6.025   4.310 -12.292  1.00  0.00    -0.327 N 
HETATM   25  O4  UNL     1       8.197   5.189 -12.489  1.00  0.00    -0.246 OA
HETATM   26  C13 UNL     1       4.680   4.170 -12.769  1.00  0.00     0.148 C 
HETATM   27  C29 UNL     1       6.344   3.610 -11.083  1.00  0.00     0.172 C 
HETATM   28  C12 UNL     1       4.472   2.730 -13.239  1.00  0.00     0.151 C 
HETATM   29  N2  UNL     1       5.098   1.841 -12.252  1.00  0.00    -0.327 N 
HETATM   30  C11 UNL     1       5.176   0.458 -12.640  1.00  0.00     0.246 C 
HETATM   31  C30 UNL     1       5.643   2.281 -11.029  1.00  0.00     0.086 C 
HETATM   32  O3  UNL     1       4.866   0.258 -13.886  1.00  0.00    -0.271 OA
ATOM     33  H4  UNL     1       5.770   5.648 -14.520  1.00  0.00     0.183 HD
BRANCH  30  34
HETATM   34  C4  UNL     1       5.542  -0.638 -11.788  1.00  0.00     0.180 C 
BRANCH  34  35
HETATM   35  C2  UNL     1       4.328  -1.612 -11.591  1.00  0.00     0.009 C 
HETATM   36  C1  UNL     1       3.962  -1.764 -10.156  1.00  0.00     0.012 C 
HETATM   37  C3  UNL     1       4.779  -2.959 -12.113  1.00  0.00     0.012 C 
ENDBRANCH  34  35
BRANCH  34  38
HETATM   38  N1  UNL     1       6.633  -1.507 -12.308  1.00  0.00    -0.347 N 
HETATM   39  C5  UNL     1       7.676  -1.940 -11.502  1.00  0.00     0.224 C 
HETATM   40  O1  UNL     1       7.689  -1.569 -10.267  1.00  0.00    -0.273 OA
ATOM     41  H1  UNL     1       6.613  -1.792 -13.287  1.00  0.00     0.163 HD
BRANCH  39  42
HETATM   42  C6  UNL     1       8.783  -2.796 -11.933  1.00  0.00     0.102 C 
HETATM   43  C7  UNL     1       8.398  -3.784 -13.008  1.00  0.00     0.018 C 
HETATM   44  C8  UNL     1       8.125  -5.131 -12.362  1.00  0.00     0.027 C 
HETATM   45  C9  UNL     1       9.440  -5.647 -11.780  1.00  0.00     0.167 C 
HETATM   46  O2  UNL     1      10.234  -4.567 -11.390  1.00  0.00    -0.390 OA
HETATM   47  C10 UNL     1       9.507  -3.512 -10.847  1.00  0.00     0.181 C 
ENDBRANCH  39  42
ENDBRANCH  34  38
ENDBRANCH  30  34
ENDBRANCH  19  22
ENDBRANCH  18  19
BRANCH  17  48
HETATM   48  O7  UNL     1       8.856   3.804 -16.764  1.00  0.00    -0.346 OA
ATOM     49  H7  UNL     1       8.233   4.392 -17.174  1.00  0.00     0.219 HD
ENDBRANCH  17  48
ENDBRANCH  12  17
ENDBRANCH   8   9
ENDBRANCH   7   8
BRANCH   7  50
HETATM   50  O9  UNL     1       9.297   0.632  -9.714  1.00  0.00    -0.316 OA
ATOM     51  H9  UNL     1       9.535  -0.024  -9.070  1.00  0.00     0.222 HD
ENDBRANCH   7  50
ENDBRANCH   6   7
ENDBRANCH   1   6
TORSDOF 13
ENDMDL
MODEL 4
REMARK VINA RESULT: -7.849803965      2.803      5.626
REMARK  13 active torsions:
REMARK  status: ('A' for Active; 'I' for Inactive)
REMARK    1  A    between atoms: C2_2  and  C4_4 
REMARK    2  A    between atoms: C4_4  and  N1_5 
REMARK    3  A    between atoms: C4_4  and  C11_15 
REMARK       I    between atoms: N1_5  and  C5_7 
REMARK    4  A    between atoms: C5_7  and  C6_9 
REMARK       I    between atoms: C11_15  and  N2_17 
REMARK       I    between atoms: N3_20  and  C14_21 
REMARK       I    between atoms: C14_21  and  N4_23 
REMARK    5  A    between atoms: N4_23  and  S1_25 
REMARK    6  A    between atoms: S1_25  and  C15_28 
REMARK    7  A    between atoms: C16_29  and  O7_30 
REMARK    8  A    between atoms: C16_29  and  N5_32 
REMARK    9  A    between atoms: C19_35  and  O8_36 
REMARK   10  A    between atoms: O8_36  and  C20_37 
REMARK   11  A    between atoms: C20_37  and  O9_38 
REMARK   12  A    between atoms: C20_37  and  N6_40 
REMARK   13  A    between atoms: N6_40  and  C21_41 
ROOT
HETATM    1  C21 UNL     1       7.914  -3.530 -11.769  1.00  0.00     0.185 A 
HETATM    2  C22 UNL     1       7.412  -2.840 -10.537  1.00  0.00     0.105 C 
HETATM    3  N7  UNL     1       7.021  -2.286  -9.603  1.00  0.00    -0.193 NA
HETATM    4  C23 UNL     1       9.379  -3.783 -11.741  1.00  0.00     0.066 A 
HETATM    5  C24 UNL     1       8.880  -2.669 -12.606  1.00  0.00     0.066 A 
ENDROOT
BRANCH   1   6
HETATM    6  N6  UNL     1       7.008  -4.297 -12.479  1.00  0.00    -0.377 NA
BRANCH   6   7
HETATM    7  C20 UNL     1       6.117  -5.048 -13.175  1.00  0.00     0.337 C 
BRANCH   7   8
HETATM    8  O8  UNL     1       4.916  -4.732 -13.633  1.00  0.00    -0.300 OA
BRANCH   8   9
HETATM    9  C19 UNL     1       3.771  -4.426 -14.119  1.00  0.00     0.137 C 
HETATM   10  C18 UNL     1       3.646  -4.455 -15.648  1.00  0.00     0.052 C 
HETATM   11  C17 UNL     1       2.193  -4.180 -15.936  1.00  0.00     0.128 C 
HETATM   12  N5  UNL     1       1.792  -2.825 -15.431  1.00  0.00    -0.353 N 
HETATM   13  C26 UNL     1       2.026  -2.678 -14.036  1.00  0.00     0.029 C 
HETATM   14  C25 UNL     1       3.503  -2.933 -13.788  1.00  0.00     0.063 C 
HETATM   15  C27 UNL     1       1.760  -1.345 -13.402  1.00  0.00     0.038 C 
HETATM   16  C28 UNL     1       1.262  -3.723 -13.197  1.00  0.00     0.038 C 
BRANCH  12  17
HETATM   17  C16 UNL     1       1.251  -1.918 -16.336  1.00  0.00     0.151 C 
HETATM   18  C15 UNL     1       1.526  -1.255 -17.564  1.00  0.00     0.187 C 
BRANCH  18  19
HETATM   19  S1  UNL     1       2.402   0.236 -17.670  1.00  0.00     0.260 S 
HETATM   20  O5  UNL     1       1.417   1.241 -18.373  1.00  0.00    -0.201 OA
HETATM   21  O6  UNL     1       3.591   0.279 -18.566  1.00  0.00    -0.201 OA
BRANCH  19  22
HETATM   22  N4  UNL     1       2.758   0.973 -16.160  1.00  0.00    -0.232 N 
HETATM   23  C14 UNL     1       3.740   1.970 -15.953  1.00  0.00     0.332 C 
HETATM   24  N3  UNL     1       3.955   2.491 -14.653  1.00  0.00    -0.327 N 
HETATM   25  O4  UNL     1       4.399   2.366 -16.959  1.00  0.00    -0.246 OA
HETATM   26  C13 UNL     1       3.215   2.084 -13.495  1.00  0.00     0.148 C 
HETATM   27  C29 UNL     1       4.976   3.474 -14.440  1.00  0.00     0.172 C 
HETATM   28  C12 UNL     1       4.145   1.299 -12.568  1.00  0.00     0.151 C 
HETATM   29  N2  UNL     1       5.433   2.002 -12.525  1.00  0.00    -0.327 N 
HETATM   30  C11 UNL     1       6.493   1.290 -11.861  1.00  0.00     0.246 C 
HETATM   31  C30 UNL     1       5.667   3.255 -13.124  1.00  0.00     0.086 C 
HETATM   32  O3  UNL     1       6.191   0.056 -11.591  1.00  0.00    -0.271 OA
ATOM     33  H4  UNL     1       2.219   0.669 -15.350  1.00  0.00     0.183 HD
BRANCH  30  34
HETATM   34  C4  UNL     1       7.773   1.830 -11.498  1.00  0.00     0.180 C 
BRANCH  34  35
HETATM   35  C2  UNL     1       7.802   2.202  -9.974  1.00  0.00     0.009 C 
HETATM   36  C1  UNL     1       8.443   1.138  -9.153  1.00  0.00     0.012 C 
HETATM   37  C3  UNL     1       6.356   2.330  -9.545  1.00  0.00     0.012 C 
ENDBRANCH  34  35
BRANCH  34  38
HETATM   38  N1  UNL     1       8.924   0.903 -11.675  1.00  0.00    -0.347 N 
HETATM   39  C5  UNL     1      10.144   1.332 -12.179  1.00  0.00     0.224 C 
HETATM   40  O1  UNL     1      10.269   2.574 -12.503  1.00  0.00    -0.273 OA
ATOM     41  H1  UNL     1       8.813  -0.078 -11.418  1.00  0.00     0.163 HD
BRANCH  39  42
HETATM   42  C6  UNL     1      11.323   0.487 -12.381  1.00  0.00     0.102 C 
HETATM   43  C7  UNL     1      11.526  -0.535 -11.289  1.00  0.00     0.018 C 
HETATM   44  C8  UNL     1      12.558  -0.007 -10.307  1.00  0.00     0.027 C 
HETATM   45  C9  UNL     1      13.896   0.087 -11.038  1.00  0.00     0.167 C 
HETATM   46  O2  UNL     1      13.672   0.349 -12.391  1.00  0.00    -0.390 OA
HETATM   47  C10 UNL     1      12.602   1.211 -12.618  1.00  0.00     0.181 C 
ENDBRANCH  39  42
ENDBRANCH  34  38
ENDBRANCH  30  34
ENDBRANCH  19  22
ENDBRANCH  18  19
BRANCH  17  48
HETATM   48  O7  UNL     1       0.000  -1.547 -15.891  1.00  0.00    -0.346 OA
ATOM     49  H7  UNL     1      -0.162  -1.948 -15.046  1.00  0.00     0.219 HD
ENDBRANCH  17  48
ENDBRANCH  12  17
ENDBRANCH   8   9
ENDBRANCH   7   8
BRANCH   7  50
HETATM   50  O9  UNL     1       6.308  -6.301 -13.534  1.00  0.00    -0.316 OA
ATOM     51  H9  UNL     1       5.944  -6.822 -12.828  1.00  0.00     0.222 HD
ENDBRANCH   7  50
ENDBRANCH   6   7
ENDBRANCH   1   6
TORSDOF 13
ENDMDL
MODEL 5
REMARK VINA RESULT: -7.849121719      3.001      7.078
REMARK  13 active torsions:
REMARK  status: ('A' for Active; 'I' for Inactive)
REMARK    1  A    between atoms: C2_2  and  C4_4 
REMARK    2  A    between atoms: C4_4  and  N1_5 
REMARK    3  A    between atoms: C4_4  and  C11_15 
REMARK       I    between atoms: N1_5  and  C5_7 
REMARK    4  A    between atoms: C5_7  and  C6_9 
REMARK       I    between atoms: C11_15  and  N2_17 
REMARK       I    between atoms: N3_20  and  C14_21 
REMARK       I    between atoms: C14_21  and  N4_23 
REMARK    5  A    between atoms: N4_23  and  S1_25 
REMARK    6  A    between atoms: S1_25  and  C15_28 
REMARK    7  A    between atoms: C16_29  and  O7_30 
REMARK    8  A    between atoms: C16_29  and  N5_32 
REMARK    9  A    between atoms: C19_35  and  O8_36 
REMARK   10  A    between atoms: O8_36  and  C20_37 
REMARK   11  A    between atoms: C20_37  and  O9_38 
REMARK   12  A    between atoms: C20_37  and  N6_40 
REMARK   13  A    between atoms: N6_40  and  C21_41 
ROOT
HETATM    1  C21 UNL     1       6.053   3.917 -15.644  1.00  0.00     0.185 A 
HETATM    2  C22 UNL     1       5.545   4.515 -14.368  1.00  0.00     0.105 C 
HETATM    3  N7  UNL     1       5.163   5.001 -13.393  1.00  0.00    -0.193 NA
HETATM    4  C23 UNL     1       7.219   3.017 -15.444  1.00  0.00     0.066 A 
HETATM    5  C24 UNL     1       7.476   4.376 -16.015  1.00  0.00     0.066 A 
ENDROOT
BRANCH   1   6
HETATM    6  N6  UNL     1       5.155   3.802 -16.690  1.00  0.00    -0.377 NA
BRANCH   6   7
HETATM    7  C20 UNL     1       4.275   3.688 -17.718  1.00  0.00     0.337 C 
BRANCH   7   8
HETATM    8  O8  UNL     1       3.586   2.636 -18.131  1.00  0.00    -0.300 OA
BRANCH   8   9
HETATM    9  C19 UNL     1       2.950   1.591 -18.511  1.00  0.00     0.137 C 
HETATM   10  C18 UNL     1       1.807   1.117 -17.603  1.00  0.00     0.052 C 
HETATM   11  C17 UNL     1       1.165  -0.033 -18.334  1.00  0.00     0.128 C 
HETATM   12  N5  UNL     1       2.141  -1.156 -18.530  1.00  0.00    -0.353 N 
HETATM   13  C26 UNL     1       3.303  -0.744 -19.239  1.00  0.00     0.029 C 
HETATM   14  C25 UNL     1       3.938   0.395 -18.459  1.00  0.00     0.063 C 
HETATM   15  C27 UNL     1       4.412  -1.734 -19.434  1.00  0.00     0.038 C 
HETATM   16  C28 UNL     1       2.971  -0.176 -20.635  1.00  0.00     0.038 C 
BRANCH  12  17
HETATM   17  C16 UNL     1       1.808  -2.412 -18.034  1.00  0.00     0.151 C 
HETATM   18  C15 UNL     1       1.506  -3.100 -16.827  1.00  0.00     0.187 C 
BRANCH  18  19
HETATM   19  S1  UNL     1       2.712  -3.786 -15.790  1.00  0.00     0.260 S 
HETATM   20  O5  UNL     1       4.070  -3.604 -16.563  1.00  0.00    -0.201 OA
HETATM   21  O6  UNL     1       2.674  -5.257 -15.559  1.00  0.00    -0.201 OA
BRANCH  19  22
HETATM   22  N4  UNL     1       2.951  -2.950 -14.309  1.00  0.00    -0.232 N 
HETATM   23  C14 UNL     1       3.366  -1.602 -14.193  1.00  0.00     0.332 C 
HETATM   24  N3  UNL     1       3.547  -1.026 -12.912  1.00  0.00    -0.327 N 
HETATM   25  O4  UNL     1       3.561  -0.952 -15.262  1.00  0.00    -0.246 OA
HETATM   26  C13 UNL     1       3.317  -1.722 -11.680  1.00  0.00     0.148 C 
HETATM   27  C29 UNL     1       4.003   0.328 -12.798  1.00  0.00     0.172 C 
HETATM   28  C12 UNL     1       4.660  -1.956 -10.988  1.00  0.00     0.151 C 
HETATM   29  N2  UNL     1       5.448  -0.723 -11.108  1.00  0.00    -0.327 N 
HETATM   30  C11 UNL     1       6.820  -0.833 -10.691  1.00  0.00     0.246 C 
HETATM   31  C30 UNL     1       4.947   0.483 -11.638  1.00  0.00     0.086 C 
HETATM   32  O3  UNL     1       7.191  -2.058 -10.470  1.00  0.00    -0.271 OA
ATOM     33  H4  UNL     1       2.781  -3.465 -13.445  1.00  0.00     0.183 HD
BRANCH  30  34
HETATM   34  C4  UNL     1       7.736   0.257 -10.508  1.00  0.00     0.180 C 
BRANCH  34  35
HETATM   35  C2  UNL     1       7.537   0.914  -9.098  1.00  0.00     0.009 C 
HETATM   36  C1  UNL     1       6.691   2.136  -9.167  1.00  0.00     0.012 C 
HETATM   37  C3  UNL     1       8.917   1.315  -8.621  1.00  0.00     0.012 C 
ENDBRANCH  34  35
BRANCH  34  38
HETATM   38  N1  UNL     1       9.177  -0.115 -10.543  1.00  0.00    -0.347 N 
HETATM   39  C5  UNL     1       9.941   0.009 -11.695  1.00  0.00     0.224 C 
HETATM   40  O1  UNL     1       9.372   0.460 -12.761  1.00  0.00    -0.273 OA
ATOM     41  H1  UNL     1       9.616  -0.472  -9.695  1.00  0.00     0.163 HD
BRANCH  39  42
HETATM   42  C6  UNL     1      11.361  -0.330 -11.813  1.00  0.00     0.102 C 
HETATM   43  C7  UNL     1      11.987  -0.761 -10.508  1.00  0.00     0.018 C 
HETATM   44  C8  UNL     1      12.723   0.420  -9.902  1.00  0.00     0.027 C 
HETATM   45  C9  UNL     1      13.891   0.769 -10.825  1.00  0.00     0.167 C 
HETATM   46  O2  UNL     1      13.555   0.452 -12.142  1.00  0.00    -0.390 OA
HETATM   47  C10 UNL     1      12.221   0.704 -12.451  1.00  0.00     0.181 C 
ENDBRANCH  39  42
ENDBRANCH  34  38
ENDBRANCH  30  34
ENDBRANCH  19  22
ENDBRANCH  18  19
BRANCH  17  48
HETATM   48  O7  UNL     1       1.726  -3.294 -19.091  1.00  0.00    -0.346 OA
ATOM     49  H7  UNL     1       1.418  -2.830 -19.860  1.00  0.00     0.219 HD
ENDBRANCH  17  48
ENDBRANCH  12  17
ENDBRANCH   8   9
ENDBRANCH   7   8
BRANCH   7  50
HETATM   50  O9  UNL     1       3.939   4.667 -18.533  1.00  0.00    -0.316 OA
ATOM     51  H9  UNL     1       4.239   5.462 -18.107  1.00  0.00     0.222 HD
ENDBRANCH   7  50
ENDBRANCH   6   7
ENDBRANCH   1   6
TORSDOF 13
ENDMDL
