MODEL 1
REMARK VINA RESULT: -9.861549084      0.000      0.000
REMARK  14 active torsions:
REMARK  status: ('A' for Active; 'I' for Inactive)
REMARK    1  A    between atoms: C2_2  and  O1_3 
REMARK    2  A    between atoms: O1_3  and  C3_4 
REMARK       I    between atoms: C3_4  and  N1_6 
REMARK    3  A    between atoms: N2_9  and  C6_10 
REMARK    4  A    between atoms: C6_10  and  O3_11 
REMARK    5  A    between atoms: C6_10  and  N3_13 
REMARK    6  A    between atoms: N4_16  and  C9_17 
REMARK    7  A    between atoms: C9_17  and  O4_18 
REMARK    8  A    between atoms: C10_20  and  C11_21 
REMARK    9  A    between atoms: C10_20  and  N7_29 
REMARK   10  A    between atoms: C11_21  and  C12_22 
REMARK       I    between atoms: N7_29  and  C15_31 
REMARK   11  A    between atoms: C15_31  and  C16_33 
REMARK   12  A    between atoms: C16_33  and  N9_36 
REMARK   13  A    between atoms: C21_40  and  N10_41 
REMARK   14  A    between atoms: C30_50  and  C31_51 
ROOT
HETATM    1  C16 UNL     1       1.341  -1.496 -14.220  1.00  0.00     0.419 C 
HETATM    2  C17 UNL     1       1.327  -1.633 -15.690  1.00  0.00     0.105 C 
HETATM    3  N8  UNL     1       1.340  -1.741 -16.831  1.00  0.00    -0.194 NA
ENDROOT
BRANCH   1   4
HETATM    4  C15 UNL     1       2.744  -1.634 -13.790  1.00  0.00     0.270 C 
HETATM    5  N7  UNL     1       3.204  -0.846 -12.717  1.00  0.00    -0.324 N 
ATOM      6  H7  UNL     1       2.539  -0.206 -12.283  1.00  0.00     0.169 HD
HETATM    7  O5  UNL     1       3.500  -2.427 -14.364  1.00  0.00    -0.270 OA
BRANCH   5   8
HETATM    8  C10 UNL     1       4.573  -0.878 -12.174  1.00  0.00     0.068 C 
HETATM    9  C9  UNL     1       5.136   0.448 -12.050  1.00  0.00     0.161 C 
BRANCH   9  10
HETATM   10  N4  UNL     1       6.154   0.999 -11.267  1.00  0.00    -0.357 N 
HETATM   11  C8  UNL     1       7.290   1.603 -12.007  1.00  0.00     0.145 C 
HETATM   12  C7  UNL     1       8.230   2.367 -11.077  1.00  0.00     0.146 C 
HETATM   13  N3  UNL     1       8.685   1.490 -10.070  1.00  0.00    -0.344 N 
HETATM   14  C29 UNL     1       7.666   0.655  -9.400  1.00  0.00     0.146 C 
HETATM   15  C28 UNL     1       6.254   1.093  -9.845  1.00  0.00     0.145 C 
BRANCH  13  16
HETATM   16  C6  UNL     1       9.991   1.345  -9.619  1.00  0.00     0.218 C 
BRANCH  16  17
HETATM   17  N2  UNL     1      11.144   0.789 -10.184  1.00  0.00    -0.330 N 
HETATM   18  C5  UNL     1      12.416   0.574  -9.540  1.00  0.00     0.147 C 
HETATM   19  C4  UNL     1      13.333  -0.277 -10.432  1.00  0.00     0.148 C 
HETATM   20  N1  UNL     1      13.443   0.432 -11.681  1.00  0.00    -0.324 N 
HETATM   21  C3  UNL     1      14.699   0.847 -12.150  1.00  0.00     0.362 C 
HETATM   22  C32 UNL     1      12.245   0.692 -12.404  1.00  0.00     0.164 C 
HETATM   23  O2  UNL     1      14.753   1.486 -13.260  1.00  0.00    -0.238 OA
HETATM   24  C30 UNL     1      11.005   0.411 -11.621  1.00  0.00     0.206 C 
BRANCH  21  25
HETATM   25  O1  UNL     1      15.893   0.609 -11.480  1.00  0.00    -0.304 OA
BRANCH  25  26
HETATM   26  C2  UNL     1      16.669   1.698 -11.062  1.00  0.00     0.176 C 
HETATM   27  C1  UNL     1      18.139   1.554 -11.399  1.00  0.00     0.034 C 
ENDBRANCH  25  26
ENDBRANCH  21  25
BRANCH  24  28
HETATM   28  C31 UNL     1      10.481  -0.960 -11.735  1.00  0.00     0.198 C 
HETATM   29  O6  UNL     1      10.767  -1.855 -10.910  1.00  0.00    -0.646 OA
HETATM   30  O7  UNL     1       9.640  -1.280 -12.786  1.00  0.00    -0.646 OA
ENDBRANCH  24  28
ENDBRANCH  16  17
BRANCH  16  31
HETATM   31  O3  UNL     1      10.183   1.837  -8.403  1.00  0.00    -0.332 OA
ATOM     32  H3  UNL     1      10.408   1.176  -7.759  1.00  0.00     0.220 HD
ENDBRANCH  16  31
ENDBRANCH  13  16
ENDBRANCH   9  10
BRANCH   9  33
HETATM   33  O4  UNL     1       4.534   1.307 -12.874  1.00  0.00    -0.345 OA
ATOM     34  H4  UNL     1       5.095   1.678 -13.544  1.00  0.00     0.219 HD
ENDBRANCH   9  33
BRANCH   8  35
HETATM   35  C11 UNL     1       4.713  -1.869 -11.083  1.00  0.00     0.120 C 
BRANCH  35  36
HETATM   36  C12 UNL     1       6.003  -2.646 -11.329  1.00  0.00     0.031 A 
HETATM   37  C13 UNL     1       7.125  -2.675 -10.529  1.00  0.00     0.114 A 
HETATM   38  N5  UNL     1       8.062  -3.473 -11.055  1.00  0.00    -0.360 N 
HETATM   39  C14 UNL     1       7.537  -3.961 -12.202  1.00  0.00     0.180 A 
ATOM     40  H5  UNL     1       8.985  -3.672 -10.669  1.00  0.00     0.166 HD
HETATM   41  N6  UNL     1       6.284  -3.458 -12.370  1.00  0.00    -0.354 N 
ATOM     42  H6  UNL     1       5.662  -3.661 -13.152  1.00  0.00     0.166 HD
ENDBRANCH  35  36
ENDBRANCH   8  35
ENDBRANCH   5   8
ENDBRANCH   1   4
BRANCH   1  43
HETATM   43  N9  UNL     1       0.558  -2.558 -13.632  1.00  0.00     0.117 N 
HETATM   44  C18 UNL     1       0.941  -2.895 -12.299  1.00  0.00     0.275 C 
HETATM   45  C19 UNL     1      -0.196  -2.517 -11.365  1.00  0.00     0.032 C 
HETATM   46  C20 UNL     1      -1.456  -3.313 -11.628  1.00  0.00     0.028 C 
HETATM   47  C21 UNL     1      -1.619  -3.443 -13.112  1.00  0.00     0.107 C 
HETATM   48  C27 UNL     1      -0.870  -2.302 -13.762  1.00  0.00     0.299 C 
BRANCH  47  49
HETATM   49  N10 UNL     1      -2.927  -3.485 -13.600  1.00  0.00    -0.406 N 
HETATM   50  C22 UNL     1      -3.679  -4.679 -13.431  1.00  0.00     0.117 C 
HETATM   51  C23 UNL     1      -5.114  -4.468 -13.014  1.00  0.00     0.019 C 
HETATM   52  C24 UNL     1      -5.276  -3.340 -12.022  1.00  0.00     0.003 C 
HETATM   53  C25 UNL     1      -4.553  -2.086 -12.412  1.00  0.00     0.019 C 
HETATM   54  C26 UNL     1      -3.703  -2.309 -13.673  1.00  0.00     0.117 C 
ENDBRANCH  47  49
ENDBRANCH   1  43
TORSDOF 14
ENDMDL
MODEL 2
REMARK VINA RESULT: -9.707206711      1.525      2.170
REMARK  14 active torsions:
REMARK  status: ('A' for Active; 'I' for Inactive)
REMARK    1  A    between atoms: C2_2  and  O1_3 
REMARK    2  A    between atoms: O1_3  and  C3_4 
REMARK       I    between atoms: C3_4  and  N1_6 
REMARK    3  A    between atoms: N2_9  and  C6_10 
REMARK    4  A    between atoms: C6_10  and  O3_11 
REMARK    5  A    between atoms: C6_10  and  N3_13 
REMARK    6  A    between atoms: N4_16  and  C9_17 
REMARK    7  A    between atoms: C9_17  and  O4_18 
REMARK    8  A    between atoms: C10_20  and  C11_21 
REMARK    9  A    between atoms: C10_20  and  N7_29 
REMARK   10  A    between atoms: C11_21  and  C12_22 
REMARK       I    between atoms: N7_29  and  C15_31 
REMARK   11  A    between atoms: C15_31  and  C16_33 
REMARK   12  A    between atoms: C16_33  and  N9_36 
REMARK   13  A    between atoms: C21_40  and  N10_41 
REMARK   14  A    between atoms: C30_50  and  C31_51 
ROOT
HETATM    1  C16 UNL     1       1.087  -1.839 -14.357  1.00  0.00     0.419 C 
HETATM    2  C17 UNL     1       1.070  -1.651 -15.821  1.00  0.00     0.105 C 
HETATM    3  N8  UNL     1       1.080  -1.503 -16.958  1.00  0.00    -0.194 NA
ENDROOT
BRANCH   1   4
HETATM    4  C15 UNL     1       2.503  -1.919 -13.952  1.00  0.00     0.270 C 
HETATM    5  N7  UNL     1       2.949  -1.111 -12.888  1.00  0.00    -0.324 N 
ATOM      6  H7  UNL     1       2.266  -0.498 -12.443  1.00  0.00     0.169 HD
HETATM    7  O5  UNL     1       3.280  -2.681 -14.540  1.00  0.00    -0.270 OA
BRANCH   5   8
HETATM    8  C10 UNL     1       4.328  -1.085 -12.371  1.00  0.00     0.068 C 
HETATM    9  C9  UNL     1       4.980   0.179 -12.632  1.00  0.00     0.161 C 
BRANCH   9  10
HETATM   10  N4  UNL     1       6.053   0.855 -12.046  1.00  0.00    -0.357 N 
HETATM   11  C8  UNL     1       7.407   0.422 -12.474  1.00  0.00     0.145 C 
HETATM   12  C7  UNL     1       8.493   1.360 -11.952  1.00  0.00     0.146 C 
HETATM   13  N3  UNL     1       8.399   1.427 -10.546  1.00  0.00    -0.344 N 
HETATM   14  C29 UNL     1       7.052   1.632  -9.975  1.00  0.00     0.146 C 
HETATM   15  C28 UNL     1       6.042   1.930 -11.105  1.00  0.00     0.145 C 
BRANCH  13  16
HETATM   16  C6  UNL     1       9.446   1.347  -9.636  1.00  0.00     0.218 C 
BRANCH  16  17
HETATM   17  N2  UNL     1      10.778   1.774  -9.668  1.00  0.00    -0.330 N 
HETATM   18  C5  UNL     1      11.417   2.568 -10.689  1.00  0.00     0.147 C 
HETATM   19  C4  UNL     1      12.810   3.019 -10.225  1.00  0.00     0.148 C 
HETATM   20  N1  UNL     1      13.533   1.814  -9.909  1.00  0.00    -0.324 N 
HETATM   21  C3  UNL     1      14.728   1.510 -10.580  1.00  0.00     0.362 C 
HETATM   22  C32 UNL     1      12.993   0.960  -8.907  1.00  0.00     0.164 C 
HETATM   23  O2  UNL     1      15.336   0.423 -10.277  1.00  0.00    -0.238 OA
HETATM   24  C30 UNL     1      11.599   1.318  -8.508  1.00  0.00     0.206 C 
BRANCH  21  25
HETATM   25  O1  UNL     1      15.294   2.319 -11.558  1.00  0.00    -0.304 OA
BRANCH  25  26
HETATM   26  C2  UNL     1      16.473   3.018 -11.266  1.00  0.00     0.176 C 
HETATM   27  C1  UNL     1      16.230   4.352 -10.591  1.00  0.00     0.034 C 
ENDBRANCH  25  26
ENDBRANCH  21  25
BRANCH  24  28
HETATM   28  C31 UNL     1      11.485   2.277  -7.398  1.00  0.00     0.198 C 
HETATM   29  O6  UNL     1      12.292   3.220  -7.245  1.00  0.00    -0.646 OA
HETATM   30  O7  UNL     1      10.451   2.142  -6.487  1.00  0.00    -0.646 OA
ENDBRANCH  24  28
ENDBRANCH  16  17
BRANCH  16  31
HETATM   31  O3  UNL     1       9.112   0.742  -8.505  1.00  0.00    -0.332 OA
ATOM     32  H3  UNL     1       9.802   0.750  -7.853  1.00  0.00     0.220 HD
ENDBRANCH  16  31
ENDBRANCH  13  16
ENDBRANCH   9  10
BRANCH   9  33
HETATM   33  O4  UNL     1       4.412   0.810 -13.660  1.00  0.00    -0.345 OA
ATOM     34  H4  UNL     1       3.464   0.762 -13.685  1.00  0.00     0.219 HD
ENDBRANCH   9  33
BRANCH   8  35
HETATM   35  C11 UNL     1       4.433  -1.736 -11.044  1.00  0.00     0.120 C 
BRANCH  35  36
HETATM   36  C12 UNL     1       5.856  -2.268 -10.904  1.00  0.00     0.031 A 
HETATM   37  C13 UNL     1       6.721  -2.071  -9.849  1.00  0.00     0.114 A 
HETATM   38  N5  UNL     1       7.884  -2.696 -10.066  1.00  0.00    -0.360 N 
HETATM   39  C14 UNL     1       7.765  -3.300 -11.271  1.00  0.00     0.180 A 
ATOM     40  H5  UNL     1       8.696  -2.713  -9.449  1.00  0.00     0.166 HD
HETATM   41  N6  UNL     1       6.532  -3.040 -11.782  1.00  0.00    -0.354 N 
ATOM     42  H6  UNL     1       6.177  -3.372 -12.678  1.00  0.00     0.166 HD
ENDBRANCH  35  36
ENDBRANCH   8  35
ENDBRANCH   5   8
ENDBRANCH   1   4
BRANCH   1  43
HETATM   43  N9  UNL     1       0.429  -3.082 -14.026  1.00  0.00     0.117 N 
HETATM   44  C18 UNL     1       0.945  -3.721 -12.858  1.00  0.00     0.275 C 
HETATM   45  C19 UNL     1      -0.133  -3.700 -11.787  1.00  0.00     0.032 C 
HETATM   46  C20 UNL     1      -1.355  -4.506 -12.173  1.00  0.00     0.028 C 
HETATM   47  C21 UNL     1      -1.633  -4.257 -13.624  1.00  0.00     0.107 C 
HETATM   48  C27 UNL     1      -1.019  -2.925 -13.992  1.00  0.00     0.299 C 
BRANCH  47  49
HETATM   49  N10 UNL     1      -2.971  -4.283 -14.022  1.00  0.00    -0.406 N 
HETATM   50  C22 UNL     1      -3.732  -5.458 -13.776  1.00  0.00     0.117 C 
HETATM   51  C23 UNL     1      -5.131  -5.208 -13.268  1.00  0.00     0.019 C 
HETATM   52  C24 UNL     1      -5.205  -4.057 -12.294  1.00  0.00     0.003 C 
HETATM   53  C25 UNL     1      -4.487  -2.826 -12.760  1.00  0.00     0.019 C 
HETATM   54  C26 UNL     1      -3.728  -3.093 -14.070  1.00  0.00     0.117 C 
ENDBRANCH  47  49
ENDBRANCH   1  43
TORSDOF 14
ENDMDL
MODEL 3
REMARK VINA RESULT: -9.654235528      1.405      2.173
REMARK  14 active torsions:
REMARK  status: ('A' for Active; 'I' for Inactive)
REMARK    1  A    between atoms: C2_2  and  O1_3 
REMARK    2  A    between atoms: O1_3  and  C3_4 
REMARK       I    between atoms: C3_4  and  N1_6 
REMARK    3  A    between atoms: N2_9  and  C6_10 
REMARK    4  A    between atoms: C6_10  and  O3_11 
REMARK    5  A    between atoms: C6_10  and  N3_13 
REMARK    6  A    between atoms: N4_16  and  C9_17 
REMARK    7  A    between atoms: C9_17  and  O4_18 
REMARK    8  A    between atoms: C10_20  and  C11_21 
REMARK    9  A    between atoms: C10_20  and  N7_29 
REMARK   10  A    between atoms: C11_21  and  C12_22 
REMARK       I    between atoms: N7_29  and  C15_31 
REMARK   11  A    between atoms: C15_31  and  C16_33 
REMARK   12  A    between atoms: C16_33  and  N9_36 
REMARK   13  A    between atoms: C21_40  and  N10_41 
REMARK   14  A    between atoms: C30_50  and  C31_51 
ROOT
HETATM    1  C16 UNL     1       0.899  -1.478 -13.837  1.00  0.00     0.419 C 
HETATM    2  C17 UNL     1       0.730  -1.896 -15.243  1.00  0.00     0.105 C 
HETATM    3  N8  UNL     1       0.620  -2.225 -16.335  1.00  0.00    -0.194 NA
ENDROOT
BRANCH   1   4
HETATM    4  C15 UNL     1       2.290  -1.794 -13.462  1.00  0.00     0.270 C 
HETATM    5  N7  UNL     1       3.072  -0.792 -12.855  1.00  0.00    -0.324 N 
ATOM      6  H7  UNL     1       2.637   0.118 -12.703  1.00  0.00     0.169 HD
HETATM    7  O5  UNL     1       2.757  -2.920 -13.678  1.00  0.00    -0.270 OA
BRANCH   5   8
HETATM    8  C10 UNL     1       4.469  -0.960 -12.422  1.00  0.00     0.068 C 
HETATM    9  C9  UNL     1       5.289   0.174 -12.787  1.00  0.00     0.161 C 
BRANCH   9  10
HETATM   10  N4  UNL     1       6.490   0.697 -12.302  1.00  0.00    -0.357 N 
HETATM   11  C8  UNL     1       7.704   0.387 -13.097  1.00  0.00     0.145 C 
HETATM   12  C7  UNL     1       8.916   1.181 -12.614  1.00  0.00     0.146 C 
HETATM   13  N3  UNL     1       9.120   0.912 -11.245  1.00  0.00    -0.344 N 
HETATM   14  C29 UNL     1       7.932   0.967 -10.368  1.00  0.00     0.146 C 
HETATM   15  C28 UNL     1       6.724   1.518 -11.156  1.00  0.00     0.145 C 
BRANCH  13  16
HETATM   16  C6  UNL     1      10.329   0.624 -10.623  1.00  0.00     0.218 C 
BRANCH  16  17
HETATM   17  N2  UNL     1      11.491   1.369 -10.396  1.00  0.00    -0.330 N 
HETATM   18  C5  UNL     1      12.023   2.430 -11.216  1.00  0.00     0.147 C 
HETATM   19  C4  UNL     1      13.172   3.146 -10.490  1.00  0.00     0.148 C 
HETATM   20  N1  UNL     1      14.142   2.127 -10.181  1.00  0.00    -0.324 N 
HETATM   21  C3  UNL     1      15.452   2.225 -10.675  1.00  0.00     0.362 C 
HETATM   22  C32 UNL     1      13.724   1.035  -9.369  1.00  0.00     0.164 C 
HETATM   23  O2  UNL     1      16.283   1.293 -10.387  1.00  0.00    -0.238 OA
HETATM   24  C30 UNL     1      12.245   0.977  -9.169  1.00  0.00     0.206 C 
BRANCH  21  25
HETATM   25  O1  UNL     1      15.905   3.276 -11.464  1.00  0.00    -0.304 OA
BRANCH  25  26
HETATM   26  C2  UNL     1      17.219   3.736 -11.297  1.00  0.00     0.176 C 
HETATM   27  C1  UNL     1      17.307   5.043 -10.536  1.00  0.00     0.034 C 
ENDBRANCH  25  26
ENDBRANCH  21  25
BRANCH  24  28
HETATM   28  C31 UNL     1      11.734   1.715  -8.003  1.00  0.00     0.198 C 
HETATM   29  O6  UNL     1      12.478   2.400  -7.268  1.00  0.00    -0.646 OA
HETATM   30  O7  UNL     1      10.384   1.658  -7.702  1.00  0.00    -0.646 OA
ENDBRANCH  24  28
ENDBRANCH  16  17
BRANCH  16  31
HETATM   31  O3  UNL     1      10.392  -0.612 -10.148  1.00  0.00    -0.332 OA
ATOM     32  H3  UNL     1      10.532  -1.269 -10.819  1.00  0.00     0.220 HD
ENDBRANCH  16  31
ENDBRANCH  13  16
ENDBRANCH   9  10
BRANCH   9  33
HETATM   33  O4  UNL     1       4.758   0.842 -13.811  1.00  0.00    -0.345 OA
ATOM     34  H4  UNL     1       3.822   0.725 -13.923  1.00  0.00     0.219 HD
ENDBRANCH   9  33
BRANCH   8  35
HETATM   35  C11 UNL     1       4.562  -1.563 -11.072  1.00  0.00     0.120 C 
BRANCH  35  36
HETATM   36  C12 UNL     1       5.950  -2.180 -10.937  1.00  0.00     0.031 A 
HETATM   37  C13 UNL     1       6.784  -2.130  -9.840  1.00  0.00     0.114 A 
HETATM   38  N5  UNL     1       7.922  -2.792 -10.079  1.00  0.00    -0.360 N 
HETATM   39  C14 UNL     1       7.819  -3.273 -11.339  1.00  0.00     0.180 A 
ATOM     40  H5  UNL     1       8.709  -2.911  -9.440  1.00  0.00     0.166 HD
HETATM   41  N6  UNL     1       6.620  -2.900 -11.862  1.00  0.00    -0.354 N 
ATOM     42  H6  UNL     1       6.283  -3.128 -12.798  1.00  0.00     0.166 HD
ENDBRANCH  35  36
ENDBRANCH   8  35
ENDBRANCH   5   8
ENDBRANCH   1   4
BRANCH   1  43
HETATM   43  N9  UNL     1      -0.002  -2.236 -13.000  1.00  0.00     0.117 N 
HETATM   44  C18 UNL     1       0.089  -1.921 -11.610  1.00  0.00     0.275 C 
HETATM   45  C19 UNL     1      -1.215  -1.267 -11.183  1.00  0.00     0.032 C 
HETATM   46  C20 UNL     1      -2.401  -2.201 -11.301  1.00  0.00     0.028 C 
HETATM   47  C21 UNL     1      -2.250  -2.982 -12.570  1.00  0.00     0.107 C 
HETATM   48  C27 UNL     1      -1.367  -2.183 -13.503  1.00  0.00     0.299 C 
BRANCH  47  49
HETATM   49  N10 UNL     1      -3.426  -3.343 -13.231  1.00  0.00    -0.406 N 
HETATM   50  C22 UNL     1      -3.481  -4.604 -13.884  1.00  0.00     0.117 C 
HETATM   51  C23 UNL     1      -4.772  -5.360 -13.690  1.00  0.00     0.019 C 
HETATM   52  C24 UNL     1      -5.327  -5.222 -12.292  1.00  0.00     0.003 C 
HETATM   53  C25 UNL     1      -5.356  -3.809 -11.792  1.00  0.00     0.019 C 
HETATM   54  C26 UNL     1      -4.674  -2.857 -12.788  1.00  0.00     0.117 C 
ENDBRANCH  47  49
ENDBRANCH   1  43
TORSDOF 14
ENDMDL
MODEL 4
REMARK VINA RESULT: -9.646565056      2.311     11.911
REMARK  14 active torsions:
REMARK  status: ('A' for Active; 'I' for Inactive)
REMARK    1  A    between atoms: C2_2  and  O1_3 
REMARK    2  A    between atoms: O1_3  and  C3_4 
REMARK       I    between atoms: C3_4  and  N1_6 
REMARK    3  A    between atoms: N2_9  and  C6_10 
REMARK    4  A    between atoms: C6_10  and  O3_11 
REMARK    5  A    between atoms: C6_10  and  N3_13 
REMARK    6  A    between atoms: N4_16  and  C9_17 
REMARK    7  A    between atoms: C9_17  and  O4_18 
REMARK    8  A    between atoms: C10_20  and  C11_21 
REMARK    9  A    between atoms: C10_20  and  N7_29 
REMARK   10  A    between atoms: C11_21  and  C12_22 
REMARK       I    between atoms: N7_29  and  C15_31 
REMARK   11  A    between atoms: C15_31  and  C16_33 
REMARK   12  A    between atoms: C16_33  and  N9_36 
REMARK   13  A    between atoms: C21_40  and  N10_41 
REMARK   14  A    between atoms: C30_50  and  C31_51 
ROOT
HETATM    1  C16 UNL     1      12.563   0.115 -10.109  1.00  0.00     0.419 C 
HETATM    2  C17 UNL     1      13.693  -0.173 -11.016  1.00  0.00     0.105 C 
HETATM    3  N8  UNL     1      14.558  -0.414 -11.727  1.00  0.00    -0.194 NA
ENDROOT
BRANCH   1   4
HETATM    4  C15 UNL     1      11.485  -0.828 -10.457  1.00  0.00     0.270 C 
HETATM    5  N7  UNL     1      10.180  -0.329 -10.633  1.00  0.00    -0.324 N 
ATOM      6  H7  UNL     1      10.037   0.673 -10.507  1.00  0.00     0.169 HD
HETATM    7  O5  UNL     1      11.726  -2.034 -10.591  1.00  0.00    -0.270 OA
BRANCH   5   8
HETATM    8  C10 UNL     1       9.006  -1.145 -10.986  1.00  0.00     0.068 C 
HETATM    9  C9  UNL     1       7.778  -0.574 -10.479  1.00  0.00     0.161 C 
BRANCH   9  10
HETATM   10  N4  UNL     1       6.433  -0.689 -10.842  1.00  0.00    -0.357 N 
HETATM   11  C8  UNL     1       5.730  -1.901 -10.355  1.00  0.00     0.145 C 
HETATM   12  C7  UNL     1       4.226  -1.825 -10.612  1.00  0.00     0.146 C 
HETATM   13  N3  UNL     1       4.010  -1.629 -11.992  1.00  0.00    -0.344 N 
HETATM   14  C29 UNL     1       4.823  -0.587 -12.655  1.00  0.00     0.146 C 
HETATM   15  C28 UNL     1       5.618   0.209 -11.597  1.00  0.00     0.145 C 
BRANCH  13  16
HETATM   16  C6  UNL     1       3.091  -2.294 -12.795  1.00  0.00     0.218 C 
BRANCH  16  17
HETATM   17  N2  UNL     1       1.706  -2.184 -12.959  1.00  0.00    -0.330 N 
HETATM   18  C5  UNL     1       0.766  -1.566 -12.057  1.00  0.00     0.147 C 
HETATM   19  C4  UNL     1      -0.614  -1.444 -12.720  1.00  0.00     0.148 C 
HETATM   20  N1  UNL     1      -0.991  -2.781 -13.103  1.00  0.00    -0.324 N 
HETATM   21  C3  UNL     1      -2.167  -3.356 -12.596  1.00  0.00     0.362 C 
HETATM   22  C32 UNL     1      -0.135  -3.481 -13.998  1.00  0.00     0.164 C 
HETATM   23  O2  UNL     1      -2.461  -4.552 -12.952  1.00  0.00    -0.238 OA
HETATM   24  C30 UNL     1       1.182  -2.809 -14.209  1.00  0.00     0.206 C 
BRANCH  21  25
HETATM   25  O1  UNL     1      -3.035  -2.706 -11.727  1.00  0.00    -0.304 OA
BRANCH  25  26
HETATM   26  C2  UNL     1      -4.387  -2.588 -12.077  1.00  0.00     0.176 C 
HETATM   27  C1  UNL     1      -4.610  -1.819 -13.363  1.00  0.00     0.034 C 
ENDBRANCH  25  26
ENDBRANCH  21  25
BRANCH  24  28
HETATM   28  C31 UNL     1       1.229  -1.841 -15.317  1.00  0.00     0.198 C 
HETATM   29  O6  UNL     1       2.224  -1.113 -15.525  1.00  0.00    -0.646 OA
HETATM   30  O7  UNL     1       0.141  -1.726 -16.165  1.00  0.00    -0.646 OA
ENDBRANCH  24  28
ENDBRANCH  16  17
BRANCH  16  31
HETATM   31  O3  UNL     1       3.643  -3.221 -13.564  1.00  0.00    -0.332 OA
ATOM     32  H3  UNL     1       3.817  -2.924 -14.450  1.00  0.00     0.220 HD
ENDBRANCH  16  31
ENDBRANCH  13  16
ENDBRANCH   9  10
BRANCH   9  33
HETATM   33  O4  UNL     1       8.013   0.230  -9.442  1.00  0.00    -0.345 OA
ATOM     34  H4  UNL     1       8.681   0.889  -9.589  1.00  0.00     0.219 HD
ENDBRANCH   9  33
BRANCH   8  35
HETATM   35  C11 UNL     1       9.088  -1.663 -12.372  1.00  0.00     0.120 C 
BRANCH  35  36
HETATM   36  C12 UNL     1       8.724  -3.144 -12.331  1.00  0.00     0.031 A 
HETATM   37  C13 UNL     1       9.158  -4.086 -11.423  1.00  0.00     0.114 A 
HETATM   38  N5  UNL     1       8.624  -5.284 -11.690  1.00  0.00    -0.360 N 
HETATM   39  C14 UNL     1       7.840  -5.110 -12.779  1.00  0.00     0.180 A 
ATOM     40  H5  UNL     1       8.777  -6.152 -11.177  1.00  0.00     0.166 HD
HETATM   41  N6  UNL     1       7.900  -3.808 -13.170  1.00  0.00    -0.354 N 
ATOM     42  H6  UNL     1       7.406  -3.403 -13.964  1.00  0.00     0.166 HD
ENDBRANCH  35  36
ENDBRANCH   8  35
ENDBRANCH   5   8
ENDBRANCH   1   4
BRANCH   1  43
HETATM   43  N9  UNL     1      12.103   1.466 -10.332  1.00  0.00     0.117 N 
HETATM   44  C18 UNL     1      12.956   2.470  -9.783  1.00  0.00     0.275 C 
HETATM   45  C19 UNL     1      13.568   3.257 -10.930  1.00  0.00     0.032 C 
HETATM   46  C20 UNL     1      12.533   4.013 -11.736  1.00  0.00     0.028 C 
HETATM   47  C21 UNL     1      11.333   3.130 -11.892  1.00  0.00     0.107 C 
HETATM   48  C27 UNL     1      11.790   1.696 -11.736  1.00  0.00     0.299 C 
BRANCH  47  49
HETATM   49  N10 UNL     1      10.603   3.264 -13.075  1.00  0.00    -0.406 N 
HETATM   50  C22 UNL     1      10.850   2.350 -14.135  1.00  0.00     0.117 C 
HETATM   51  C23 UNL     1       9.612   1.845 -14.835  1.00  0.00     0.019 C 
HETATM   52  C24 UNL     1       8.465   1.591 -13.886  1.00  0.00     0.003 C 
HETATM   53  C25 UNL     1       8.218   2.714 -12.924  1.00  0.00     0.019 C 
HETATM   54  C26 UNL     1       9.299   3.800 -13.056  1.00  0.00     0.117 C 
ENDBRANCH  47  49
ENDBRANCH   1  43
TORSDOF 14
ENDMDL
MODEL 5
REMARK VINA RESULT: -9.625431107      1.243      1.298
REMARK  14 active torsions:
REMARK  status: ('A' for Active; 'I' for Inactive)
REMARK    1  A    between atoms: C2_2  and  O1_3 
REMARK    2  A    between atoms: O1_3  and  C3_4 
REMARK       I    between atoms: C3_4  and  N1_6 
REMARK    3  A    between atoms: N2_9  and  C6_10 
REMARK    4  A    between atoms: C6_10  and  O3_11 
REMARK    5  A    between atoms: C6_10  and  N3_13 
REMARK    6  A    between atoms: N4_16  and  C9_17 
REMARK    7  A    between atoms: C9_17  and  O4_18 
REMARK    8  A    between atoms: C10_20  and  C11_21 
REMARK    9  A    between atoms: C10_20  and  N7_29 
REMARK   10  A    between atoms: C11_21  and  C12_22 
REMARK       I    between atoms: N7_29  and  C15_31 
REMARK   11  A    between atoms: C15_31  and  C16_33 
REMARK   12  A    between atoms: C16_33  and  N9_36 
REMARK   13  A    between atoms: C21_40  and  N10_41 
REMARK   14  A    between atoms: C30_50  and  C31_51 
ROOT
HETATM    1  C16 UNL     1       1.667  -2.049 -14.004  1.00  0.00     0.419 C 
HETATM    2  C17 UNL     1       1.664  -2.761 -15.298  1.00  0.00     0.105 C 
HETATM    3  N8  UNL     1       1.685  -3.315 -16.301  1.00  0.00    -0.194 NA
ENDROOT
BRANCH   1   4
HETATM    4  C15 UNL     1       3.042  -2.125 -13.478  1.00  0.00     0.270 C 
HETATM    5  N7  UNL     1       3.541  -1.039 -12.731  1.00  0.00    -0.324 N 
ATOM      6  H7  UNL     1       2.924  -0.240 -12.590  1.00  0.00     0.169 HD
HETATM    7  O5  UNL     1       3.740  -3.124 -13.690  1.00  0.00    -0.270 OA
BRANCH   5   8
HETATM    8  C10 UNL     1       4.888  -0.973 -12.139  1.00  0.00     0.068 C 
HETATM    9  C9  UNL     1       5.366   0.388 -12.034  1.00  0.00     0.161 C 
BRANCH   9  10
HETATM   10  N4  UNL     1       6.319   1.021 -11.232  1.00  0.00    -0.357 N 
HETATM   11  C8  UNL     1       7.608   1.349 -11.888  1.00  0.00     0.145 C 
HETATM   12  C7  UNL     1       8.488   2.228 -11.002  1.00  0.00     0.146 C 
HETATM   13  N3  UNL     1       8.694   1.572  -9.770  1.00  0.00    -0.344 N 
HETATM   14  C29 UNL     1       7.503   0.994  -9.113  1.00  0.00     0.146 C 
HETATM   15  C28 UNL     1       6.226   1.429  -9.865  1.00  0.00     0.145 C 
BRANCH  13  16
HETATM   16  C6  UNL     1       9.899   1.431  -9.092  1.00  0.00     0.218 C 
BRANCH  16  17
HETATM   17  N2  UNL     1      11.237   1.486  -9.495  1.00  0.00    -0.330 N 
HETATM   18  C5  UNL     1      12.364   1.945  -8.721  1.00  0.00     0.147 C 
HETATM   19  C4  UNL     1      13.681   1.614  -9.441  1.00  0.00     0.148 C 
HETATM   20  N1  UNL     1      13.592   2.237 -10.737  1.00  0.00    -0.324 N 
HETATM   21  C3  UNL     1      14.542   3.194 -11.128  1.00  0.00     0.362 C 
HETATM   22  C32 UNL     1      12.518   1.851 -11.587  1.00  0.00     0.164 C 
HETATM   23  O2  UNL     1      14.422   3.733 -12.284  1.00  0.00    -0.238 OA
HETATM   24  C30 UNL     1      11.478   1.032 -10.896  1.00  0.00     0.206 C 
BRANCH  21  25
HETATM   25  O1  UNL     1      15.610   3.594 -10.333  1.00  0.00    -0.304 OA
BRANCH  25  26
HETATM   26  C2  UNL     1      16.378   4.697 -10.731  1.00  0.00     0.176 C 
HETATM   27  C1  UNL     1      17.797   4.333 -11.117  1.00  0.00     0.034 C 
ENDBRANCH  25  26
ENDBRANCH  21  25
BRANCH  24  28
HETATM   28  C31 UNL     1      11.695  -0.424 -10.926  1.00  0.00     0.198 C 
HETATM   29  O6  UNL     1      12.839  -0.927 -10.951  1.00  0.00    -0.646 OA
HETATM   30  O7  UNL     1      10.603  -1.273 -10.925  1.00  0.00    -0.646 OA
ENDBRANCH  24  28
ENDBRANCH  16  17
BRANCH  16  31
HETATM   31  O3  UNL     1       9.746   1.198  -7.797  1.00  0.00    -0.332 OA
ATOM     32  H3  UNL     1       8.939   0.744  -7.586  1.00  0.00     0.220 HD
ENDBRANCH  16  31
ENDBRANCH  13  16
ENDBRANCH   9  10
BRANCH   9  33
HETATM   33  O4  UNL     1       4.745   1.185 -12.903  1.00  0.00    -0.345 OA
ATOM     34  H4  UNL     1       4.152   0.743 -13.499  1.00  0.00     0.219 HD
ENDBRANCH   9  33
BRANCH   8  35
HETATM   35  C11 UNL     1       5.046  -1.924 -11.014  1.00  0.00     0.120 C 
BRANCH  35  36
HETATM   36  C12 UNL     1       6.359  -2.671 -11.225  1.00  0.00     0.031 A 
HETATM   37  C13 UNL     1       7.440  -2.717 -10.370  1.00  0.00     0.114 A 
HETATM   38  N5  UNL     1       8.415  -3.480 -10.879  1.00  0.00    -0.360 N 
HETATM   39  C14 UNL     1       7.957  -3.928 -12.070  1.00  0.00     0.180 A 
ATOM     40  H5  UNL     1       9.320  -3.682 -10.455  1.00  0.00     0.166 HD
HETATM   41  N6  UNL     1       6.706  -3.436 -12.282  1.00  0.00    -0.354 N 
ATOM     42  H6  UNL     1       6.128  -3.615 -13.102  1.00  0.00     0.166 HD
ENDBRANCH  35  36
ENDBRANCH   8  35
ENDBRANCH   5   8
ENDBRANCH   1   4
BRANCH   1  43
HETATM   43  N9  UNL     1       0.771  -2.717 -13.089  1.00  0.00     0.117 N 
HETATM   44  C18 UNL     1       0.901  -2.292 -11.732  1.00  0.00     0.275 C 
HETATM   45  C19 UNL     1      -0.379  -1.578 -11.330  1.00  0.00     0.032 C 
HETATM   46  C20 UNL     1      -1.586  -2.492 -11.346  1.00  0.00     0.028 C 
HETATM   47  C21 UNL     1      -1.481  -3.377 -12.550  1.00  0.00     0.107 C 
HETATM   48  C27 UNL     1      -0.605  -2.675 -13.565  1.00  0.00     0.299 C 
BRANCH  47  49
HETATM   49  N10 UNL     1      -2.679  -3.764 -13.153  1.00  0.00    -0.406 N 
HETATM   50  C22 UNL     1      -3.333  -4.934 -12.679  1.00  0.00     0.117 C 
HETATM   51  C23 UNL     1      -4.830  -4.808 -12.541  1.00  0.00     0.019 C 
HETATM   52  C24 UNL     1      -5.260  -3.455 -12.026  1.00  0.00     0.003 C 
HETATM   53  C25 UNL     1      -4.605  -2.306 -12.731  1.00  0.00     0.019 C 
HETATM   54  C26 UNL     1      -3.539  -2.802 -13.722  1.00  0.00     0.117 C 
ENDBRANCH  47  49
ENDBRANCH   1  43
TORSDOF 14
ENDMDL
