MODEL 1
REMARK VINA RESULT: -9.301854251      0.000      0.000
REMARK  12 active torsions:
REMARK  status: ('A' for Active; 'I' for Inactive)
REMARK    1  A    between atoms: C2_2  and  C4_4 
REMARK    2  A    between atoms: C4_4  and  N1_5 
REMARK    3  A    between atoms: C4_4  and  C22_33 
REMARK       I    between atoms: N1_5  and  C5_7 
REMARK       I    between atoms: C5_7  and  N2_9 
REMARK    4  A    between atoms: N2_9  and  C6_11 
REMARK    5  A    between atoms: C6_11  and  C7_12 
REMARK    6  A    between atoms: C6_11  and  C18_29 
REMARK       I    between atoms: C7_12  and  N3_14 
REMARK    7  A    between atoms: C9_16  and  O3_17 
REMARK    8  A    between atoms: C9_16  and  N4_19 
REMARK    9  A    between atoms: C22_33  and  C23_35 
REMARK       I    between atoms: C23_35  and  N5_37 
REMARK   10  A    between atoms: N5_37  and  C24_39 
REMARK   11  A    between atoms: C25_40  and  O6_41 
REMARK   12  A    between atoms: O6_41  and  C26_42 
REMARK       I    between atoms: C26_42  and  N6_44 
ROOT
HETATM    1  N1  UNL     1       4.609  -0.013 -12.954  1.00  0.00    -0.331 N 
ATOM      2  H1  UNL     1       4.197   0.914 -12.849  1.00  0.00     0.165 HD
HETATM    3  C5  UNL     1       5.906  -0.177 -12.417  1.00  0.00     0.317 C 
HETATM    4  O1  UNL     1       6.375  -1.361 -12.541  1.00  0.00    -0.247 OA
HETATM    5  N2  UNL     1       6.644   0.799 -11.804  1.00  0.00    -0.329 N 
ATOM      6  H2  UNL     1       6.167   1.701 -11.815  1.00  0.00     0.165 HD
ENDROOT
BRANCH   1   7
HETATM    7  C4  UNL     1       3.808  -0.977 -13.621  1.00  0.00     0.169 C 
BRANCH   7   8
HETATM    8  C2  UNL     1       3.038  -1.870 -12.692  1.00  0.00     0.008 C 
HETATM    9  C1  UNL     1       3.248  -3.352 -13.056  1.00  0.00     0.012 C 
HETATM   10  C3  UNL     1       3.269  -1.685 -11.242  1.00  0.00     0.012 C 
ENDBRANCH   7   8
BRANCH   7  11
HETATM   11  C22 UNL     1       2.928  -0.287 -14.582  1.00  0.00     0.239 C 
HETATM   12  O4  UNL     1       2.826   1.004 -14.489  1.00  0.00    -0.285 OA
BRANCH  11  13
HETATM   13  C23 UNL     1       2.139  -0.858 -15.636  1.00  0.00     0.291 C 
HETATM   14  O5  UNL     1       2.461  -0.720 -16.831  1.00  0.00    -0.264 OA
HETATM   15  N5  UNL     1       0.965  -1.604 -15.353  1.00  0.00    -0.322 N 
ATOM     16  H5  UNL     1       0.662  -1.713 -14.385  1.00  0.00     0.165 HD
BRANCH  15  17
HETATM   17  C24 UNL     1       0.203  -2.204 -16.394  1.00  0.00     0.355 C 
HETATM   18  C25 UNL     1      -1.227  -2.557 -16.173  1.00  0.00     0.215 C 
HETATM   19  C31 UNL     1      -0.675  -3.739 -15.456  1.00  0.00     0.311 C 
HETATM   20  N7  UNL     1       0.480  -3.665 -16.345  1.00  0.00     0.112 N 
HETATM   21  C32 UNL     1       0.303  -4.211 -17.652  1.00  0.00     0.312 C 
BRANCH  18  22
HETATM   22  O6  UNL     1      -2.026  -1.658 -15.440  1.00  0.00    -0.293 OA
BRANCH  22  23
HETATM   23  C26 UNL     1      -2.666  -2.136 -14.297  1.00  0.00     0.363 C 
HETATM   24  O7  UNL     1      -3.727  -2.799 -14.397  1.00  0.00    -0.238 OA
HETATM   25  N6  UNL     1      -2.142  -1.887 -13.011  1.00  0.00    -0.324 N 
HETATM   26  C27 UNL     1      -0.888  -1.144 -12.822  1.00  0.00     0.154 C 
HETATM   27  C30 UNL     1      -2.804  -2.333 -11.789  1.00  0.00     0.154 C 
HETATM   28  C28 UNL     1      -0.527  -1.277 -11.356  1.00  0.00     0.187 C 
HETATM   29  O8  UNL     1      -1.492  -0.802 -10.498  1.00  0.00    -0.388 OA
HETATM   30  C29 UNL     1      -2.779  -1.106 -10.875  1.00  0.00     0.187 C 
ENDBRANCH  22  23
ENDBRANCH  18  22
ENDBRANCH  15  17
ENDBRANCH  11  13
ENDBRANCH   7  11
ENDBRANCH   1   7
BRANCH   5  31
HETATM   31  C6  UNL     1       7.924   0.878 -11.147  1.00  0.00     0.186 C 
BRANCH  31  32
HETATM   32  C7  UNL     1       8.653   2.044 -11.681  1.00  0.00     0.249 C 
HETATM   33  O2  UNL     1       8.203   3.225 -11.484  1.00  0.00    -0.271 OA
HETATM   34  N3  UNL     1       9.884   1.967 -12.456  1.00  0.00    -0.296 N 
HETATM   35  C8  UNL     1      10.494   3.186 -12.836  1.00  0.00     0.076 C 
HETATM   36  C15 UNL     1      10.450   0.792 -12.994  1.00  0.00     0.082 C 
HETATM   37  C9  UNL     1      11.449   3.941 -12.075  1.00  0.00     0.162 C 
HETATM   38  C14 UNL     1      11.002   3.072 -14.284  1.00  0.00     0.138 C 
HETATM   39  S1  UNL     1      11.814   1.463 -14.107  1.00  0.00    -0.132 SA
HETATM   40  C16 UNL     1       9.551   0.087 -14.042  1.00  0.00     0.051 C 
HETATM   41  C17 UNL     1      11.020  -0.293 -12.179  1.00  0.00     0.051 C 
BRANCH  37  42
HETATM   42  O3  UNL     1      11.450   5.258 -12.389  1.00  0.00    -0.345 OA
ATOM     43  H3  UNL     1      12.319   5.593 -12.578  1.00  0.00     0.219 HD
ENDBRANCH  37  42
BRANCH  37  44
HETATM   44  N4  UNL     1      12.399   3.696 -11.091  1.00  0.00    -0.360 N 
HETATM   45  C10 UNL     1      13.821   4.108 -11.206  1.00  0.00     0.125 C 
HETATM   46  C11 UNL     1      14.524   2.951 -10.508  1.00  0.00     0.021 C 
HETATM   47  C12 UNL     1      13.684   2.881  -9.244  1.00  0.00     0.021 C 
HETATM   48  C13 UNL     1      12.292   3.019  -9.851  1.00  0.00     0.125 C 
ENDBRANCH  37  44
ENDBRANCH  31  32
BRANCH  31  49
HETATM   49  C18 UNL     1       7.660   0.929  -9.659  1.00  0.00    -0.022 C 
HETATM   50  C19 UNL     1       6.497   1.907  -9.378  1.00  0.00     0.017 C 
HETATM   51  C20 UNL     1       7.270  -0.413  -9.152  1.00  0.00     0.017 C 
HETATM   52  C21 UNL     1       8.816   1.442  -8.876  1.00  0.00     0.017 C 
ENDBRANCH  31  49
ENDBRANCH   5  31
TORSDOF 12
ENDMDL
MODEL 2
REMARK VINA RESULT: -9.253629046      2.209      2.998
REMARK  12 active torsions:
REMARK  status: ('A' for Active; 'I' for Inactive)
REMARK    1  A    between atoms: C2_2  and  C4_4 
REMARK    2  A    between atoms: C4_4  and  N1_5 
REMARK    3  A    between atoms: C4_4  and  C22_33 
REMARK       I    between atoms: N1_5  and  C5_7 
REMARK       I    between atoms: C5_7  and  N2_9 
REMARK    4  A    between atoms: N2_9  and  C6_11 
REMARK    5  A    between atoms: C6_11  and  C7_12 
REMARK    6  A    between atoms: C6_11  and  C18_29 
REMARK       I    between atoms: C7_12  and  N3_14 
REMARK    7  A    between atoms: C9_16  and  O3_17 
REMARK    8  A    between atoms: C9_16  and  N4_19 
REMARK    9  A    between atoms: C22_33  and  C23_35 
REMARK       I    between atoms: C23_35  and  N5_37 
REMARK   10  A    between atoms: N5_37  and  C24_39 
REMARK   11  A    between atoms: C25_40  and  O6_41 
REMARK   12  A    between atoms: O6_41  and  C26_42 
REMARK       I    between atoms: C26_42  and  N6_44 
ROOT
HETATM    1  N1  UNL     1       5.477   0.338 -13.336  1.00  0.00    -0.331 N 
ATOM      2  H1  UNL     1       5.360  -0.217 -14.184  1.00  0.00     0.165 HD
HETATM    3  C5  UNL     1       6.678   0.128 -12.622  1.00  0.00     0.317 C 
HETATM    4  O1  UNL     1       6.800   0.864 -11.582  1.00  0.00    -0.247 OA
HETATM    5  N2  UNL     1       7.662  -0.761 -12.960  1.00  0.00    -0.329 N 
ATOM      6  H2  UNL     1       7.412  -1.310 -13.783  1.00  0.00     0.165 HD
ENDROOT
BRANCH   1   7
HETATM    7  C4  UNL     1       4.412   1.224 -13.022  1.00  0.00     0.169 C 
BRANCH   7   8
HETATM    8  C2  UNL     1       4.568   2.591 -13.620  1.00  0.00     0.008 C 
HETATM    9  C1  UNL     1       5.075   3.596 -12.567  1.00  0.00     0.012 C 
HETATM   10  C3  UNL     1       5.400   2.698 -14.839  1.00  0.00     0.012 C 
ENDBRANCH   7   8
BRANCH   7  11
HETATM   11  C22 UNL     1       3.135   0.593 -13.405  1.00  0.00     0.239 C 
HETATM   12  O4  UNL     1       2.040   1.130 -12.962  1.00  0.00    -0.285 OA
BRANCH  11  13
HETATM   13  C23 UNL     1       2.926  -0.570 -14.219  1.00  0.00     0.291 C 
HETATM   14  O5  UNL     1       2.965  -0.504 -15.462  1.00  0.00    -0.264 OA
HETATM   15  N5  UNL     1       2.671  -1.839 -13.636  1.00  0.00    -0.322 N 
ATOM     16  H5  UNL     1       2.608  -1.920 -12.621  1.00  0.00     0.165 HD
BRANCH  15  17
HETATM   17  C24 UNL     1       2.501  -3.000 -14.440  1.00  0.00     0.355 C 
HETATM   18  C25 UNL     1       1.165  -3.648 -14.555  1.00  0.00     0.215 C 
HETATM   19  C31 UNL     1       1.491  -4.224 -13.221  1.00  0.00     0.311 C 
HETATM   20  N7  UNL     1       2.897  -4.166 -13.603  1.00  0.00     0.112 N 
HETATM   21  C32 UNL     1       3.360  -5.210 -14.460  1.00  0.00     0.312 C 
BRANCH  18  22
HETATM   22  O6  UNL     1       0.032  -2.818 -14.653  1.00  0.00    -0.293 OA
BRANCH  22  23
HETATM   23  C26 UNL     1      -1.127  -3.213 -13.987  1.00  0.00     0.363 C 
HETATM   24  O7  UNL     1      -1.793  -4.192 -14.402  1.00  0.00    -0.238 OA
HETATM   25  N6  UNL     1      -1.575  -2.527 -12.838  1.00  0.00    -0.324 N 
HETATM   26  C27 UNL     1      -0.828  -1.392 -12.279  1.00  0.00     0.154 C 
HETATM   27  C30 UNL     1      -2.805  -2.882 -12.136  1.00  0.00     0.154 C 
HETATM   28  C28 UNL     1      -1.470  -1.070 -10.944  1.00  0.00     0.187 C 
HETATM   29  O8  UNL     1      -2.808  -0.760 -11.029  1.00  0.00    -0.388 OA
HETATM   30  C29 UNL     1      -3.513  -1.544 -11.911  1.00  0.00     0.187 C 
ENDBRANCH  22  23
ENDBRANCH  18  22
ENDBRANCH  15  17
ENDBRANCH  11  13
ENDBRANCH   7  11
ENDBRANCH   1   7
BRANCH   5  31
HETATM   31  C6  UNL     1       8.960  -1.120 -12.450  1.00  0.00     0.186 C 
BRANCH  31  32
HETATM   32  C7  UNL     1       9.528   0.047 -11.749  1.00  0.00     0.249 C 
HETATM   33  O2  UNL     1       9.384   0.166 -10.484  1.00  0.00    -0.271 OA
HETATM   34  N3  UNL     1      10.256   1.129 -12.397  1.00  0.00    -0.296 N 
HETATM   35  C8  UNL     1      10.795   2.142 -11.570  1.00  0.00     0.076 C 
HETATM   36  C15 UNL     1      10.351   1.344 -13.788  1.00  0.00     0.082 C 
HETATM   37  C9  UNL     1      12.085   2.139 -10.939  1.00  0.00     0.162 C 
HETATM   38  C14 UNL     1      10.579   3.512 -12.234  1.00  0.00     0.138 C 
HETATM   39  S1  UNL     1      11.150   3.047 -13.889  1.00  0.00    -0.132 SA
HETATM   40  C16 UNL     1       8.989   1.631 -14.472  1.00  0.00     0.051 C 
HETATM   41  C17 UNL     1      11.068   0.450 -14.712  1.00  0.00     0.051 C 
BRANCH  37  42
HETATM   42  O3  UNL     1      12.129   2.908  -9.826  1.00  0.00    -0.345 OA
ATOM     43  H3  UNL     1      12.649   2.523  -9.130  1.00  0.00     0.219 HD
ENDBRANCH  37  42
BRANCH  37  44
HETATM   44  N4  UNL     1      13.330   1.562 -11.156  1.00  0.00    -0.360 N 
HETATM   45  C10 UNL     1      14.247   1.159 -10.061  1.00  0.00     0.125 C 
HETATM   46  C11 UNL     1      15.604   1.479 -10.673  1.00  0.00     0.021 C 
HETATM   47  C12 UNL     1      15.429   0.805 -12.024  1.00  0.00     0.021 C 
HETATM   48  C13 UNL     1      14.016   1.268 -12.362  1.00  0.00     0.125 C 
ENDBRANCH  37  44
ENDBRANCH  31  32
BRANCH  31  49
HETATM   49  C18 UNL     1       8.777  -2.346 -11.585  1.00  0.00    -0.022 C 
HETATM   50  C19 UNL     1       8.284  -3.521 -12.458  1.00  0.00     0.017 C 
HETATM   51  C20 UNL     1      10.067  -2.741 -10.959  1.00  0.00     0.017 C 
HETATM   52  C21 UNL     1       7.745  -2.169 -10.529  1.00  0.00     0.017 C 
ENDBRANCH  31  49
ENDBRANCH   5  31
TORSDOF 12
ENDMDL
MODEL 3
REMARK VINA RESULT: -9.238339193      3.170      5.788
REMARK  12 active torsions:
REMARK  status: ('A' for Active; 'I' for Inactive)
REMARK    1  A    between atoms: C2_2  and  C4_4 
REMARK    2  A    between atoms: C4_4  and  N1_5 
REMARK    3  A    between atoms: C4_4  and  C22_33 
REMARK       I    between atoms: N1_5  and  C5_7 
REMARK       I    between atoms: C5_7  and  N2_9 
REMARK    4  A    between atoms: N2_9  and  C6_11 
REMARK    5  A    between atoms: C6_11  and  C7_12 
REMARK    6  A    between atoms: C6_11  and  C18_29 
REMARK       I    between atoms: C7_12  and  N3_14 
REMARK    7  A    between atoms: C9_16  and  O3_17 
REMARK    8  A    between atoms: C9_16  and  N4_19 
REMARK    9  A    between atoms: C22_33  and  C23_35 
REMARK       I    between atoms: C23_35  and  N5_37 
REMARK   10  A    between atoms: N5_37  and  C24_39 
REMARK   11  A    between atoms: C25_40  and  O6_41 
REMARK   12  A    between atoms: O6_41  and  C26_42 
REMARK       I    between atoms: C26_42  and  N6_44 
ROOT
HETATM    1  N1  UNL     1       4.459   0.407 -12.900  1.00  0.00    -0.331 N 
ATOM      2  H1  UNL     1       4.079   1.320 -12.652  1.00  0.00     0.165 HD
HETATM    3  C5  UNL     1       5.772   0.141 -12.448  1.00  0.00     0.317 C 
HETATM    4  O1  UNL     1       6.200  -1.026 -12.753  1.00  0.00    -0.247 OA
HETATM    5  N2  UNL     1       6.563   1.006 -11.743  1.00  0.00    -0.329 N 
ATOM      6  H2  UNL     1       6.112   1.912 -11.610  1.00  0.00     0.165 HD
ENDROOT
BRANCH   1   7
HETATM    7  C4  UNL     1       3.603  -0.438 -13.655  1.00  0.00     0.169 C 
BRANCH   7   8
HETATM    8  C2  UNL     1       2.436  -0.968 -12.874  1.00  0.00     0.008 C 
HETATM    9  C1  UNL     1       2.914  -1.775 -11.652  1.00  0.00     0.012 C 
HETATM   10  C3  UNL     1       1.417   0.015 -12.444  1.00  0.00     0.012 C 
ENDBRANCH   7   8
BRANCH   7  11
HETATM   11  C22 UNL     1       3.177   0.276 -14.873  1.00  0.00     0.239 C 
HETATM   12  O4  UNL     1       2.539  -0.400 -15.778  1.00  0.00    -0.285 OA
BRANCH  11  13
HETATM   13  C23 UNL     1       3.379   1.657 -15.212  1.00  0.00     0.291 C 
HETATM   14  O5  UNL     1       2.850   2.568 -14.549  1.00  0.00    -0.264 OA
HETATM   15  N5  UNL     1       4.194   2.031 -16.312  1.00  0.00    -0.322 N 
ATOM     16  H5  UNL     1       4.621   1.305 -16.889  1.00  0.00     0.165 HD
BRANCH  15  17
HETATM   17  C24 UNL     1       4.426   3.399 -16.626  1.00  0.00     0.355 C 
HETATM   18  C25 UNL     1       4.666   3.818 -18.035  1.00  0.00     0.215 C 
HETATM   19  C31 UNL     1       6.043   3.301 -17.802  1.00  0.00     0.311 C 
HETATM   20  N7  UNL     1       5.875   3.654 -16.397  1.00  0.00     0.112 N 
HETATM   21  C32 UNL     1       6.052   5.032 -16.068  1.00  0.00     0.312 C 
BRANCH  18  22
HETATM   22  O6  UNL     1       3.899   3.209 -19.047  1.00  0.00    -0.293 OA
BRANCH  22  23
HETATM   23  C26 UNL     1       4.572   2.679 -20.147  1.00  0.00     0.363 C 
HETATM   24  O7  UNL     1       5.098   3.440 -20.995  1.00  0.00    -0.238 OA
HETATM   25  N6  UNL     1       4.677   1.284 -20.333  1.00  0.00    -0.324 N 
HETATM   26  C27 UNL     1       4.111   0.334 -19.365  1.00  0.00     0.154 C 
HETATM   27  C30 UNL     1       5.335   0.689 -21.492  1.00  0.00     0.154 C 
HETATM   28  C28 UNL     1       4.613  -1.039 -19.765  1.00  0.00     0.187 C 
HETATM   29  O8  UNL     1       4.269  -1.407 -21.046  1.00  0.00    -0.388 OA
HETATM   30  C29 UNL     1       4.362  -0.392 -21.968  1.00  0.00     0.187 C 
ENDBRANCH  22  23
ENDBRANCH  18  22
ENDBRANCH  15  17
ENDBRANCH  11  13
ENDBRANCH   7  11
ENDBRANCH   1   7
BRANCH   5  31
HETATM   31  C6  UNL     1       7.870   0.965 -11.139  1.00  0.00     0.186 C 
BRANCH  31  32
HETATM   32  C7  UNL     1       8.668   2.086 -11.671  1.00  0.00     0.249 C 
HETATM   33  O2  UNL     1       8.263   3.289 -11.514  1.00  0.00    -0.271 OA
HETATM   34  N3  UNL     1       9.919   1.940 -12.402  1.00  0.00    -0.296 N 
HETATM   35  C8  UNL     1      10.594   3.122 -12.784  1.00  0.00     0.076 C 
HETATM   36  C15 UNL     1      10.451   0.730 -12.895  1.00  0.00     0.082 C 
HETATM   37  C9  UNL     1      11.556   3.852 -12.006  1.00  0.00     0.162 C 
HETATM   38  C14 UNL     1      11.146   2.956 -14.211  1.00  0.00     0.138 C 
HETATM   39  S1  UNL     1      11.879   1.317 -13.974  1.00  0.00    -0.132 SA
HETATM   40  C16 UNL     1       9.558   0.042 -13.960  1.00  0.00     0.051 C 
HETATM   41  C17 UNL     1      10.945  -0.361 -12.039  1.00  0.00     0.051 C 
BRANCH  37  42
HETATM   42  O3  UNL     1      11.625   5.161 -12.346  1.00  0.00    -0.345 OA
ATOM     43  H3  UNL     1      12.452   5.562 -12.106  1.00  0.00     0.219 HD
ENDBRANCH  37  42
BRANCH  37  44
HETATM   44  N4  UNL     1      12.460   3.588 -10.985  1.00  0.00    -0.360 N 
HETATM   45  C10 UNL     1      13.904   3.924 -11.064  1.00  0.00     0.125 C 
HETATM   46  C11 UNL     1      14.524   2.755 -10.312  1.00  0.00     0.021 C 
HETATM   47  C12 UNL     1      13.642   2.762  -9.075  1.00  0.00     0.021 C 
HETATM   48  C13 UNL     1      12.279   2.953  -9.731  1.00  0.00     0.125 C 
ENDBRANCH  37  44
ENDBRANCH  31  32
BRANCH  31  49
HETATM   49  C18 UNL     1       7.671   0.989  -9.641  1.00  0.00    -0.022 C 
HETATM   50  C19 UNL     1       6.557   1.999  -9.288  1.00  0.00     0.017 C 
HETATM   51  C20 UNL     1       7.257  -0.350  -9.147  1.00  0.00     0.017 C 
HETATM   52  C21 UNL     1       8.876   1.444  -8.897  1.00  0.00     0.017 C 
ENDBRANCH  31  49
ENDBRANCH   5  31
TORSDOF 12
ENDMDL
MODEL 4
REMARK VINA RESULT: -9.163253823      2.904      5.103
REMARK  12 active torsions:
REMARK  status: ('A' for Active; 'I' for Inactive)
REMARK    1  A    between atoms: C2_2  and  C4_4 
REMARK    2  A    between atoms: C4_4  and  N1_5 
REMARK    3  A    between atoms: C4_4  and  C22_33 
REMARK       I    between atoms: N1_5  and  C5_7 
REMARK       I    between atoms: C5_7  and  N2_9 
REMARK    4  A    between atoms: N2_9  and  C6_11 
REMARK    5  A    between atoms: C6_11  and  C7_12 
REMARK    6  A    between atoms: C6_11  and  C18_29 
REMARK       I    between atoms: C7_12  and  N3_14 
REMARK    7  A    between atoms: C9_16  and  O3_17 
REMARK    8  A    between atoms: C9_16  and  N4_19 
REMARK    9  A    between atoms: C22_33  and  C23_35 
REMARK       I    between atoms: C23_35  and  N5_37 
REMARK   10  A    between atoms: N5_37  and  C24_39 
REMARK   11  A    between atoms: C25_40  and  O6_41 
REMARK   12  A    between atoms: O6_41  and  C26_42 
REMARK       I    between atoms: C26_42  and  N6_44 
ROOT
HETATM    1  N1  UNL     1       2.728  -1.316 -15.205  1.00  0.00    -0.331 N 
ATOM      2  H1  UNL     1       3.361  -1.344 -16.003  1.00  0.00     0.165 HD
HETATM    3  C5  UNL     1       3.189  -0.602 -14.076  1.00  0.00     0.317 C 
HETATM    4  O1  UNL     1       2.352  -0.565 -13.107  1.00  0.00    -0.247 OA
HETATM    5  N2  UNL     1       4.404   0.017 -13.965  1.00  0.00    -0.329 N 
ATOM      6  H2  UNL     1       4.983  -0.132 -14.792  1.00  0.00     0.165 HD
ENDROOT
BRANCH   1   7
HETATM    7  C4  UNL     1       1.493  -1.998 -15.367  1.00  0.00     0.169 C 
BRANCH   7   8
HETATM    8  C2  UNL     1       1.223  -2.431 -16.779  1.00  0.00     0.008 C 
HETATM    9  C1  UNL     1       0.068  -1.616 -17.391  1.00  0.00     0.012 C 
HETATM   10  C3  UNL     1       2.372  -2.428 -17.711  1.00  0.00     0.012 C 
ENDBRANCH   7   8
BRANCH   7  11
HETATM   11  C22 UNL     1       1.443  -3.129 -14.422  1.00  0.00     0.239 C 
HETATM   12  O4  UNL     1       2.288  -4.098 -14.593  1.00  0.00    -0.285 OA
BRANCH  11  13
HETATM   13  C23 UNL     1       0.559  -3.318 -13.306  1.00  0.00     0.291 C 
HETATM   14  O5  UNL     1       0.633  -4.334 -12.589  1.00  0.00    -0.264 OA
HETATM   15  N5  UNL     1      -0.428  -2.353 -12.979  1.00  0.00    -0.322 N 
ATOM     16  H5  UNL     1      -0.529  -1.522 -13.563  1.00  0.00     0.165 HD
BRANCH  15  17
HETATM   17  C24 UNL     1      -1.279  -2.520 -11.851  1.00  0.00     0.355 C 
HETATM   18  C25 UNL     1      -2.619  -3.151 -12.006  1.00  0.00     0.215 C 
HETATM   19  C31 UNL     1      -3.028  -1.816 -12.523  1.00  0.00     0.311 C 
HETATM   20  N7  UNL     1      -2.004  -1.234 -11.663  1.00  0.00     0.112 N 
HETATM   21  C32 UNL     1      -2.345  -1.096 -10.283  1.00  0.00     0.312 C 
BRANCH  18  22
HETATM   22  O6  UNL     1      -2.736  -4.255 -12.872  1.00  0.00    -0.293 OA
BRANCH  22  23
HETATM   23  C26 UNL     1      -3.810  -5.123 -12.683  1.00  0.00     0.363 C 
HETATM   24  O7  UNL     1      -3.825  -5.907 -11.702  1.00  0.00    -0.238 OA
HETATM   25  N6  UNL     1      -4.898  -5.143 -13.582  1.00  0.00    -0.324 N 
HETATM   26  C27 UNL     1      -4.960  -4.232 -14.734  1.00  0.00     0.154 C 
HETATM   27  C30 UNL     1      -6.020  -6.065 -13.443  1.00  0.00     0.154 C 
HETATM   28  C28 UNL     1      -6.350  -4.376 -15.320  1.00  0.00     0.187 C 
HETATM   29  O8  UNL     1      -6.660  -5.657 -15.713  1.00  0.00    -0.388 OA
HETATM   30  C29 UNL     1      -6.221  -6.633 -14.849  1.00  0.00     0.187 C 
ENDBRANCH  22  23
ENDBRANCH  18  22
ENDBRANCH  15  17
ENDBRANCH  11  13
ENDBRANCH   7  11
ENDBRANCH   1   7
BRANCH   5  31
HETATM   31  C6  UNL     1       5.074   0.826 -12.980  1.00  0.00     0.186 C 
BRANCH  31  32
HETATM   32  C7  UNL     1       6.482   0.395 -12.898  1.00  0.00     0.249 C 
HETATM   33  O2  UNL     1       7.337   0.839 -13.739  1.00  0.00    -0.271 OA
HETATM   34  N3  UNL     1       7.006  -0.542 -11.914  1.00  0.00    -0.296 N 
HETATM   35  C8  UNL     1       8.397  -0.798 -11.931  1.00  0.00     0.076 C 
HETATM   36  C15 UNL     1       6.236  -1.334 -11.036  1.00  0.00     0.082 C 
HETATM   37  C9  UNL     1       9.414  -0.062 -11.234  1.00  0.00     0.162 C 
HETATM   38  C14 UNL     1       8.642  -2.300 -11.706  1.00  0.00     0.138 C 
HETATM   39  S1  UNL     1       7.520  -2.498 -10.298  1.00  0.00    -0.132 SA
HETATM   40  C16 UNL     1       5.315  -2.353 -11.756  1.00  0.00     0.051 C 
HETATM   41  C17 UNL     1       5.427  -0.791  -9.933  1.00  0.00     0.051 C 
BRANCH  37  42
HETATM   42  O3  UNL     1      10.629  -0.154 -11.824  1.00  0.00    -0.345 OA
ATOM     43  H3  UNL     1      11.329  -0.323 -11.204  1.00  0.00     0.219 HD
ENDBRANCH  37  42
BRANCH  37  44
HETATM   44  N4  UNL     1       9.507   0.732 -10.098  1.00  0.00    -0.360 N 
HETATM   45  C10 UNL     1      10.721   1.508  -9.740  1.00  0.00     0.125 C 
HETATM   46  C11 UNL     1      10.708   1.399  -8.221  1.00  0.00     0.021 C 
HETATM   47  C12 UNL     1       9.260   1.780  -7.960  1.00  0.00     0.021 C 
HETATM   48  C13 UNL     1       8.578   0.965  -9.053  1.00  0.00     0.125 C 
ENDBRANCH  37  44
ENDBRANCH  31  32
BRANCH  31  49
HETATM   49  C18 UNL     1       4.881   2.271 -13.382  1.00  0.00    -0.022 C 
HETATM   50  C19 UNL     1       3.396   2.658 -13.205  1.00  0.00     0.017 C 
HETATM   51  C20 UNL     1       5.700   3.166 -12.522  1.00  0.00     0.017 C 
HETATM   52  C21 UNL     1       5.196   2.528 -14.812  1.00  0.00     0.017 C 
ENDBRANCH  31  49
ENDBRANCH   5  31
TORSDOF 12
ENDMDL
MODEL 5
REMARK VINA RESULT: -9.112954472      1.121      1.527
REMARK  12 active torsions:
REMARK  status: ('A' for Active; 'I' for Inactive)
REMARK    1  A    between atoms: C2_2  and  C4_4 
REMARK    2  A    between atoms: C4_4  and  N1_5 
REMARK    3  A    between atoms: C4_4  and  C22_33 
REMARK       I    between atoms: N1_5  and  C5_7 
REMARK       I    between atoms: C5_7  and  N2_9 
REMARK    4  A    between atoms: N2_9  and  C6_11 
REMARK    5  A    between atoms: C6_11  and  C7_12 
REMARK    6  A    between atoms: C6_11  and  C18_29 
REMARK       I    between atoms: C7_12  and  N3_14 
REMARK    7  A    between atoms: C9_16  and  O3_17 
REMARK    8  A    between atoms: C9_16  and  N4_19 
REMARK    9  A    between atoms: C22_33  and  C23_35 
REMARK       I    between atoms: C23_35  and  N5_37 
REMARK   10  A    between atoms: N5_37  and  C24_39 
REMARK   11  A    between atoms: C25_40  and  O6_41 
REMARK   12  A    between atoms: O6_41  and  C26_42 
REMARK       I    between atoms: C26_42  and  N6_44 
ROOT
HETATM    1  N1  UNL     1       4.440   0.170 -13.008  1.00  0.00    -0.331 N 
ATOM      2  H1  UNL     1       4.110   1.133 -12.961  1.00  0.00     0.165 HD
HETATM    3  C5  UNL     1       5.718  -0.072 -12.455  1.00  0.00     0.317 C 
HETATM    4  O1  UNL     1       6.083  -1.299 -12.506  1.00  0.00    -0.247 OA
HETATM    5  N2  UNL     1       6.538   0.871 -11.899  1.00  0.00    -0.329 N 
ATOM      6  H2  UNL     1       6.140   1.808 -11.967  1.00  0.00     0.165 HD
ENDROOT
BRANCH   1   7
HETATM    7  C4  UNL     1       3.558  -0.760 -13.619  1.00  0.00     0.169 C 
BRANCH   7   8
HETATM    8  C2  UNL     1       2.404  -1.161 -12.747  1.00  0.00     0.008 C 
HETATM    9  C1  UNL     1       2.900  -1.867 -11.471  1.00  0.00     0.012 C 
HETATM   10  C3  UNL     1       1.444  -0.097 -12.377  1.00  0.00     0.012 C 
ENDBRANCH   7   8
BRANCH   7  11
HETATM   11  C22 UNL     1       3.111  -0.216 -14.915  1.00  0.00     0.239 C 
HETATM   12  O4  UNL     1       3.642   0.897 -15.319  1.00  0.00    -0.285 OA
BRANCH  11  13
HETATM   13  C23 UNL     1       2.136  -0.758 -15.819  1.00  0.00     0.291 C 
HETATM   14  O5  UNL     1       1.771  -0.126 -16.828  1.00  0.00    -0.264 OA
HETATM   15  N5  UNL     1       1.557  -2.034 -15.597  1.00  0.00    -0.322 N 
ATOM     16  H5  UNL     1       1.818  -2.564 -14.765  1.00  0.00     0.165 HD
BRANCH  15  17
HETATM   17  C24 UNL     1       0.620  -2.589 -16.512  1.00  0.00     0.355 C 
HETATM   18  C25 UNL     1      -0.097  -3.852 -16.183  1.00  0.00     0.215 C 
HETATM   19  C31 UNL     1       1.176  -4.510 -16.587  1.00  0.00     0.311 C 
HETATM   20  N7  UNL     1       1.399  -3.390 -17.495  1.00  0.00     0.112 N 
HETATM   21  C32 UNL     1       0.682  -3.428 -18.729  1.00  0.00     0.312 C 
BRANCH  18  22
HETATM   22  O6  UNL     1      -0.541  -4.037 -14.860  1.00  0.00    -0.293 OA
BRANCH  22  23
HETATM   23  C26 UNL     1      -1.903  -4.252 -14.652  1.00  0.00     0.363 C 
HETATM   24  O7  UNL     1      -2.498  -5.175 -15.259  1.00  0.00    -0.238 OA
HETATM   25  N6  UNL     1      -2.639  -3.444 -13.759  1.00  0.00    -0.324 N 
HETATM   26  C27 UNL     1      -2.001  -2.366 -12.992  1.00  0.00     0.154 C 
HETATM   27  C30 UNL     1      -4.074  -3.609 -13.546  1.00  0.00     0.154 C 
HETATM   28  C28 UNL     1      -3.030  -1.884 -11.989  1.00  0.00     0.187 C 
HETATM   29  O8  UNL     1      -4.196  -1.431 -12.561  1.00  0.00    -0.388 OA
HETATM   30  C29 UNL     1      -4.635  -2.188 -13.622  1.00  0.00     0.187 C 
ENDBRANCH  22  23
ENDBRANCH  18  22
ENDBRANCH  15  17
ENDBRANCH  11  13
ENDBRANCH   7  11
ENDBRANCH   1   7
BRANCH   5  31
HETATM   31  C6  UNL     1       7.820   0.879 -11.242  1.00  0.00     0.186 C 
BRANCH  31  32
HETATM   32  C7  UNL     1       8.614   2.002 -11.778  1.00  0.00     0.249 C 
HETATM   33  O2  UNL     1       8.188   3.202 -11.655  1.00  0.00    -0.271 OA
HETATM   34  N3  UNL     1       9.885   1.860 -12.473  1.00  0.00    -0.296 N 
HETATM   35  C8  UNL     1      10.552   3.045 -12.864  1.00  0.00     0.076 C 
HETATM   36  C15 UNL     1      10.447   0.649 -12.929  1.00  0.00     0.082 C 
HETATM   37  C9  UNL     1      11.482   3.805 -12.077  1.00  0.00     0.162 C 
HETATM   38  C14 UNL     1      11.141   2.858 -14.273  1.00  0.00     0.138 C 
HETATM   39  S1  UNL     1      11.894   1.236 -13.983  1.00  0.00    -0.132 SA
HETATM   40  C16 UNL     1       9.592  -0.075 -14.001  1.00  0.00     0.051 C 
HETATM   41  C17 UNL     1      10.936  -0.417 -12.038  1.00  0.00     0.051 C 
BRANCH  37  42
HETATM   42  O3  UNL     1      11.541   5.107 -12.442  1.00  0.00    -0.345 OA
ATOM     43  H3  UNL     1      11.709   5.690 -11.711  1.00  0.00     0.219 HD
ENDBRANCH  37  42
BRANCH  37  44
HETATM   44  N4  UNL     1      12.364   3.575 -11.029  1.00  0.00    -0.360 N 
HETATM   45  C10 UNL     1      13.798   3.960 -11.068  1.00  0.00     0.125 C 
HETATM   46  C11 UNL     1      14.435   2.815 -10.291  1.00  0.00     0.021 C 
HETATM   47  C12 UNL     1      13.517   2.798  -9.081  1.00  0.00     0.021 C 
HETATM   48  C13 UNL     1      12.169   2.940  -9.777  1.00  0.00     0.125 C 
ENDBRANCH  37  44
ENDBRANCH  31  32
BRANCH  31  49
HETATM   49  C18 UNL     1       7.559   0.946  -9.755  1.00  0.00    -0.022 C 
HETATM   50  C19 UNL     1       7.137  -0.450  -9.245  1.00  0.00     0.017 C 
HETATM   51  C20 UNL     1       8.789   1.353  -9.026  1.00  0.00     0.017 C 
HETATM   52  C21 UNL     1       6.442   1.860  -9.397  1.00  0.00     0.017 C 
ENDBRANCH  31  49
ENDBRANCH   5  31
TORSDOF 12
ENDMDL
