MODEL 1
REMARK VINA RESULT: -8.194498274      0.000      0.000
REMARK  7 active torsions:
REMARK  status: ('A' for Active; 'I' for Inactive)
REMARK    1  A    between atoms: C10_10  and  C11_11 
REMARK    2  A    between atoms: C11_11  and  N1_12 
REMARK       I    between atoms: N1_12  and  C12_14 
REMARK    3  A    between atoms: C12_14  and  C13_16 
REMARK    4  A    between atoms: C13_16  and  C14_17 
REMARK    5  A    between atoms: C14_17  and  C15_18 
REMARK    6  A    between atoms: C15_18  and  S1_19 
REMARK    7  A    between atoms: S1_19  and  N2_21 
ROOT
HETATM    1  C11 UNL     1      -6.351  24.511   5.213  1.00  0.00     0.132 C 
ENDROOT
BRANCH   1   2
HETATM    2  C10 UNL     1      -7.705  24.254   4.672  1.00  0.00    -0.023 C 
HETATM    3  C9  UNL     1      -8.369  25.438   4.051  1.00  0.00     0.016 C 
HETATM    4  C8  UNL     1      -9.741  25.066   3.563  1.00  0.00    -0.005 C 
HETATM    5  C2  UNL     1      -9.721  23.977   2.526  1.00  0.00    -0.040 C 
HETATM    6  C7  UNL     1     -10.544  24.600   4.744  1.00  0.00     0.010 C 
HETATM    7  C1  UNL     1     -11.133  23.578   2.211  1.00  0.00     0.015 C 
HETATM    8  C3  UNL     1      -9.062  24.406   1.239  1.00  0.00     0.015 C 
HETATM    9  C4  UNL     1      -9.005  22.785   3.124  1.00  0.00    -0.005 C 
HETATM   10  C5  UNL     1      -9.736  22.264   4.318  1.00  0.00     0.010 C 
HETATM   11  C18 UNL     1      -7.606  23.180   3.581  1.00  0.00     0.016 C 
HETATM   12  C6  UNL     1      -9.930  23.355   5.326  1.00  0.00    -0.013 C 
HETATM   13  C17 UNL     1      -8.552  23.735   5.841  1.00  0.00     0.015 C 
ENDBRANCH   1   2
BRANCH   1  14
HETATM   14  N1  UNL     1      -6.323  24.962   6.580  1.00  0.00    -0.360 N 
HETATM   15  C12 UNL     1      -5.149  25.582   7.073  1.00  0.00     0.217 C 
HETATM   16  O1  UNL     1      -4.161  25.722   6.302  1.00  0.00    -0.274 OA
ATOM     17  H1  UNL     1      -7.135  24.837   7.184  1.00  0.00     0.162 HD
BRANCH  15  18
HETATM   18  C13 UNL     1      -5.091  26.049   8.458  1.00  0.00     0.103 C 
BRANCH  18  19
HETATM   19  C14 UNL     1      -4.126  27.121   8.770  1.00  0.00     0.023 C 
BRANCH  19  20
HETATM   20  C15 UNL     1      -4.598  28.171   9.742  1.00  0.00     0.117 C 
BRANCH  20  21
HETATM   21  S1  UNL     1      -4.145  29.818   9.106  1.00  0.00     0.015 S 
HETATM   22  C16 UNL     1      -5.392  30.972   9.702  1.00  0.00     0.136 C 
HETATM   23  O2  UNL     1      -4.179  29.838   7.419  1.00  0.00    -0.251 OA
BRANCH  21  24
HETATM   24  N2  UNL     1      -2.560  30.253   9.669  1.00  0.00    -0.360 N 
ATOM     25  H22 UNL     1      -1.804  29.587   9.825  1.00  0.00     0.165 HD
ATOM     26  H21 UNL     1      -2.509  31.260   9.814  1.00  0.00     0.165 HD
ENDBRANCH  21  24
ENDBRANCH  20  21
ENDBRANCH  19  20
ENDBRANCH  18  19
ENDBRANCH  15  18
ENDBRANCH   1  14
TORSDOF 7
ENDMDL
MODEL 2
REMARK VINA RESULT: -7.726202348      6.064      8.324
REMARK  7 active torsions:
REMARK  status: ('A' for Active; 'I' for Inactive)
REMARK    1  A    between atoms: C10_10  and  C11_11 
REMARK    2  A    between atoms: C11_11  and  N1_12 
REMARK       I    between atoms: N1_12  and  C12_14 
REMARK    3  A    between atoms: C12_14  and  C13_16 
REMARK    4  A    between atoms: C13_16  and  C14_17 
REMARK    5  A    between atoms: C14_17  and  C15_18 
REMARK    6  A    between atoms: C15_18  and  S1_19 
REMARK    7  A    between atoms: S1_19  and  N2_21 
ROOT
HETATM    1  C11 UNL     1      -7.542  23.326   0.618  1.00  0.00     0.132 C 
ENDROOT
BRANCH   1   2
HETATM    2  C10 UNL     1      -8.317  23.650   1.837  1.00  0.00    -0.023 C 
HETATM    3  C9  UNL     1      -9.690  23.066   1.882  1.00  0.00     0.016 C 
HETATM    4  C8  UNL     1     -10.388  23.482   3.148  1.00  0.00    -0.005 C 
HETATM    5  C2  UNL     1      -9.674  23.026   4.390  1.00  0.00    -0.040 C 
HETATM    6  C7  UNL     1     -10.477  24.982   3.158  1.00  0.00     0.010 C 
HETATM    7  C1  UNL     1     -10.364  23.608   5.589  1.00  0.00     0.015 C 
HETATM    8  C3  UNL     1      -9.666  21.525   4.542  1.00  0.00     0.015 C 
HETATM    9  C4  UNL     1      -8.262  23.568   4.334  1.00  0.00    -0.005 C 
HETATM   10  C5  UNL     1      -8.261  25.061   4.330  1.00  0.00     0.010 C 
HETATM   11  C18 UNL     1      -7.566  23.107   3.060  1.00  0.00     0.016 C 
HETATM   12  C6  UNL     1      -9.096  25.580   3.200  1.00  0.00    -0.013 C 
HETATM   13  C17 UNL     1      -8.397  25.180   1.911  1.00  0.00     0.015 C 
ENDBRANCH   1   2
BRANCH   1  14
HETATM   14  N1  UNL     1      -8.330  23.189  -0.579  1.00  0.00    -0.360 N 
HETATM   15  C12 UNL     1      -7.710  22.703  -1.756  1.00  0.00     0.217 C 
HETATM   16  O1  UNL     1      -6.485  22.404  -1.723  1.00  0.00    -0.274 OA
ATOM     17  H1  UNL     1      -9.318  23.439  -0.580  1.00  0.00     0.162 HD
BRANCH  15  18
HETATM   18  C13 UNL     1      -8.485  22.555  -2.987  1.00  0.00     0.103 C 
BRANCH  18  19
HETATM   19  C14 UNL     1      -9.218  23.740  -3.470  1.00  0.00     0.023 C 
BRANCH  19  20
HETATM   20  C15 UNL     1      -8.373  24.857  -4.026  1.00  0.00     0.117 C 
BRANCH  20  21
HETATM   21  S1  UNL     1      -8.272  26.197  -2.793  1.00  0.00     0.015 S 
HETATM   22  C16 UNL     1      -6.528  26.428  -2.411  1.00  0.00     0.136 C 
HETATM   23  O2  UNL     1      -9.065  25.760  -1.369  1.00  0.00    -0.251 OA
BRANCH  21  24
HETATM   24  N2  UNL     1      -8.976  27.647  -3.439  1.00  0.00    -0.360 N 
ATOM     25  H22 UNL     1      -9.039  27.861  -4.434  1.00  0.00     0.165 HD
ATOM     26  H21 UNL     1      -9.309  28.239  -2.678  1.00  0.00     0.165 HD
ENDBRANCH  21  24
ENDBRANCH  20  21
ENDBRANCH  19  20
ENDBRANCH  18  19
ENDBRANCH  15  18
ENDBRANCH   1  14
TORSDOF 7
ENDMDL
MODEL 3
REMARK VINA RESULT: -7.673230259      2.242      3.372
REMARK  7 active torsions:
REMARK  status: ('A' for Active; 'I' for Inactive)
REMARK    1  A    between atoms: C10_10  and  C11_11 
REMARK    2  A    between atoms: C11_11  and  N1_12 
REMARK       I    between atoms: N1_12  and  C12_14 
REMARK    3  A    between atoms: C12_14  and  C13_16 
REMARK    4  A    between atoms: C13_16  and  C14_17 
REMARK    5  A    between atoms: C14_17  and  C15_18 
REMARK    6  A    between atoms: C15_18  and  S1_19 
REMARK    7  A    between atoms: S1_19  and  N2_21 
ROOT
HETATM    1  C11 UNL     1      -6.432  22.837   4.909  1.00  0.00     0.132 C 
ENDROOT
BRANCH   1   2
HETATM    2  C10 UNL     1      -7.803  23.194   4.477  1.00  0.00    -0.023 C 
HETATM    3  C9  UNL     1      -8.858  22.208   4.859  1.00  0.00     0.016 C 
HETATM    4  C8  UNL     1     -10.197  22.660   4.349  1.00  0.00    -0.005 C 
HETATM    5  C2  UNL     1     -10.619  23.994   4.902  1.00  0.00    -0.040 C 
HETATM    6  C7  UNL     1     -10.116  22.756   2.851  1.00  0.00     0.010 C 
HETATM    7  C1  UNL     1     -11.889  24.422   4.227  1.00  0.00     0.015 C 
HETATM    8  C3  UNL     1     -10.872  23.957   6.388  1.00  0.00     0.015 C 
HETATM    9  C4  UNL     1      -9.533  24.994   4.567  1.00  0.00    -0.005 C 
HETATM   10  C5  UNL     1      -9.379  25.142   3.088  1.00  0.00     0.010 C 
HETATM   11  C18 UNL     1      -8.193  24.530   5.122  1.00  0.00     0.016 C 
HETATM   12  C6  UNL     1      -9.115  23.810   2.456  1.00  0.00    -0.013 C 
HETATM   13  C17 UNL     1      -7.756  23.344   2.952  1.00  0.00     0.015 C 
ENDBRANCH   1   2
BRANCH   1  14
HETATM   14  N1  UNL     1      -6.121  23.179   6.273  1.00  0.00    -0.360 N 
HETATM   15  C12 UNL     1      -5.301  22.305   7.028  1.00  0.00     0.217 C 
HETATM   16  O1  UNL     1      -4.866  21.253   6.485  1.00  0.00    -0.274 OA
ATOM     17  H1  UNL     1      -6.486  24.035   6.689  1.00  0.00     0.162 HD
BRANCH  15  18
HETATM   18  C13 UNL     1      -4.970  22.626   8.416  1.00  0.00     0.103 C 
BRANCH  18  19
HETATM   19  C14 UNL     1      -3.774  23.458   8.651  1.00  0.00     0.023 C 
BRANCH  19  20
HETATM   20  C15 UNL     1      -4.008  24.758   9.377  1.00  0.00     0.117 C 
BRANCH  20  21
HETATM   21  S1  UNL     1      -4.615  26.002   8.190  1.00  0.00     0.015 S 
HETATM   22  C16 UNL     1      -4.387  27.614   8.958  1.00  0.00     0.136 C 
HETATM   23  O2  UNL     1      -6.263  25.793   7.895  1.00  0.00    -0.251 OA
BRANCH  21  24
HETATM   24  N2  UNL     1      -3.729  25.879   6.702  1.00  0.00    -0.360 N 
ATOM     25  H22 UNL     1      -4.153  25.929   5.776  1.00  0.00     0.165 HD
ATOM     26  H21 UNL     1      -2.737  25.751   6.898  1.00  0.00     0.165 HD
ENDBRANCH  21  24
ENDBRANCH  20  21
ENDBRANCH  19  20
ENDBRANCH  18  19
ENDBRANCH  15  18
ENDBRANCH   1  14
TORSDOF 7
ENDMDL
MODEL 4
REMARK VINA RESULT: -7.664899666      1.546      2.564
REMARK  7 active torsions:
REMARK  status: ('A' for Active; 'I' for Inactive)
REMARK    1  A    between atoms: C10_10  and  C11_11 
REMARK    2  A    between atoms: C11_11  and  N1_12 
REMARK       I    between atoms: N1_12  and  C12_14 
REMARK    3  A    between atoms: C12_14  and  C13_16 
REMARK    4  A    between atoms: C13_16  and  C14_17 
REMARK    5  A    between atoms: C14_17  and  C15_18 
REMARK    6  A    between atoms: C15_18  and  S1_19 
REMARK    7  A    between atoms: S1_19  and  N2_21 
ROOT
HETATM    1  C11 UNL     1      -6.537  22.899   5.434  1.00  0.00     0.132 C 
ENDROOT
BRANCH   1   2
HETATM    2  C10 UNL     1      -7.830  23.215   4.785  1.00  0.00    -0.023 C 
HETATM    3  C9  UNL     1      -8.921  22.230   5.045  1.00  0.00     0.016 C 
HETATM    4  C8  UNL     1     -10.172  22.639   4.318  1.00  0.00    -0.005 C 
HETATM    5  C2  UNL     1     -10.685  23.988   4.742  1.00  0.00    -0.040 C 
HETATM    6  C7  UNL     1      -9.865  22.674   2.848  1.00  0.00     0.010 C 
HETATM    7  C1  UNL     1     -11.842  24.367   3.865  1.00  0.00     0.015 C 
HETATM    8  C3  UNL     1     -11.160  24.009   6.173  1.00  0.00     0.015 C 
HETATM    9  C4  UNL     1      -9.570  24.990   4.533  1.00  0.00    -0.005 C 
HETATM   10  C5  UNL     1      -9.194  25.079   3.090  1.00  0.00     0.010 C 
HETATM   11  C18 UNL     1      -8.326  24.571   5.304  1.00  0.00     0.016 C 
HETATM   12  C6  UNL     1      -8.825  23.726   2.564  1.00  0.00    -0.013 C 
HETATM   13  C17 UNL     1      -7.553  23.302   3.279  1.00  0.00     0.015 C 
ENDBRANCH   1   2
BRANCH   1  14
HETATM   14  N1  UNL     1      -5.693  24.038   5.684  1.00  0.00    -0.360 N 
HETATM   15  C12 UNL     1      -4.983  24.110   6.907  1.00  0.00     0.217 C 
HETATM   16  O1  UNL     1      -5.109  23.174   7.744  1.00  0.00    -0.274 OA
ATOM     17  H1  UNL     1      -5.608  24.782   4.992  1.00  0.00     0.162 HD
BRANCH  15  18
HETATM   18  C13 UNL     1      -4.118  25.256   7.188  1.00  0.00     0.103 C 
BRANCH  18  19
HETATM   19  C14 UNL     1      -4.502  26.131   8.312  1.00  0.00     0.023 C 
BRANCH  19  20
HETATM   20  C15 UNL     1      -4.461  27.613   8.038  1.00  0.00     0.117 C 
BRANCH  20  21
HETATM   21  S1  UNL     1      -4.040  28.492   9.578  1.00  0.00     0.015 S 
HETATM   22  C16 UNL     1      -5.327  29.722   9.849  1.00  0.00     0.136 C 
HETATM   23  O2  UNL     1      -2.568  29.303   9.421  1.00  0.00    -0.251 OA
BRANCH  21  24
HETATM   24  N2  UNL     1      -3.954  27.365  10.896  1.00  0.00    -0.360 N 
ATOM     25  H22 UNL     1      -4.212  26.381  10.828  1.00  0.00     0.165 HD
ATOM     26  H21 UNL     1      -3.612  27.836  11.733  1.00  0.00     0.165 HD
ENDBRANCH  21  24
ENDBRANCH  20  21
ENDBRANCH  19  20
ENDBRANCH  18  19
ENDBRANCH  15  18
ENDBRANCH   1  14
TORSDOF 7
ENDMDL
MODEL 5
REMARK VINA RESULT: -7.587158315      2.653      3.655
REMARK  7 active torsions:
REMARK  status: ('A' for Active; 'I' for Inactive)
REMARK    1  A    between atoms: C10_10  and  C11_11 
REMARK    2  A    between atoms: C11_11  and  N1_12 
REMARK       I    between atoms: N1_12  and  C12_14 
REMARK    3  A    between atoms: C12_14  and  C13_16 
REMARK    4  A    between atoms: C13_16  and  C14_17 
REMARK    5  A    between atoms: C14_17  and  C15_18 
REMARK    6  A    between atoms: C15_18  and  S1_19 
REMARK    7  A    between atoms: S1_19  and  N2_21 
ROOT
HETATM    1  C11 UNL     1      -6.431  24.913   5.072  1.00  0.00     0.132 C 
ENDROOT
BRANCH   1   2
HETATM    2  C10 UNL     1      -7.750  24.476   4.557  1.00  0.00    -0.023 C 
HETATM    3  C9  UNL     1      -8.504  25.517   3.798  1.00  0.00     0.016 C 
HETATM    4  C8  UNL     1      -9.831  24.971   3.349  1.00  0.00    -0.005 C 
HETATM    5  C2  UNL     1      -9.699  23.775   2.446  1.00  0.00    -0.040 C 
HETATM    6  C7  UNL     1     -10.609  24.575   4.572  1.00  0.00     0.010 C 
HETATM    7  C1  UNL     1     -11.066  23.219   2.172  1.00  0.00     0.015 C 
HETATM    8  C3  UNL     1      -9.060  24.110   1.122  1.00  0.00     0.015 C 
HETATM    9  C4  UNL     1      -8.891  22.729   3.183  1.00  0.00    -0.005 C 
HETATM   10  C5  UNL     1      -9.593  22.287   4.425  1.00  0.00     0.010 C 
HETATM   11  C18 UNL     1      -7.540  23.296   3.599  1.00  0.00     0.016 C 
HETATM   12  C6  UNL     1      -9.897  23.465   5.299  1.00  0.00    -0.013 C 
HETATM   13  C17 UNL     1      -8.566  24.022   5.774  1.00  0.00     0.015 C 
ENDBRANCH   1   2
BRANCH   1  14
HETATM   14  N1  UNL     1      -6.392  25.172   6.487  1.00  0.00    -0.360 N 
HETATM   15  C12 UNL     1      -5.178  25.610   7.070  1.00  0.00     0.217 C 
HETATM   16  O1  UNL     1      -4.165  25.759   6.334  1.00  0.00    -0.274 OA
ATOM     17  H1  UNL     1      -7.225  25.043   7.061  1.00  0.00     0.162 HD
BRANCH  15  18
HETATM   18  C13 UNL     1      -5.109  25.880   8.506  1.00  0.00     0.103 C 
BRANCH  18  19
HETATM   19  C14 UNL     1      -4.484  24.850   9.358  1.00  0.00     0.023 C 
BRANCH  19  20
HETATM   20  C15 UNL     1      -5.086  23.470   9.273  1.00  0.00     0.117 C 
BRANCH  20  21
HETATM   21  S1  UNL     1      -4.029  22.425   8.218  1.00  0.00     0.015 S 
HETATM   22  C16 UNL     1      -5.015  21.963   6.783  1.00  0.00     0.136 C 
HETATM   23  O2  UNL     1      -3.590  21.010   9.026  1.00  0.00    -0.251 OA
BRANCH  21  24
HETATM   24  N2  UNL     1      -2.606  23.303   7.751  1.00  0.00    -0.360 N 
ATOM     25  H22 UNL     1      -2.038  23.858   8.392  1.00  0.00     0.165 HD
ATOM     26  H21 UNL     1      -2.433  23.179   6.754  1.00  0.00     0.165 HD
ENDBRANCH  21  24
ENDBRANCH  20  21
ENDBRANCH  19  20
ENDBRANCH  18  19
ENDBRANCH  15  18
ENDBRANCH   1  14
TORSDOF 7
ENDMDL
