MODEL 1
REMARK VINA RESULT: -6.508460330      0.000      0.000
REMARK  8 active torsions:
REMARK  status: ('A' for Active; 'I' for Inactive)
REMARK    1  A    between atoms: C2_2  and  C3_3 
REMARK    2  A    between atoms: C4_4  and  C5_5 
REMARK    3  A    between atoms: C6_6  and  C7_7 
REMARK    4  A    between atoms: C7_7  and  C8_8 
REMARK    5  A    between atoms: C8_8  and  N1_9 
REMARK    6  A    between atoms: N1_9  and  C9_10 
REMARK    7  A    between atoms: N1_9  and  C11_12 
REMARK    8  A    between atoms: N1_9  and  C13_14 
ROOT
HETATM    1  C3  UNL     1      -4.170  29.725  10.634  1.00  0.00    -0.022 A 
HETATM    2  C4  UNL     1      -4.069  28.315  10.581  1.00  0.00     0.025 A 
HETATM    3  C15 UNL     1      -3.889  27.641  11.747  1.00  0.00     0.023 A 
HETATM    4  C16 UNL     1      -3.803  28.262  12.961  1.00  0.00     0.032 A 
HETATM    5  C17 UNL     1      -3.904  29.627  12.990  1.00  0.00     0.052 A 
HETATM    6  N2  UNL     1      -3.840  30.285  14.166  1.00  0.00    -0.308 N 
ATOM      7  H2  UNL     1      -3.703  29.757  15.027  1.00  0.00     0.170 HD
HETATM    8  C18 UNL     1      -3.952  31.619  14.225  1.00  0.00     0.327 A 
HETATM    9  O1  UNL     1      -3.888  32.219  15.333  1.00  0.00    -0.247 OA
HETATM   10  N3  UNL     1      -4.131  32.361  13.126  1.00  0.00    -0.275 N 
ATOM     11  H3  UNL     1      -4.212  33.375  13.198  1.00  0.00     0.173 HD
HETATM   12  C19 UNL     1      -4.204  31.762  11.925  1.00  0.00     0.262 A 
HETATM   13  O2  UNL     1      -4.375  32.485  10.936  1.00  0.00    -0.267 OA
HETATM   14  C20 UNL     1      -4.093  30.401  11.823  1.00  0.00     0.067 A 
ENDROOT
BRANCH   2  15
HETATM   15  C5  UNL     1      -4.160  27.680   9.300  1.00  0.00    -0.066 C 
HETATM   16  C6  UNL     1      -4.262  27.136   8.204  1.00  0.00    -0.099 C 
BRANCH  16  17
HETATM   17  C7  UNL     1      -4.401  26.469   6.905  1.00  0.00     0.122 C 
BRANCH  17  18
HETATM   18  C8  UNL     1      -4.025  25.034   7.078  1.00  0.00     0.249 C 
BRANCH  18  19
HETATM   19  N1  UNL     1      -5.147  24.141   7.229  1.00  0.00    -0.067 N 
BRANCH  19  20
HETATM   20  C9  UNL     1      -4.940  23.044   6.295  1.00  0.00     0.233 C 
HETATM   21  C10 UNL     1      -4.813  21.705   6.938  1.00  0.00     0.035 C 
ENDBRANCH  19  20
BRANCH  19  22
HETATM   22  C11 UNL     1      -6.357  24.808   6.867  1.00  0.00     0.233 C 
HETATM   23  C12 UNL     1      -7.104  24.116   5.751  1.00  0.00     0.035 C 
ENDBRANCH  19  22
BRANCH  19  24
HETATM   24  C13 UNL     1      -5.185  23.542   8.542  1.00  0.00     0.233 C 
HETATM   25  C14 UNL     1      -4.180  24.034   9.511  1.00  0.00     0.035 C 
ENDBRANCH  19  24
ENDBRANCH  18  19
ENDBRANCH  17  18
ENDBRANCH  16  17
ENDBRANCH   2  15
BRANCH   1  26
HETATM   26  C2  UNL     1      -4.366  30.409   9.358  1.00  0.00     0.036 C 
HETATM   27  C1  UNL     1      -3.043  30.786   8.725  1.00  0.00     0.010 C 
ENDBRANCH   1  26
TORSDOF 8
ENDMDL
MODEL 2
REMARK VINA RESULT: -6.478209722      0.085      1.610
REMARK  8 active torsions:
REMARK  status: ('A' for Active; 'I' for Inactive)
REMARK    1  A    between atoms: C2_2  and  C3_3 
REMARK    2  A    between atoms: C4_4  and  C5_5 
REMARK    3  A    between atoms: C6_6  and  C7_7 
REMARK    4  A    between atoms: C7_7  and  C8_8 
REMARK    5  A    between atoms: C8_8  and  N1_9 
REMARK    6  A    between atoms: N1_9  and  C9_10 
REMARK    7  A    between atoms: N1_9  and  C11_12 
REMARK    8  A    between atoms: N1_9  and  C13_14 
ROOT
HETATM    1  C3  UNL     1      -4.149  29.768  10.670  1.00  0.00    -0.022 A 
HETATM    2  C4  UNL     1      -4.074  28.356  10.616  1.00  0.00     0.025 A 
HETATM    3  C15 UNL     1      -3.899  27.679  11.781  1.00  0.00     0.023 A 
HETATM    4  C16 UNL     1      -3.796  28.298  12.994  1.00  0.00     0.032 A 
HETATM    5  C17 UNL     1      -3.872  29.664  13.024  1.00  0.00     0.052 A 
HETATM    6  N2  UNL     1      -3.790  30.321  14.199  1.00  0.00    -0.308 N 
ATOM      7  H2  UNL     1      -3.658  29.790  15.060  1.00  0.00     0.170 HD
HETATM    8  C18 UNL     1      -3.877  31.657  14.260  1.00  0.00     0.327 A 
HETATM    9  O1  UNL     1      -3.797  32.255  15.367  1.00  0.00    -0.247 OA
HETATM   10  N3  UNL     1      -4.050  32.401  13.161  1.00  0.00    -0.275 N 
ATOM     11  H3  UNL     1      -4.112  33.417  13.234  1.00  0.00     0.173 HD
HETATM   12  C19 UNL     1      -4.140  31.804  11.961  1.00  0.00     0.262 A 
HETATM   13  O2  UNL     1      -4.303  32.531  10.973  1.00  0.00    -0.267 OA
HETATM   14  C20 UNL     1      -4.053  30.441  11.859  1.00  0.00     0.067 A 
ENDROOT
BRANCH   2  15
HETATM   15  C5  UNL     1      -4.183  27.723   9.335  1.00  0.00    -0.066 C 
HETATM   16  C6  UNL     1      -4.283  27.162   8.248  1.00  0.00    -0.099 C 
BRANCH  16  17
HETATM   17  C7  UNL     1      -4.391  26.470   6.958  1.00  0.00     0.122 C 
BRANCH  17  18
HETATM   18  C8  UNL     1      -3.974  25.051   7.158  1.00  0.00     0.249 C 
BRANCH  18  19
HETATM   19  N1  UNL     1      -5.068  24.118   7.259  1.00  0.00    -0.067 N 
BRANCH  19  20
HETATM   20  C9  UNL     1      -6.270  24.834   6.859  1.00  0.00     0.233 C 
HETATM   21  C10 UNL     1      -7.034  24.186   5.754  1.00  0.00     0.035 C 
ENDBRANCH  19  20
BRANCH  19  22
HETATM   22  C11 UNL     1      -5.233  23.698   8.614  1.00  0.00     0.233 C 
HETATM   23  C12 UNL     1      -4.033  24.007   9.479  1.00  0.00     0.035 C 
ENDBRANCH  19  22
BRANCH  19  24
HETATM   24  C13 UNL     1      -4.930  23.024   6.326  1.00  0.00     0.233 C 
HETATM   25  C14 UNL     1      -4.861  21.669   6.918  1.00  0.00     0.035 C 
ENDBRANCH  19  24
ENDBRANCH  18  19
ENDBRANCH  17  18
ENDBRANCH  16  17
ENDBRANCH   2  15
BRANCH   1  26
HETATM   26  C2  UNL     1      -4.340  30.456   9.395  1.00  0.00     0.036 C 
HETATM   27  C1  UNL     1      -3.013  30.788   8.744  1.00  0.00     0.010 C 
ENDBRANCH   1  26
TORSDOF 8
ENDMDL
MODEL 3
REMARK VINA RESULT: -6.425760986      0.090      1.606
REMARK  8 active torsions:
REMARK  status: ('A' for Active; 'I' for Inactive)
REMARK    1  A    between atoms: C2_2  and  C3_3 
REMARK    2  A    between atoms: C4_4  and  C5_5 
REMARK    3  A    between atoms: C6_6  and  C7_7 
REMARK    4  A    between atoms: C7_7  and  C8_8 
REMARK    5  A    between atoms: C8_8  and  N1_9 
REMARK    6  A    between atoms: N1_9  and  C9_10 
REMARK    7  A    between atoms: N1_9  and  C11_12 
REMARK    8  A    between atoms: N1_9  and  C13_14 
ROOT
HETATM    1  C3  UNL     1      -4.143  29.787  10.634  1.00  0.00    -0.022 A 
HETATM    2  C4  UNL     1      -4.069  28.374  10.597  1.00  0.00     0.025 A 
HETATM    3  C15 UNL     1      -3.903  27.711  11.772  1.00  0.00     0.023 A 
HETATM    4  C16 UNL     1      -3.807  28.344  12.978  1.00  0.00     0.032 A 
HETATM    5  C17 UNL     1      -3.882  29.711  12.991  1.00  0.00     0.052 A 
HETATM    6  N2  UNL     1      -3.807  30.382  14.159  1.00  0.00    -0.308 N 
ATOM      7  H2  UNL     1      -3.681  29.861  15.027  1.00  0.00     0.170 HD
HETATM    8  C18 UNL     1      -3.893  31.718  14.203  1.00  0.00     0.327 A 
HETATM    9  O1  UNL     1      -3.819  32.329  15.304  1.00  0.00    -0.247 OA
HETATM   10  N3  UNL     1      -4.058  32.450  13.095  1.00  0.00    -0.275 N 
ATOM     11  H3  UNL     1      -4.119  33.466  13.155  1.00  0.00     0.173 HD
HETATM   12  C19 UNL     1      -4.140  31.838  11.901  1.00  0.00     0.262 A 
HETATM   13  O2  UNL     1      -4.296  32.554  10.903  1.00  0.00    -0.267 OA
HETATM   14  C20 UNL     1      -4.054  30.475  11.815  1.00  0.00     0.067 A 
ENDROOT
BRANCH   2  15
HETATM   15  C5  UNL     1      -4.171  27.727   9.323  1.00  0.00    -0.066 C 
HETATM   16  C6  UNL     1      -4.270  27.155   8.241  1.00  0.00    -0.099 C 
BRANCH  16  17
HETATM   17  C7  UNL     1      -4.382  26.449   6.960  1.00  0.00     0.122 C 
BRANCH  17  18
HETATM   18  C8  UNL     1      -3.991  25.025   7.181  1.00  0.00     0.249 C 
BRANCH  18  19
HETATM   19  N1  UNL     1      -5.093  24.095   7.157  1.00  0.00    -0.067 N 
BRANCH  19  20
HETATM   20  C9  UNL     1      -5.212  23.547   8.499  1.00  0.00     0.233 C 
HETATM   21  C10 UNL     1      -4.188  24.047   9.461  1.00  0.00     0.035 C 
ENDBRANCH  19  20
BRANCH  19  22
HETATM   22  C11 UNL     1      -4.807  23.019   6.262  1.00  0.00     0.233 C 
HETATM   23  C12 UNL     1      -4.865  21.665   6.929  1.00  0.00     0.035 C 
ENDBRANCH  19  22
BRANCH  19  24
HETATM   24  C13 UNL     1      -6.348  24.757   6.886  1.00  0.00     0.233 C 
HETATM   25  C14 UNL     1      -7.117  24.244   5.730  1.00  0.00     0.035 C 
ENDBRANCH  19  24
ENDBRANCH  18  19
ENDBRANCH  17  18
ENDBRANCH  16  17
ENDBRANCH   2  15
BRANCH   1  26
HETATM   26  C2  UNL     1      -4.325  30.460   9.350  1.00  0.00     0.036 C 
HETATM   27  C1  UNL     1      -2.993  30.818   8.722  1.00  0.00     0.010 C 
ENDBRANCH   1  26
TORSDOF 8
ENDMDL
MODEL 4
REMARK VINA RESULT: -6.298112773      5.800      8.688
REMARK  8 active torsions:
REMARK  status: ('A' for Active; 'I' for Inactive)
REMARK    1  A    between atoms: C2_2  and  C3_3 
REMARK    2  A    between atoms: C4_4  and  C5_5 
REMARK    3  A    between atoms: C6_6  and  C7_7 
REMARK    4  A    between atoms: C7_7  and  C8_8 
REMARK    5  A    between atoms: C8_8  and  N1_9 
REMARK    6  A    between atoms: N1_9  and  C9_10 
REMARK    7  A    between atoms: N1_9  and  C11_12 
REMARK    8  A    between atoms: N1_9  and  C13_14 
ROOT
HETATM    1  C3  UNL     1      -6.127  23.775   5.652  1.00  0.00    -0.022 A 
HETATM    2  C4  UNL     1      -6.319  25.131   5.297  1.00  0.00     0.025 A 
HETATM    3  C15 UNL     1      -5.637  26.079   5.993  1.00  0.00     0.023 A 
HETATM    4  C16 UNL     1      -4.778  25.780   7.013  1.00  0.00     0.032 A 
HETATM    5  C17 UNL     1      -4.606  24.462   7.338  1.00  0.00     0.052 A 
HETATM    6  N2  UNL     1      -3.758  24.115   8.329  1.00  0.00    -0.308 N 
ATOM      7  H2  UNL     1      -3.259  24.845   8.837  1.00  0.00     0.170 HD
HETATM    8  C18 UNL     1      -3.558  22.832   8.658  1.00  0.00     0.327 A 
HETATM    9  O1  UNL     1      -2.762  22.526   9.588  1.00  0.00    -0.247 OA
HETATM   10  N3  UNL     1      -4.188  21.836   8.025  1.00  0.00    -0.275 N 
ATOM     11  H3  UNL     1      -4.019  20.867   8.296  1.00  0.00     0.173 HD
HETATM   12  C19 UNL     1      -5.045  22.118   7.029  1.00  0.00     0.262 A 
HETATM   13  O2  UNL     1      -5.601  21.166   6.468  1.00  0.00    -0.267 OA
HETATM   14  C20 UNL     1      -5.277  23.417   6.664  1.00  0.00     0.067 A 
ENDROOT
BRANCH   2  15
HETATM   15  C5  UNL     1      -7.224  25.426   4.226  1.00  0.00    -0.066 C 
HETATM   16  C6  UNL     1      -7.987  25.666   3.294  1.00  0.00    -0.099 C 
BRANCH  16  17
HETATM   17  C7  UNL     1      -8.877  25.955   2.165  1.00  0.00     0.122 C 
BRANCH  17  18
HETATM   18  C8  UNL     1      -8.170  25.571   0.907  1.00  0.00     0.249 C 
BRANCH  18  19
HETATM   19  N1  UNL     1      -8.758  24.453   0.213  1.00  0.00    -0.067 N 
BRANCH  19  20
HETATM   20  C9  UNL     1      -7.784  23.373   0.251  1.00  0.00     0.233 C 
HETATM   21  C10 UNL     1      -7.351  22.886  -1.090  1.00  0.00     0.035 C 
ENDBRANCH  19  20
BRANCH  19  22
HETATM   22  C11 UNL     1      -8.991  24.791  -1.155  1.00  0.00     0.233 C 
HETATM   23  C12 UNL     1      -8.160  25.962  -1.624  1.00  0.00     0.035 C 
ENDBRANCH  19  22
BRANCH  19  24
HETATM   24  C13 UNL     1      -9.930  23.953   0.894  1.00  0.00     0.233 C 
HETATM   25  C14 UNL     1      -9.718  22.791   1.786  1.00  0.00     0.035 C 
ENDBRANCH  19  24
ENDBRANCH  18  19
ENDBRANCH  17  18
ENDBRANCH  16  17
ENDBRANCH   2  15
BRANCH   1  26
HETATM   26  C2  UNL     1      -6.877  22.790   4.876  1.00  0.00     0.036 C 
HETATM   27  C1  UNL     1      -8.327  22.734   5.311  1.00  0.00     0.010 C 
ENDBRANCH   1  26
TORSDOF 8
ENDMDL
MODEL 5
REMARK VINA RESULT: -6.285686003      5.793      8.760
REMARK  8 active torsions:
REMARK  status: ('A' for Active; 'I' for Inactive)
REMARK    1  A    between atoms: C2_2  and  C3_3 
REMARK    2  A    between atoms: C4_4  and  C5_5 
REMARK    3  A    between atoms: C6_6  and  C7_7 
REMARK    4  A    between atoms: C7_7  and  C8_8 
REMARK    5  A    between atoms: C8_8  and  N1_9 
REMARK    6  A    between atoms: N1_9  and  C9_10 
REMARK    7  A    between atoms: N1_9  and  C11_12 
REMARK    8  A    between atoms: N1_9  and  C13_14 
ROOT
HETATM    1  C3  UNL     1      -6.120  23.779   5.653  1.00  0.00    -0.022 A 
HETATM    2  C4  UNL     1      -6.318  25.135   5.301  1.00  0.00     0.025 A 
HETATM    3  C15 UNL     1      -5.642  26.083   6.001  1.00  0.00     0.023 A 
HETATM    4  C16 UNL     1      -4.784  25.786   7.021  1.00  0.00     0.032 A 
HETATM    5  C17 UNL     1      -4.606  24.468   7.345  1.00  0.00     0.052 A 
HETATM    6  N2  UNL     1      -3.758  24.122   8.336  1.00  0.00    -0.308 N 
ATOM      7  H2  UNL     1      -3.263  24.853   8.846  1.00  0.00     0.170 HD
HETATM    8  C18 UNL     1      -3.554  22.839   8.663  1.00  0.00     0.327 A 
HETATM    9  O1  UNL     1      -2.758  22.534   9.593  1.00  0.00    -0.247 OA
HETATM   10  N3  UNL     1      -4.178  21.842   8.025  1.00  0.00    -0.275 N 
ATOM     11  H3  UNL     1      -4.005  20.873   8.294  1.00  0.00     0.173 HD
HETATM   12  C19 UNL     1      -5.034  22.123   7.029  1.00  0.00     0.262 A 
HETATM   13  O2  UNL     1      -5.585  21.170   6.464  1.00  0.00    -0.267 OA
HETATM   14  C20 UNL     1      -5.271  23.422   6.667  1.00  0.00     0.067 A 
ENDROOT
BRANCH   2  15
HETATM   15  C5  UNL     1      -7.222  25.428   4.229  1.00  0.00    -0.066 C 
HETATM   16  C6  UNL     1      -7.985  25.664   3.297  1.00  0.00    -0.099 C 
BRANCH  16  17
HETATM   17  C7  UNL     1      -8.877  25.947   2.167  1.00  0.00     0.122 C 
BRANCH  17  18
HETATM   18  C8  UNL     1      -8.155  25.595   0.908  1.00  0.00     0.249 C 
BRANCH  18  19
HETATM   19  N1  UNL     1      -8.664  24.423   0.239  1.00  0.00    -0.067 N 
BRANCH  19  20
HETATM   20  C9  UNL     1      -8.964  24.816  -1.129  1.00  0.00     0.233 C 
HETATM   21  C10 UNL     1      -8.132  25.940  -1.644  1.00  0.00     0.035 C 
ENDBRANCH  19  20
BRANCH  19  22
HETATM   22  C11 UNL     1      -9.879  23.996   0.855  1.00  0.00     0.233 C 
HETATM   23  C12 UNL     1      -9.701  22.785   1.740  1.00  0.00     0.035 C 
ENDBRANCH  19  22
BRANCH  19  24
HETATM   24  C13 UNL     1      -7.666  23.384   0.144  1.00  0.00     0.233 C 
HETATM   25  C14 UNL     1      -7.418  22.842  -1.212  1.00  0.00     0.035 C 
ENDBRANCH  19  24
ENDBRANCH  18  19
ENDBRANCH  17  18
ENDBRANCH  16  17
ENDBRANCH   2  15
BRANCH   1  26
HETATM   26  C2  UNL     1      -6.864  22.792   4.874  1.00  0.00     0.036 C 
HETATM   27  C1  UNL     1      -8.316  22.732   5.302  1.00  0.00     0.010 C 
ENDBRANCH   1  26
TORSDOF 8
ENDMDL
