MODEL 1
REMARK VINA RESULT: -8.326539730      0.000      0.000
REMARK  8 active torsions:
REMARK  status: ('A' for Active; 'I' for Inactive)
REMARK    1  A    between atoms: C2_2  and  N1_3 
REMARK    2  A    between atoms: N1_3  and  C3_4 
REMARK       I    between atoms: N1_3  and  C5_6 
REMARK       I    between atoms: C5_6  and  N2_8 
REMARK    3  A    between atoms: N2_8  and  C6_10 
REMARK    4  A    between atoms: C9_13  and  O2_14 
REMARK    5  A    between atoms: C9_13  and  N3_16 
REMARK    6  A    between atoms: N3_16  and  C10_18 
REMARK    7  A    between atoms: C10_18  and  C11_19 
REMARK    8  A    between atoms: C11_19  and  C12_20 
ROOT
HETATM    1  C6  UNL     1      -7.283  24.689   4.892  1.00  0.00     0.110 A 
HETATM    2  C7  UNL     1      -7.488  24.915   3.556  1.00  0.00     0.065 A 
HETATM    3  C8  UNL     1      -8.718  24.651   2.917  1.00  0.00     0.026 A 
HETATM    4  C9  UNL     1      -8.769  24.893   1.506  1.00  0.00     0.146 C 
HETATM    5  C15 UNL     1      -9.744  24.152   3.656  1.00  0.00    -0.025 A 
HETATM    6  C16 UNL     1     -11.061  23.884   3.080  1.00  0.00     0.051 C 
HETATM    7  C17 UNL     1      -9.502  23.929   5.028  1.00  0.00     0.013 A 
HETATM    8  C18 UNL     1     -10.640  23.382   5.813  1.00  0.00     0.068 C 
HETATM    9  N4  UNL     1      -8.323  24.189   5.606  1.00  0.00    -0.346 N 
ATOM     10  H4  UNL     1      -8.203  24.009   6.602  1.00  0.00     0.167 HD
ENDROOT
BRANCH   4  11
HETATM   11  O2  UNL     1      -7.919  25.777   1.038  1.00  0.00    -0.346 OA
ATOM     12  H2  UNL     1      -7.770  25.760   0.099  1.00  0.00     0.219 HD
ENDBRANCH   4  11
BRANCH   4  13
HETATM   13  N3  UNL     1      -9.571  24.347   0.515  1.00  0.00    -0.370 N 
ATOM     14  H3  UNL     1     -10.584  24.452   0.568  1.00  0.00     0.161 HD
BRANCH  13  15
HETATM   15  C10 UNL     1      -8.975  23.627  -0.601  1.00  0.00     0.122 C 
BRANCH  15  16
HETATM   16  C11 UNL     1      -8.965  24.425  -1.859  1.00  0.00     0.023 C 
BRANCH  16  17
HETATM   17  C12 UNL     1      -8.216  23.692  -2.923  1.00  0.00    -0.021 C 
HETATM   18  C13 UNL     1      -8.083  22.221  -2.530  1.00  0.00     0.009 C 
HETATM   19  C14 UNL     1      -8.970  23.791  -4.223  1.00  0.00     0.009 C 
ENDBRANCH  16  17
ENDBRANCH  15  16
ENDBRANCH  13  15
ENDBRANCH   4  13
BRANCH   1  20
HETATM   20  N2  UNL     1      -6.144  24.950   5.401  1.00  0.00    -0.295 N 
HETATM   21  C5  UNL     1      -5.807  24.782   6.758  1.00  0.00     0.323 C 
HETATM   22  N1  UNL     1      -5.215  23.590   7.245  1.00  0.00    -0.335 N 
HETATM   23  O1  UNL     1      -6.041  25.724   7.552  1.00  0.00    -0.247 OA
ATOM     24  H2  UNL     1      -5.421  25.309   4.777  1.00  0.00     0.172 HD
BRANCH  22  25
HETATM   25  C2  UNL     1      -4.966  22.542   6.297  1.00  0.00     0.123 C 
HETATM   26  C1  UNL     1      -4.781  21.188   6.894  1.00  0.00     0.026 C 
ENDBRANCH  22  25
BRANCH  22  27
HETATM   27  C3  UNL     1      -4.908  23.517   8.651  1.00  0.00     0.123 C 
HETATM   28  C4  UNL     1      -3.406  23.444   8.864  1.00  0.00     0.026 C 
ENDBRANCH  22  27
ENDBRANCH   1  20
TORSDOF 8
ENDMDL
MODEL 2
REMARK VINA RESULT: -7.810752654      3.144      9.148
REMARK  8 active torsions:
REMARK  status: ('A' for Active; 'I' for Inactive)
REMARK    1  A    between atoms: C2_2  and  N1_3 
REMARK    2  A    between atoms: N1_3  and  C3_4 
REMARK       I    between atoms: N1_3  and  C5_6 
REMARK       I    between atoms: C5_6  and  N2_8 
REMARK    3  A    between atoms: N2_8  and  C6_10 
REMARK    4  A    between atoms: C9_13  and  O2_14 
REMARK    5  A    between atoms: C9_13  and  N3_16 
REMARK    6  A    between atoms: N3_16  and  C10_18 
REMARK    7  A    between atoms: C10_18  and  C11_19 
REMARK    8  A    between atoms: C11_19  and  C12_20 
ROOT
HETATM    1  C6  UNL     1      -6.398  24.432   5.364  1.00  0.00     0.110 A 
HETATM    2  C7  UNL     1      -5.853  25.431   6.129  1.00  0.00     0.065 A 
HETATM    3  C8  UNL     1      -4.979  25.176   7.207  1.00  0.00     0.026 A 
HETATM    4  C9  UNL     1      -4.525  26.317   7.945  1.00  0.00     0.146 C 
HETATM    5  C15 UNL     1      -4.663  23.887   7.501  1.00  0.00    -0.025 A 
HETATM    6  C16 UNL     1      -3.738  23.537   8.578  1.00  0.00     0.051 C 
HETATM    7  C17 UNL     1      -5.240  22.881   6.697  1.00  0.00     0.013 A 
HETATM    8  C18 UNL     1      -4.880  21.480   7.040  1.00  0.00     0.068 C 
HETATM    9  N4  UNL     1      -6.067  23.155   5.680  1.00  0.00    -0.346 N 
ATOM     10  H4  UNL     1      -6.456  22.389   5.132  1.00  0.00     0.167 HD
ENDROOT
BRANCH   4  11
HETATM   11  O2  UNL     1      -4.515  27.459   7.297  1.00  0.00    -0.346 OA
ATOM     12  H2  UNL     1      -3.664  27.776   7.017  1.00  0.00     0.219 HD
ENDBRANCH   4  11
BRANCH   4  13
HETATM   13  N3  UNL     1      -4.086  26.442   9.254  1.00  0.00    -0.370 N 
ATOM     14  H3  UNL     1      -3.767  25.618   9.763  1.00  0.00     0.161 HD
BRANCH  13  15
HETATM   15  C10 UNL     1      -4.076  27.744   9.905  1.00  0.00     0.122 C 
BRANCH  15  16
HETATM   16  C11 UNL     1      -4.057  27.640  11.392  1.00  0.00     0.023 C 
BRANCH  16  17
HETATM   17  C12 UNL     1      -3.467  28.879  11.983  1.00  0.00    -0.021 C 
HETATM   18  C13 UNL     1      -3.195  29.893  10.871  1.00  0.00     0.009 C 
HETATM   19  C14 UNL     1      -4.439  29.473  12.968  1.00  0.00     0.009 C 
ENDBRANCH  16  17
ENDBRANCH  15  16
ENDBRANCH  13  15
ENDBRANCH   4  13
BRANCH   1  20
HETATM   20  N2  UNL     1      -7.181  24.738   4.407  1.00  0.00    -0.295 N 
HETATM   21  C5  UNL     1      -8.033  23.837   3.740  1.00  0.00     0.323 C 
HETATM   22  N1  UNL     1      -9.379  23.636   4.139  1.00  0.00    -0.335 N 
HETATM   23  O1  UNL     1      -7.577  23.196   2.762  1.00  0.00    -0.247 OA
ATOM     24  H2  UNL     1      -7.191  25.711   4.099  1.00  0.00     0.172 HD
BRANCH  22  25
HETATM   25  C2  UNL     1      -9.853  24.393   5.262  1.00  0.00     0.123 C 
HETATM   26  C1  UNL     1     -10.908  23.718   6.071  1.00  0.00     0.026 C 
ENDBRANCH  22  25
BRANCH  22  27
HETATM   27  C3  UNL     1     -10.168  22.692   3.390  1.00  0.00     0.123 C 
HETATM   28  C4  UNL     1     -10.867  23.382   2.233  1.00  0.00     0.026 C 
ENDBRANCH  22  27
ENDBRANCH   1  20
TORSDOF 8
ENDMDL
MODEL 3
REMARK VINA RESULT: -7.291144757      1.321      1.686
REMARK  8 active torsions:
REMARK  status: ('A' for Active; 'I' for Inactive)
REMARK    1  A    between atoms: C2_2  and  N1_3 
REMARK    2  A    between atoms: N1_3  and  C3_4 
REMARK       I    between atoms: N1_3  and  C5_6 
REMARK       I    between atoms: C5_6  and  N2_8 
REMARK    3  A    between atoms: N2_8  and  C6_10 
REMARK    4  A    between atoms: C9_13  and  O2_14 
REMARK    5  A    between atoms: C9_13  and  N3_16 
REMARK    6  A    between atoms: N3_16  and  C10_18 
REMARK    7  A    between atoms: C10_18  and  C11_19 
REMARK    8  A    between atoms: C11_19  and  C12_20 
ROOT
HETATM    1  C6  UNL     1      -7.091  23.862   5.258  1.00  0.00     0.110 A 
HETATM    2  C7  UNL     1      -7.256  24.109   3.920  1.00  0.00     0.065 A 
HETATM    3  C8  UNL     1      -8.526  24.191   3.310  1.00  0.00     0.026 A 
HETATM    4  C9  UNL     1      -8.541  24.408   1.894  1.00  0.00     0.146 C 
HETATM    5  C15 UNL     1      -9.633  24.018   4.080  1.00  0.00    -0.025 A 
HETATM    6  C16 UNL     1     -10.986  24.122   3.535  1.00  0.00     0.051 C 
HETATM    7  C17 UNL     1      -9.431  23.765   5.454  1.00  0.00     0.013 A 
HETATM    8  C18 UNL     1     -10.657  23.579   6.273  1.00  0.00     0.068 C 
HETATM    9  N4  UNL     1      -8.212  23.693   6.003  1.00  0.00    -0.346 N 
ATOM     10  H4  UNL     1      -8.124  23.507   7.002  1.00  0.00     0.167 HD
ENDROOT
BRANCH   4  11
HETATM   11  O2  UNL     1      -7.487  25.005   1.388  1.00  0.00    -0.346 OA
ATOM     12  H2  UNL     1      -6.817  25.270   2.007  1.00  0.00     0.219 HD
ENDBRANCH   4  11
BRANCH   4  13
HETATM   13  N3  UNL     1      -9.489  24.091   0.933  1.00  0.00    -0.370 N 
ATOM     14  H3  UNL     1     -10.473  24.300   1.102  1.00  0.00     0.161 HD
BRANCH  13  15
HETATM   15  C10 UNL     1      -9.086  23.462  -0.317  1.00  0.00     0.122 C 
BRANCH  15  16
HETATM   16  C11 UNL     1      -9.079  24.417  -1.462  1.00  0.00     0.023 C 
BRANCH  16  17
HETATM   17  C12 UNL     1      -8.317  23.835  -2.607  1.00  0.00    -0.021 C 
HETATM   18  C13 UNL     1      -8.082  22.345  -2.358  1.00  0.00     0.009 C 
HETATM   19  C14 UNL     1      -9.113  24.006  -3.875  1.00  0.00     0.009 C 
ENDBRANCH  16  17
ENDBRANCH  15  16
ENDBRANCH  13  15
ENDBRANCH   4  13
BRANCH   1  20
HETATM   20  N2  UNL     1      -5.913  23.801   5.740  1.00  0.00    -0.295 N 
HETATM   21  C5  UNL     1      -5.125  24.913   6.094  1.00  0.00     0.323 C 
HETATM   22  N1  UNL     1      -5.117  25.443   7.408  1.00  0.00    -0.335 N 
HETATM   23  O1  UNL     1      -4.411  25.445   5.209  1.00  0.00    -0.247 OA
ATOM     24  H2  UNL     1      -5.509  22.874   5.880  1.00  0.00     0.172 HD
BRANCH  22  25
HETATM   25  C2  UNL     1      -5.950  24.800   8.384  1.00  0.00     0.123 C 
HETATM   26  C1  UNL     1      -5.257  23.783   9.226  1.00  0.00     0.026 C 
ENDBRANCH  22  25
BRANCH  22  27
HETATM   27  C3  UNL     1      -4.276  26.584   7.668  1.00  0.00     0.123 C 
HETATM   28  C4  UNL     1      -4.523  27.119   9.067  1.00  0.00     0.026 C 
ENDBRANCH  22  27
ENDBRANCH   1  20
TORSDOF 8
ENDMDL
MODEL 4
REMARK VINA RESULT: -7.190530462      1.868      8.187
REMARK  8 active torsions:
REMARK  status: ('A' for Active; 'I' for Inactive)
REMARK    1  A    between atoms: C2_2  and  N1_3 
REMARK    2  A    between atoms: N1_3  and  C3_4 
REMARK       I    between atoms: N1_3  and  C5_6 
REMARK       I    between atoms: C5_6  and  N2_8 
REMARK    3  A    between atoms: N2_8  and  C6_10 
REMARK    4  A    between atoms: C9_13  and  O2_14 
REMARK    5  A    between atoms: C9_13  and  N3_16 
REMARK    6  A    between atoms: N3_16  and  C10_18 
REMARK    7  A    between atoms: C10_18  and  C11_19 
REMARK    8  A    between atoms: C11_19  and  C12_20 
ROOT
HETATM    1  C6  UNL     1      -8.453  23.421   1.333  1.00  0.00     0.110 A 
HETATM    2  C7  UNL     1      -7.717  23.346   2.487  1.00  0.00     0.065 A 
HETATM    3  C8  UNL     1      -8.293  23.475   3.769  1.00  0.00     0.026 A 
HETATM    4  C9  UNL     1      -7.392  23.422   4.881  1.00  0.00     0.146 C 
HETATM    5  C15 UNL     1      -9.633  23.682   3.865  1.00  0.00    -0.025 A 
HETATM    6  C16 UNL     1     -10.314  23.791   5.154  1.00  0.00     0.051 C 
HETATM    7  C17 UNL     1     -10.363  23.755   2.660  1.00  0.00     0.013 A 
HETATM    8  C18 UNL     1     -11.826  23.983   2.793  1.00  0.00     0.068 C 
HETATM    9  N4  UNL     1      -9.787  23.629   1.457  1.00  0.00    -0.346 N 
ATOM     10  H4  UNL     1     -10.363  23.691   0.618  1.00  0.00     0.167 HD
ENDROOT
BRANCH   4  11
HETATM   11  O2  UNL     1      -6.268  22.772   4.687  1.00  0.00    -0.346 OA
ATOM     12  H2  UNL     1      -6.317  22.006   4.126  1.00  0.00     0.219 HD
ENDBRANCH   4  11
BRANCH   4  13
HETATM   13  N3  UNL     1      -7.489  23.948   6.160  1.00  0.00    -0.370 N 
ATOM     14  H3  UNL     1      -8.368  23.875   6.673  1.00  0.00     0.161 HD
BRANCH  13  15
HETATM   15  C10 UNL     1      -6.344  24.604   6.775  1.00  0.00     0.122 C 
BRANCH  15  16
HETATM   16  C11 UNL     1      -5.421  23.641   7.440  1.00  0.00     0.023 C 
BRANCH  16  17
HETATM   17  C12 UNL     1      -4.207  24.356   7.935  1.00  0.00    -0.021 C 
HETATM   18  C13 UNL     1      -3.962  25.597   7.077  1.00  0.00     0.009 C 
HETATM   19  C14 UNL     1      -4.424  24.777   9.365  1.00  0.00     0.009 C 
ENDBRANCH  16  17
ENDBRANCH  15  16
ENDBRANCH  13  15
ENDBRANCH   4  13
BRANCH   1  20
HETATM   20  N2  UNL     1      -7.864  23.296   0.210  1.00  0.00    -0.295 N 
HETATM   21  C5  UNL     1      -8.509  23.261  -1.042  1.00  0.00     0.323 C 
HETATM   22  N1  UNL     1      -8.709  24.430  -1.820  1.00  0.00    -0.335 N 
HETATM   23  O1  UNL     1      -8.915  22.156  -1.474  1.00  0.00    -0.247 OA
ATOM     24  H2  UNL     1      -6.847  23.216   0.217  1.00  0.00     0.172 HD
BRANCH  22  25
HETATM   25  C2  UNL     1      -8.225  25.670  -1.283  1.00  0.00     0.123 C 
HETATM   26  C1  UNL     1      -7.248  26.388  -2.150  1.00  0.00     0.026 C 
ENDBRANCH  22  25
BRANCH  22  27
HETATM   27  C3  UNL     1      -9.380  24.287  -3.087  1.00  0.00     0.123 C 
HETATM   28  C4  UNL     1      -8.543  23.453  -4.040  1.00  0.00     0.026 C 
ENDBRANCH  22  27
ENDBRANCH   1  20
TORSDOF 8
ENDMDL
MODEL 5
REMARK VINA RESULT: -6.972754897      3.329      8.981
REMARK  8 active torsions:
REMARK  status: ('A' for Active; 'I' for Inactive)
REMARK    1  A    between atoms: C2_2  and  N1_3 
REMARK    2  A    between atoms: N1_3  and  C3_4 
REMARK       I    between atoms: N1_3  and  C5_6 
REMARK       I    between atoms: C5_6  and  N2_8 
REMARK    3  A    between atoms: N2_8  and  C6_10 
REMARK    4  A    between atoms: C9_13  and  O2_14 
REMARK    5  A    between atoms: C9_13  and  N3_16 
REMARK    6  A    between atoms: N3_16  and  C10_18 
REMARK    7  A    between atoms: C10_18  and  C11_19 
REMARK    8  A    between atoms: C11_19  and  C12_20 
ROOT
HETATM    1  C6  UNL     1      -5.977  23.306   5.706  1.00  0.00     0.110 A 
HETATM    2  C7  UNL     1      -5.633  24.558   6.143  1.00  0.00     0.065 A 
HETATM    3  C8  UNL     1      -4.813  24.775   7.272  1.00  0.00     0.026 A 
HETATM    4  C9  UNL     1      -4.579  26.140   7.637  1.00  0.00     0.146 C 
HETATM    5  C15 UNL     1      -4.343  23.697   7.953  1.00  0.00    -0.025 A 
HETATM    6  C16 UNL     1      -3.459  23.832   9.110  1.00  0.00     0.051 C 
HETATM    7  C17 UNL     1      -4.714  22.421   7.479  1.00  0.00     0.013 A 
HETATM    8  C18 UNL     1      -4.187  21.260   8.243  1.00  0.00     0.068 C 
HETATM    9  N4  UNL     1      -5.495  22.248   6.405  1.00  0.00    -0.346 N 
ATOM     10  H4  UNL     1      -5.732  21.302   6.107  1.00  0.00     0.167 HD
ENDROOT
BRANCH   4  11
HETATM   11  O2  UNL     1      -4.681  27.025   6.673  1.00  0.00    -0.346 OA
ATOM     12  H2  UNL     1      -4.070  27.752   6.703  1.00  0.00     0.219 HD
ENDBRANCH   4  11
BRANCH   4  13
HETATM   13  N3  UNL     1      -4.258  26.715   8.857  1.00  0.00    -0.370 N 
ATOM     14  H3  UNL     1      -3.851  26.143   9.597  1.00  0.00     0.161 HD
BRANCH  13  15
HETATM   15  C10 UNL     1      -4.498  28.133   9.088  1.00  0.00     0.122 C 
BRANCH  15  16
HETATM   16  C11 UNL     1      -3.395  28.785   9.849  1.00  0.00     0.023 C 
BRANCH  16  17
HETATM   17  C12 UNL     1      -3.877  29.182  11.206  1.00  0.00    -0.021 C 
HETATM   18  C13 UNL     1      -3.901  27.955  12.117  1.00  0.00     0.009 C 
HETATM   19  C14 UNL     1      -2.943  30.212  11.785  1.00  0.00     0.009 C 
ENDBRANCH  16  17
ENDBRANCH  15  16
ENDBRANCH  13  15
ENDBRANCH   4  13
BRANCH   1  20
HETATM   20  N2  UNL     1      -6.723  23.187   4.680  1.00  0.00    -0.295 N 
HETATM   21  C5  UNL     1      -8.130  23.149   4.703  1.00  0.00     0.323 C 
HETATM   22  N1  UNL     1      -8.918  24.317   4.546  1.00  0.00    -0.335 N 
HETATM   23  O1  UNL     1      -8.695  22.041   4.868  1.00  0.00    -0.247 OA
ATOM     24  H2  UNL     1      -6.265  23.114   3.771  1.00  0.00     0.172 HD
BRANCH  22  25
HETATM   25  C2  UNL     1      -8.225  25.560   4.360  1.00  0.00     0.123 C 
HETATM   26  C1  UNL     1      -8.387  26.169   3.008  1.00  0.00     0.026 C 
ENDBRANCH  22  25
BRANCH  22  27
HETATM   27  C3  UNL     1     -10.351  24.171   4.585  1.00  0.00     0.123 C 
HETATM   28  C4  UNL     1     -10.893  23.873   3.199  1.00  0.00     0.026 C 
ENDBRANCH  22  27
ENDBRANCH   1  20
TORSDOF 8
ENDMDL
