MODEL 1
REMARK VINA RESULT: -8.096822432      0.000      0.000
REMARK  9 active torsions:
REMARK  status: ('A' for Active; 'I' for Inactive)
REMARK    1  A    between atoms: C1_2  and  C2_4 
REMARK    2  A    between atoms: C2_4  and  C3_5 
REMARK    3  A    between atoms: C3_5  and  N1_6 
REMARK    4  A    between atoms: N1_6  and  C4_8 
REMARK    5  A    between atoms: C4_8  and  C5_9 
REMARK    6  A    between atoms: C5_9  and  C6_10 
REMARK    7  A    between atoms: C6_10  and  C7_11 
REMARK    8  A    between atoms: N2_17  and  C13_19 
REMARK    9  A    between atoms: C13_19  and  N3_21 
ROOT
HETATM    1  C4  UNL     1      -8.795  23.286   5.208  1.00  0.00     0.079 C 
HETATM    2  N2  UNL     1      -8.073  23.751   6.156  1.00  0.00    -0.323 N 
ATOM      3  H2  UNL     1      -8.520  23.839   7.068  1.00  0.00     0.169 HD
ENDROOT
BRANCH   1   4
HETATM    4  N1  UNL     1     -10.137  22.938   5.514  1.00  0.00    -0.379 N 
ATOM      5  H1  UNL     1     -10.503  22.025   5.243  1.00  0.00     0.160 HD
BRANCH   4   6
HETATM    6  C3  UNL     1     -10.988  23.881   6.213  1.00  0.00     0.131 C 
BRANCH   6   7
HETATM    7  C2  UNL     1     -11.717  24.724   5.172  1.00  0.00     0.132 C 
BRANCH   7   8
HETATM    8  C1  UNL     1     -13.173  24.761   5.442  1.00  0.00     0.174 C 
HETATM    9  O1  UNL     1     -13.979  25.181   4.583  1.00  0.00    -0.648 OA
HETATM   10  O2  UNL     1     -13.658  24.326   6.660  1.00  0.00    -0.648 OA
ENDBRANCH   7   8
ENDBRANCH   6   7
ENDBRANCH   4   6
ENDBRANCH   1   4
BRANCH   1  11
HETATM   11  C5  UNL     1      -8.247  23.120   3.841  1.00  0.00     0.080 C 
BRANCH  11  12
HETATM   12  C6  UNL     1      -9.347  22.794   2.837  1.00  0.00     0.041 C 
BRANCH  12  13
HETATM   13  C7  UNL     1      -9.166  23.723   1.699  1.00  0.00    -0.083 C 
HETATM   14  C8  UNL     1      -9.262  23.265   0.448  1.00  0.00    -0.024 C 
HETATM   15  C9  UNL     1      -9.094  24.128  -0.732  1.00  0.00     0.027 C 
HETATM   16  C10 UNL     1      -8.235  25.320  -0.501  1.00  0.00     0.004 C 
HETATM   17  C11 UNL     1      -7.741  25.490   0.896  1.00  0.00     0.005 C 
HETATM   18  C12 UNL     1      -8.878  25.170   1.856  1.00  0.00     0.034 C 
ENDBRANCH  12  13
ENDBRANCH  11  12
ENDBRANCH   1  11
BRANCH   2  19
HETATM   19  C13 UNL     1      -6.738  24.152   6.073  1.00  0.00     0.175 C 
HETATM   20  S1  UNL     1      -6.188  25.304   5.064  1.00  0.00    -0.041 SA
BRANCH  19  21
HETATM   21  N3  UNL     1      -5.792  23.515   6.921  1.00  0.00    -0.358 N 
HETATM   22  C14 UNL     1      -5.294  22.149   6.797  1.00  0.00     0.125 C 
HETATM   23  C15 UNL     1      -4.216  22.048   7.822  1.00  0.00     0.021 C 
HETATM   24  C16 UNL     1      -3.824  23.495   8.130  1.00  0.00     0.021 C 
HETATM   25  C17 UNL     1      -5.180  24.158   8.064  1.00  0.00     0.125 C 
ENDBRANCH  19  21
ENDBRANCH   2  19
TORSDOF 9
ENDMDL
MODEL 2
REMARK VINA RESULT: -7.987996950      0.866      1.545
REMARK  9 active torsions:
REMARK  status: ('A' for Active; 'I' for Inactive)
REMARK    1  A    between atoms: C1_2  and  C2_4 
REMARK    2  A    between atoms: C2_4  and  C3_5 
REMARK    3  A    between atoms: C3_5  and  N1_6 
REMARK    4  A    between atoms: N1_6  and  C4_8 
REMARK    5  A    between atoms: C4_8  and  C5_9 
REMARK    6  A    between atoms: C5_9  and  C6_10 
REMARK    7  A    between atoms: C6_10  and  C7_11 
REMARK    8  A    between atoms: N2_17  and  C13_19 
REMARK    9  A    between atoms: C13_19  and  N3_21 
ROOT
HETATM    1  C4  UNL     1      -8.046  23.940   5.019  1.00  0.00     0.079 C 
HETATM    2  N2  UNL     1      -7.392  23.645   6.078  1.00  0.00    -0.323 N 
ATOM      3  H2  UNL     1      -7.834  22.986   6.719  1.00  0.00     0.169 HD
ENDROOT
BRANCH   1   4
HETATM    4  N1  UNL     1      -9.314  23.325   4.838  1.00  0.00    -0.379 N 
ATOM      5  H1  UNL     1      -9.438  22.616   4.115  1.00  0.00     0.160 HD
BRANCH   4   6
HETATM    6  C3  UNL     1     -10.431  23.707   5.679  1.00  0.00     0.131 C 
BRANCH   6   7
HETATM    7  C2  UNL     1     -11.487  24.363   4.795  1.00  0.00     0.132 C 
BRANCH   7   8
HETATM    8  C1  UNL     1     -12.668  24.768   5.591  1.00  0.00     0.174 C 
HETATM    9  O1  UNL     1     -12.599  24.886   6.834  1.00  0.00    -0.648 OA
HETATM   10  O2  UNL     1     -13.871  25.021   4.960  1.00  0.00    -0.648 OA
ENDBRANCH   7   8
ENDBRANCH   6   7
ENDBRANCH   4   6
ENDBRANCH   1   4
BRANCH   1  11
HETATM   11  C5  UNL     1      -7.499  24.890   4.022  1.00  0.00     0.080 C 
BRANCH  11  12
HETATM   12  C6  UNL     1      -8.602  25.477   3.149  1.00  0.00     0.041 C 
BRANCH  12  13
HETATM   13  C7  UNL     1      -8.410  24.914   1.794  1.00  0.00    -0.083 C 
HETATM   14  C8  UNL     1      -8.351  25.731   0.739  1.00  0.00    -0.024 C 
HETATM   15  C9  UNL     1      -8.163  25.244  -0.637  1.00  0.00     0.027 C 
HETATM   16  C10 UNL     1      -8.651  23.857  -0.867  1.00  0.00     0.004 C 
HETATM   17  C11 UNL     1      -9.185  23.160   0.338  1.00  0.00     0.005 C 
HETATM   18  C12 UNL     1      -8.274  23.462   1.519  1.00  0.00     0.034 C 
ENDBRANCH  12  13
ENDBRANCH  11  12
ENDBRANCH   1  11
BRANCH   2  19
HETATM   19  C13 UNL     1      -6.137  24.131   6.450  1.00  0.00     0.175 C 
HETATM   20  S1  UNL     1      -5.539  25.572   5.989  1.00  0.00    -0.041 SA
BRANCH  19  21
HETATM   21  N3  UNL     1      -5.323  23.319   7.284  1.00  0.00    -0.358 N 
HETATM   22  C14 UNL     1      -4.907  21.945   7.023  1.00  0.00     0.125 C 
HETATM   23  C15 UNL     1      -3.943  21.629   8.115  1.00  0.00     0.021 C 
HETATM   24  C16 UNL     1      -3.488  22.989   8.648  1.00  0.00     0.021 C 
HETATM   25  C17 UNL     1      -4.783  23.760   8.553  1.00  0.00     0.125 C 
ENDBRANCH  19  21
ENDBRANCH   2  19
TORSDOF 9
ENDMDL
MODEL 3
REMARK VINA RESULT: -7.980386123      2.971      5.364
REMARK  9 active torsions:
REMARK  status: ('A' for Active; 'I' for Inactive)
REMARK    1  A    between atoms: C1_2  and  C2_4 
REMARK    2  A    between atoms: C2_4  and  C3_5 
REMARK    3  A    between atoms: C3_5  and  N1_6 
REMARK    4  A    between atoms: N1_6  and  C4_8 
REMARK    5  A    between atoms: C4_8  and  C5_9 
REMARK    6  A    between atoms: C5_9  and  C6_10 
REMARK    7  A    between atoms: C6_10  and  C7_11 
REMARK    8  A    between atoms: N2_17  and  C13_19 
REMARK    9  A    between atoms: C13_19  and  N3_21 
ROOT
HETATM    1  C4  UNL     1      -7.758  24.596   4.482  1.00  0.00     0.079 C 
HETATM    2  N2  UNL     1      -8.386  23.893   5.347  1.00  0.00    -0.323 N 
ATOM      3  H2  UNL     1      -7.948  23.799   6.263  1.00  0.00     0.169 HD
ENDROOT
BRANCH   1   4
HETATM    4  N1  UNL     1      -6.521  25.173   4.878  1.00  0.00    -0.379 N 
ATOM      5  H1  UNL     1      -5.915  25.608   4.182  1.00  0.00     0.160 HD
BRANCH   4   6
HETATM    6  C3  UNL     1      -6.121  25.143   6.271  1.00  0.00     0.131 C 
BRANCH   6   7
HETATM    7  C2  UNL     1      -4.906  24.230   6.395  1.00  0.00     0.132 C 
BRANCH   7   8
HETATM    8  C1  UNL     1      -5.308  22.865   6.807  1.00  0.00     0.174 C 
HETATM    9  O1  UNL     1      -6.062  22.171   6.091  1.00  0.00    -0.648 OA
HETATM   10  O2  UNL     1      -4.847  22.342   8.000  1.00  0.00    -0.648 OA
ENDBRANCH   7   8
ENDBRANCH   6   7
ENDBRANCH   4   6
ENDBRANCH   1   4
BRANCH   1  11
HETATM   11  C5  UNL     1      -8.301  24.795   3.118  1.00  0.00     0.080 C 
BRANCH  11  12
HETATM   12  C6  UNL     1      -7.939  23.633   2.200  1.00  0.00     0.041 C 
BRANCH  12  13
HETATM   13  C7  UNL     1      -8.323  24.044   0.831  1.00  0.00    -0.083 C 
HETATM   14  C8  UNL     1      -8.405  23.128  -0.137  1.00  0.00    -0.024 C 
HETATM   15  C9  UNL     1      -8.780  23.461  -1.521  1.00  0.00     0.027 C 
HETATM   16  C10 UNL     1      -8.460  24.859  -1.921  1.00  0.00     0.004 C 
HETATM   17  C11 UNL     1      -7.880  25.714  -0.846  1.00  0.00     0.005 C 
HETATM   18  C12 UNL     1      -8.632  25.444   0.449  1.00  0.00     0.034 C 
ENDBRANCH  12  13
ENDBRANCH  11  12
ENDBRANCH   1  11
BRANCH   2  19
HETATM   19  C13 UNL     1      -9.608  23.242   5.168  1.00  0.00     0.175 C 
HETATM   20  S1  UNL     1      -9.767  21.748   4.544  1.00  0.00    -0.041 SA
BRANCH  19  21
HETATM   21  N3  UNL     1     -10.794  23.923   5.553  1.00  0.00    -0.358 N 
HETATM   22  C14 UNL     1     -11.729  24.609   4.668  1.00  0.00     0.125 C 
HETATM   23  C15 UNL     1     -12.866  24.998   5.551  1.00  0.00     0.021 C 
HETATM   24  C16 UNL     1     -12.748  24.086   6.774  1.00  0.00     0.021 C 
HETATM   25  C17 UNL     1     -11.246  24.033   6.923  1.00  0.00     0.125 C 
ENDBRANCH  19  21
ENDBRANCH   2  19
TORSDOF 9
ENDMDL
MODEL 4
REMARK VINA RESULT: -7.978854733      2.990      5.452
REMARK  9 active torsions:
REMARK  status: ('A' for Active; 'I' for Inactive)
REMARK    1  A    between atoms: C1_2  and  C2_4 
REMARK    2  A    between atoms: C2_4  and  C3_5 
REMARK    3  A    between atoms: C3_5  and  N1_6 
REMARK    4  A    between atoms: N1_6  and  C4_8 
REMARK    5  A    between atoms: C4_8  and  C5_9 
REMARK    6  A    between atoms: C5_9  and  C6_10 
REMARK    7  A    between atoms: C6_10  and  C7_11 
REMARK    8  A    between atoms: N2_17  and  C13_19 
REMARK    9  A    between atoms: C13_19  and  N3_21 
ROOT
HETATM    1  C4  UNL     1      -7.773  24.585   4.457  1.00  0.00     0.079 C 
HETATM    2  N2  UNL     1      -8.378  23.873   5.329  1.00  0.00    -0.323 N 
ATOM      3  H2  UNL     1      -7.918  23.770   6.233  1.00  0.00     0.169 HD
ENDROOT
BRANCH   1   4
HETATM    4  N1  UNL     1      -6.528  25.161   4.828  1.00  0.00    -0.379 N 
ATOM      5  H1  UNL     1      -5.921  25.567   4.115  1.00  0.00     0.160 HD
BRANCH   4   6
HETATM    6  C3  UNL     1      -6.121  25.172   6.218  1.00  0.00     0.131 C 
BRANCH   6   7
HETATM    7  C2  UNL     1      -4.899  24.269   6.361  1.00  0.00     0.132 C 
BRANCH   7   8
HETATM    8  C1  UNL     1      -5.291  22.910   6.801  1.00  0.00     0.174 C 
HETATM    9  O1  UNL     1      -6.027  22.190   6.091  1.00  0.00    -0.648 OA
HETATM   10  O2  UNL     1      -4.842  22.422   8.013  1.00  0.00    -0.648 OA
ENDBRANCH   7   8
ENDBRANCH   6   7
ENDBRANCH   4   6
ENDBRANCH   1   4
BRANCH   1  11
HETATM   11  C5  UNL     1      -8.350  24.798   3.108  1.00  0.00     0.080 C 
BRANCH  11  12
HETATM   12  C6  UNL     1      -8.200  23.557   2.236  1.00  0.00     0.041 C 
BRANCH  12  13
HETATM   13  C7  UNL     1      -8.057  24.036   0.843  1.00  0.00    -0.083 C 
HETATM   14  C8  UNL     1      -8.392  25.292   0.538  1.00  0.00    -0.024 C 
HETATM   15  C9  UNL     1      -8.278  25.839  -0.824  1.00  0.00     0.027 C 
HETATM   16  C10 UNL     1      -8.377  24.818  -1.903  1.00  0.00     0.004 C 
HETATM   17  C11 UNL     1      -8.504  23.407  -1.437  1.00  0.00     0.005 C 
HETATM   18  C12 UNL     1      -7.554  23.193  -0.269  1.00  0.00     0.034 C 
ENDBRANCH  12  13
ENDBRANCH  11  12
ENDBRANCH   1  11
BRANCH   2  19
HETATM   19  C13 UNL     1      -9.603  23.220   5.174  1.00  0.00     0.175 C 
HETATM   20  S1  UNL     1      -9.768  21.702   4.612  1.00  0.00    -0.041 SA
BRANCH  19  21
HETATM   21  N3  UNL     1     -10.787  23.923   5.526  1.00  0.00    -0.358 N 
HETATM   22  C14 UNL     1     -11.715  24.578   4.611  1.00  0.00     0.125 C 
HETATM   23  C15 UNL     1     -12.852  25.009   5.472  1.00  0.00     0.021 C 
HETATM   24  C16 UNL     1     -12.744  24.146   6.732  1.00  0.00     0.021 C 
HETATM   25  C17 UNL     1     -11.243  24.091   6.889  1.00  0.00     0.125 C 
ENDBRANCH  19  21
ENDBRANCH   2  19
TORSDOF 9
ENDMDL
MODEL 5
REMARK VINA RESULT: -7.958660807      3.358      7.024
REMARK  9 active torsions:
REMARK  status: ('A' for Active; 'I' for Inactive)
REMARK    1  A    between atoms: C1_2  and  C2_4 
REMARK    2  A    between atoms: C2_4  and  C3_5 
REMARK    3  A    between atoms: C3_5  and  N1_6 
REMARK    4  A    between atoms: N1_6  and  C4_8 
REMARK    5  A    between atoms: C4_8  and  C5_9 
REMARK    6  A    between atoms: C5_9  and  C6_10 
REMARK    7  A    between atoms: C6_10  and  C7_11 
REMARK    8  A    between atoms: N2_17  and  C13_19 
REMARK    9  A    between atoms: C13_19  and  N3_21 
ROOT
HETATM    1  C4  UNL     1      -7.887  23.558   4.157  1.00  0.00     0.079 C 
HETATM    2  N2  UNL     1      -7.875  23.203   2.928  1.00  0.00    -0.323 N 
ATOM      3  H2  UNL     1      -7.003  22.808   2.576  1.00  0.00     0.169 HD
ENDROOT
BRANCH   1   4
HETATM    4  N1  UNL     1      -6.695  23.370   4.907  1.00  0.00    -0.379 N 
ATOM      5  H1  UNL     1      -5.984  22.715   4.580  1.00  0.00     0.160 HD
BRANCH   4   6
HETATM    6  C3  UNL     1      -6.489  24.109   6.136  1.00  0.00     0.131 C 
BRANCH   6   7
HETATM    7  C2  UNL     1      -5.072  23.826   6.627  1.00  0.00     0.132 C 
BRANCH   7   8
HETATM    8  C1  UNL     1      -5.002  22.521   7.324  1.00  0.00     0.174 C 
HETATM    9  O1  UNL     1      -5.234  21.452   6.717  1.00  0.00    -0.648 OA
HETATM   10  O2  UNL     1      -4.676  22.473   8.666  1.00  0.00    -0.648 OA
ENDBRANCH   7   8
ENDBRANCH   6   7
ENDBRANCH   4   6
ENDBRANCH   1   4
BRANCH   1  11
HETATM   11  C5  UNL     1      -9.101  24.146   4.771  1.00  0.00     0.080 C 
BRANCH  11  12
HETATM   12  C6  UNL     1      -9.795  23.152   5.695  1.00  0.00     0.041 C 
BRANCH  12  13
HETATM   13  C7  UNL     1     -11.029  23.814   6.174  1.00  0.00    -0.083 C 
HETATM   14  C8  UNL     1     -11.589  23.421   7.321  1.00  0.00    -0.024 C 
HETATM   15  C9  UNL     1     -12.815  24.033   7.860  1.00  0.00     0.027 C 
HETATM   16  C10 UNL     1     -13.705  24.629   6.828  1.00  0.00     0.004 C 
HETATM   17  C11 UNL     1     -13.188  24.576   5.430  1.00  0.00     0.005 C 
HETATM   18  C12 UNL     1     -11.705  24.917   5.448  1.00  0.00     0.034 C 
ENDBRANCH  12  13
ENDBRANCH  11  12
ENDBRANCH   1  11
BRANCH   2  19
HETATM   19  C13 UNL     1      -8.930  23.299   2.018  1.00  0.00     0.175 C 
HETATM   20  S1  UNL     1     -10.419  22.695   2.275  1.00  0.00    -0.041 SA
BRANCH  19  21
HETATM   21  N3  UNL     1      -8.695  23.965   0.786  1.00  0.00    -0.358 N 
HETATM   22  C14 UNL     1      -8.359  25.374   0.609  1.00  0.00     0.125 C 
HETATM   23  C15 UNL     1      -8.057  25.509  -0.844  1.00  0.00     0.021 C 
HETATM   24  C16 UNL     1      -7.757  24.086  -1.321  1.00  0.00     0.021 C 
HETATM   25  C17 UNL     1      -8.764  23.313  -0.504  1.00  0.00     0.125 C 
ENDBRANCH  19  21
ENDBRANCH   2  19
TORSDOF 9
ENDMDL
