MODEL 1
REMARK VINA RESULT: -9.542671691      0.000      0.000
REMARK  6 active torsions:
REMARK  status: ('A' for Active; 'I' for Inactive)
REMARK    1  A    between atoms: O1_2  and  C2_3 
REMARK    2  A    between atoms: C6_9  and  C7_10 
REMARK    3  A    between atoms: C7_10  and  N2_11 
REMARK    4  A    between atoms: N2_11  and  S1_13 
REMARK    5  A    between atoms: S1_13  and  C8_16 
REMARK    6  A    between atoms: C8_16  and  C9_17 
ROOT
HETATM    1  S1  UNL     1      -8.117  23.277   4.892  1.00  0.00     0.230 S 
HETATM    2  O2  UNL     1      -8.440  21.924   5.235  1.00  0.00    -0.206 OA
HETATM    3  O3  UNL     1      -7.226  23.127   3.571  1.00  0.00    -0.206 OA
ENDROOT
BRANCH   1   4
HETATM    4  N2  UNL     1      -7.161  24.132   5.964  1.00  0.00    -0.315 N 
ATOM      5  H2  UNL     1      -7.576  24.684   6.714  1.00  0.00     0.172 HD
BRANCH   4   6
HETATM    6  C7  UNL     1      -5.755  24.064   5.795  1.00  0.00     0.175 C 
BRANCH   6   7
HETATM    7  C6  UNL     1      -5.128  24.007   7.161  1.00  0.00     0.017 A 
HETATM    8  C2  UNL     1      -4.986  24.876   8.168  1.00  0.00     0.093 A 
HETATM    9  C3  UNL     1      -4.591  24.184   9.290  1.00  0.00     0.125 A 
HETATM   10  N1  UNL     1      -4.480  22.864   8.979  1.00  0.00    -0.366 N 
HETATM   11  C4  UNL     1      -4.796  22.736   7.708  1.00  0.00     0.015 A 
ATOM     12  H1  UNL     1      -4.202  22.114   9.613  1.00  0.00     0.165 HD
HETATM   13  C5  UNL     1      -4.863  21.479   6.912  1.00  0.00     0.069 C 
BRANCH   8  14
HETATM   14  O1  UNL     1      -5.197  26.275   8.060  1.00  0.00    -0.354 OA
HETATM   15  C1  UNL     1      -4.335  27.159   8.668  1.00  0.00     0.210 C 
ENDBRANCH   8  14
ENDBRANCH   6   7
ENDBRANCH   4   6
ENDBRANCH   1   4
BRANCH   1  16
HETATM   16  C8  UNL     1      -9.487  24.325   4.322  1.00  0.00     0.202 C 
BRANCH  16  17
HETATM   17  C9  UNL     1      -9.457  24.332   2.832  1.00  0.00    -0.031 A 
HETATM   18  C10 UNL     1      -8.747  25.498   2.404  1.00  0.00    -0.054 A 
HETATM   19  C11 UNL     1      -8.470  26.586   3.383  1.00  0.00     0.049 C 
HETATM   20  C12 UNL     1      -8.348  25.532   1.109  1.00  0.00     0.014 A 
HETATM   21  C13 UNL     1      -8.600  24.515   0.233  1.00  0.00    -0.061 A 
HETATM   22  C14 UNL     1      -7.916  24.488  -1.127  1.00  0.00     0.048 C 
HETATM   23  C15 UNL     1      -9.309  23.407   0.674  1.00  0.00     0.014 A 
HETATM   24  C16 UNL     1      -9.739  23.337   2.009  1.00  0.00    -0.054 A 
HETATM   25  C17 UNL     1     -10.629  22.234   2.354  1.00  0.00     0.049 C 
ENDBRANCH  16  17
ENDBRANCH   1  16
TORSDOF 6
ENDMDL
MODEL 2
REMARK VINA RESULT: -9.370221927      1.222      2.259
REMARK  6 active torsions:
REMARK  status: ('A' for Active; 'I' for Inactive)
REMARK    1  A    between atoms: O1_2  and  C2_3 
REMARK    2  A    between atoms: C6_9  and  C7_10 
REMARK    3  A    between atoms: C7_10  and  N2_11 
REMARK    4  A    between atoms: N2_11  and  S1_13 
REMARK    5  A    between atoms: S1_13  and  C8_16 
REMARK    6  A    between atoms: C8_16  and  C9_17 
ROOT
HETATM    1  S1  UNL     1      -8.090  23.311   4.914  1.00  0.00     0.230 S 
HETATM    2  O2  UNL     1      -8.373  21.947   5.246  1.00  0.00    -0.206 OA
HETATM    3  O3  UNL     1      -7.179  23.198   3.603  1.00  0.00    -0.206 OA
ENDROOT
BRANCH   1   4
HETATM    4  N2  UNL     1      -7.176  24.191   6.001  1.00  0.00    -0.315 N 
ATOM      5  H2  UNL     1      -7.618  24.727   6.748  1.00  0.00     0.172 HD
BRANCH   4   6
HETATM    6  C7  UNL     1      -5.767  24.167   5.852  1.00  0.00     0.175 C 
BRANCH   6   7
HETATM    7  C6  UNL     1      -5.179  23.577   7.105  1.00  0.00     0.017 A 
HETATM    8  C2  UNL     1      -4.778  22.355   7.470  1.00  0.00     0.093 A 
HETATM    9  C3  UNL     1      -4.048  22.465   8.633  1.00  0.00     0.125 A 
HETATM   10  N1  UNL     1      -3.998  23.773   9.002  1.00  0.00    -0.366 N 
HETATM   11  C4  UNL     1      -4.670  24.457   8.101  1.00  0.00     0.015 A 
ATOM     12  H1  UNL     1      -3.528  24.153   9.824  1.00  0.00     0.165 HD
HETATM   13  C5  UNL     1      -4.869  25.932   8.044  1.00  0.00     0.069 C 
BRANCH   8  14
HETATM   14  O1  UNL     1      -5.084  21.162   6.765  1.00  0.00    -0.354 OA
HETATM   15  C1  UNL     1      -4.226  20.087   6.809  1.00  0.00     0.210 C 
ENDBRANCH   8  14
ENDBRANCH   6   7
ENDBRANCH   4   6
ENDBRANCH   1   4
BRANCH   1  16
HETATM   16  C8  UNL     1      -9.487  24.317   4.332  1.00  0.00     0.202 C 
BRANCH  16  17
HETATM   17  C9  UNL     1      -9.451  24.317   2.842  1.00  0.00    -0.031 A 
HETATM   18  C10 UNL     1      -8.748  25.486   2.411  1.00  0.00    -0.054 A 
HETATM   19  C11 UNL     1      -8.483  26.580   3.385  1.00  0.00     0.049 C 
HETATM   20  C12 UNL     1      -8.344  25.516   1.117  1.00  0.00     0.014 A 
HETATM   21  C13 UNL     1      -8.584  24.492   0.246  1.00  0.00    -0.061 A 
HETATM   22  C14 UNL     1      -7.895  24.463  -1.111  1.00  0.00     0.048 C 
HETATM   23  C15 UNL     1      -9.287  23.381   0.690  1.00  0.00     0.014 A 
HETATM   24  C16 UNL     1      -9.722  23.315   2.023  1.00  0.00    -0.054 A 
HETATM   25  C17 UNL     1     -10.606  22.207   2.371  1.00  0.00     0.049 C 
ENDBRANCH  16  17
ENDBRANCH   1  16
TORSDOF 6
ENDMDL
MODEL 3
REMARK VINA RESULT: -8.230347237      3.699      8.195
REMARK  6 active torsions:
REMARK  status: ('A' for Active; 'I' for Inactive)
REMARK    1  A    between atoms: O1_2  and  C2_3 
REMARK    2  A    between atoms: C6_9  and  C7_10 
REMARK    3  A    between atoms: C7_10  and  N2_11 
REMARK    4  A    between atoms: N2_11  and  S1_13 
REMARK    5  A    between atoms: S1_13  and  C8_16 
REMARK    6  A    between atoms: C8_16  and  C9_17 
ROOT
HETATM    1  S1  UNL     1      -9.033  23.634   1.116  1.00  0.00     0.230 S 
HETATM    2  O2  UNL     1      -7.681  23.212   1.329  1.00  0.00    -0.206 OA
HETATM    3  O3  UNL     1      -9.763  22.310   0.592  1.00  0.00    -0.206 OA
ENDROOT
BRANCH   1   4
HETATM    4  N2  UNL     1      -9.302  24.776  -0.074  1.00  0.00    -0.315 N 
ATOM      5  H2  UNL     1     -10.242  25.122  -0.269  1.00  0.00     0.172 HD
BRANCH   4   6
HETATM    6  C7  UNL     1      -8.182  25.248  -0.803  1.00  0.00     0.175 C 
BRANCH   6   7
HETATM    7  C6  UNL     1      -8.298  24.734  -2.212  1.00  0.00     0.017 A 
HETATM    8  C2  UNL     1      -8.386  23.520  -2.766  1.00  0.00     0.093 A 
HETATM    9  C3  UNL     1      -8.771  23.667  -4.080  1.00  0.00     0.125 A 
HETATM   10  N1  UNL     1      -8.919  24.992  -4.352  1.00  0.00    -0.366 N 
HETATM   11  C4  UNL     1      -8.640  25.649  -3.246  1.00  0.00     0.015 A 
ATOM     12  H1  UNL     1      -9.195  25.400  -5.245  1.00  0.00     0.165 HD
HETATM   13  C5  UNL     1      -8.697  27.121  -3.027  1.00  0.00     0.069 C 
BRANCH   8  14
HETATM   14  O1  UNL     1      -8.106  22.304  -2.091  1.00  0.00    -0.354 OA
HETATM   15  C1  UNL     1      -6.805  21.896  -1.900  1.00  0.00     0.210 C 
ENDBRANCH   8  14
ENDBRANCH   6   7
ENDBRANCH   4   6
ENDBRANCH   1   4
BRANCH   1  16
HETATM   16  C8  UNL     1      -9.999  24.053   2.597  1.00  0.00     0.202 C 
BRANCH  16  17
HETATM   17  C9  UNL     1      -9.036  24.283   3.712  1.00  0.00    -0.031 A 
HETATM   18  C10 UNL     1      -8.915  23.067   4.456  1.00  0.00    -0.054 A 
HETATM   19  C11 UNL     1      -9.907  21.977   4.244  1.00  0.00     0.049 C 
HETATM   20  C12 UNL     1      -7.871  22.977   5.315  1.00  0.00     0.014 A 
HETATM   21  C13 UNL     1      -6.963  23.983   5.481  1.00  0.00    -0.061 A 
HETATM   22  C14 UNL     1      -5.677  23.737   6.258  1.00  0.00     0.048 C 
HETATM   23  C15 UNL     1      -7.121  25.158   4.759  1.00  0.00     0.014 A 
HETATM   24  C16 UNL     1      -8.192  25.288   3.860  1.00  0.00    -0.054 A 
HETATM   25  C17 UNL     1      -8.400  26.608   3.274  1.00  0.00     0.049 C 
ENDBRANCH  16  17
ENDBRANCH   1  16
TORSDOF 6
ENDMDL
MODEL 4
REMARK VINA RESULT: -8.115723926      3.705      8.154
REMARK  6 active torsions:
REMARK  status: ('A' for Active; 'I' for Inactive)
REMARK    1  A    between atoms: O1_2  and  C2_3 
REMARK    2  A    between atoms: C6_9  and  C7_10 
REMARK    3  A    between atoms: C7_10  and  N2_11 
REMARK    4  A    between atoms: N2_11  and  S1_13 
REMARK    5  A    between atoms: S1_13  and  C8_16 
REMARK    6  A    between atoms: C8_16  and  C9_17 
ROOT
HETATM    1  S1  UNL     1      -8.891  23.626   1.021  1.00  0.00     0.230 S 
HETATM    2  O2  UNL     1      -7.605  23.096   1.362  1.00  0.00    -0.206 OA
HETATM    3  O3  UNL     1      -9.676  22.361   0.435  1.00  0.00    -0.206 OA
ENDROOT
BRANCH   1   4
HETATM    4  N2  UNL     1      -8.951  24.772  -0.194  1.00  0.00    -0.315 N 
ATOM      5  H2  UNL     1      -9.731  25.426  -0.264  1.00  0.00     0.172 HD
BRANCH   4   6
HETATM    6  C7  UNL     1      -7.881  24.806  -1.124  1.00  0.00     0.175 C 
BRANCH   6   7
HETATM    7  C6  UNL     1      -8.385  24.247  -2.427  1.00  0.00     0.017 A 
HETATM    8  C2  UNL     1      -9.007  24.761  -3.493  1.00  0.00     0.093 A 
HETATM    9  C3  UNL     1      -8.956  23.839  -4.515  1.00  0.00     0.125 A 
HETATM   10  N1  UNL     1      -8.298  22.731  -4.079  1.00  0.00    -0.366 N 
HETATM   11  C4  UNL     1      -7.947  22.954  -2.830  1.00  0.00     0.015 A 
ATOM     12  H1  UNL     1      -8.111  21.886  -4.619  1.00  0.00     0.165 HD
HETATM   13  C5  UNL     1      -7.171  22.054  -1.931  1.00  0.00     0.069 C 
BRANCH   8  14
HETATM   14  O1  UNL     1      -9.622  26.039  -3.528  1.00  0.00    -0.354 OA
HETATM   15  C1  UNL     1      -8.875  27.178  -3.325  1.00  0.00     0.210 C 
ENDBRANCH   8  14
ENDBRANCH   6   7
ENDBRANCH   4   6
ENDBRANCH   1   4
BRANCH   1  16
HETATM   16  C8  UNL     1      -9.955  24.141   2.401  1.00  0.00     0.202 C 
BRANCH  16  17
HETATM   17  C9  UNL     1      -9.082  24.320   3.597  1.00  0.00    -0.031 A 
HETATM   18  C10 UNL     1      -9.041  23.081   4.311  1.00  0.00    -0.054 A 
HETATM   19  C11 UNL     1     -10.030  22.016   3.985  1.00  0.00     0.049 C 
HETATM   20  C12 UNL     1      -8.072  22.947   5.249  1.00  0.00     0.014 A 
HETATM   21  C13 UNL     1      -7.165  23.931   5.519  1.00  0.00    -0.061 A 
HETATM   22  C14 UNL     1      -5.952  23.638   6.390  1.00  0.00     0.048 C 
HETATM   23  C15 UNL     1      -7.245  25.130   4.823  1.00  0.00     0.014 A 
HETATM   24  C16 UNL     1      -8.237  25.306   3.845  1.00  0.00    -0.054 A 
HETATM   25  C17 UNL     1      -8.375  26.646   3.285  1.00  0.00     0.049 C 
ENDBRANCH  16  17
ENDBRANCH   1  16
TORSDOF 6
ENDMDL
MODEL 5
REMARK VINA RESULT: -7.936765201      1.345      2.890
REMARK  6 active torsions:
REMARK  status: ('A' for Active; 'I' for Inactive)
REMARK    1  A    between atoms: O1_2  and  C2_3 
REMARK    2  A    between atoms: C6_9  and  C7_10 
REMARK    3  A    between atoms: C7_10  and  N2_11 
REMARK    4  A    between atoms: N2_11  and  S1_13 
REMARK    5  A    between atoms: S1_13  and  C8_16 
REMARK    6  A    between atoms: C8_16  and  C9_17 
ROOT
HETATM    1  S1  UNL     1      -8.636  22.948   4.976  1.00  0.00     0.230 S 
HETATM    2  O2  UNL     1      -9.142  21.674   5.391  1.00  0.00    -0.206 OA
HETATM    3  O3  UNL     1      -7.532  22.576   3.879  1.00  0.00    -0.206 OA
ENDROOT
BRANCH   1   4
HETATM    4  N2  UNL     1      -7.822  23.858   6.117  1.00  0.00    -0.315 N 
ATOM      5  H2  UNL     1      -8.293  24.191   6.959  1.00  0.00     0.172 HD
BRANCH   4   6
HETATM    6  C7  UNL     1      -6.456  24.152   5.877  1.00  0.00     0.175 C 
BRANCH   6   7
HETATM    7  C6  UNL     1      -5.663  23.658   7.055  1.00  0.00     0.017 A 
HETATM    8  C2  UNL     1      -5.044  22.511   7.357  1.00  0.00     0.093 A 
HETATM    9  C3  UNL     1      -4.227  22.730   8.444  1.00  0.00     0.125 A 
HETATM   10  N1  UNL     1      -4.341  24.029   8.829  1.00  0.00    -0.366 N 
HETATM   11  C4  UNL     1      -5.197  24.603   8.010  1.00  0.00     0.015 A 
ATOM     12  H1  UNL     1      -3.855  24.475   9.607  1.00  0.00     0.165 HD
HETATM   13  C5  UNL     1      -5.624  26.030   7.999  1.00  0.00     0.069 C 
BRANCH   8  14
HETATM   14  O1  UNL     1      -5.233  21.287   6.666  1.00  0.00    -0.354 OA
HETATM   15  C1  UNL     1      -4.343  20.249   6.829  1.00  0.00     0.210 C 
ENDBRANCH   8  14
ENDBRANCH   6   7
ENDBRANCH   4   6
ENDBRANCH   1   4
BRANCH   1  16
HETATM   16  C8  UNL     1      -9.772  24.013   4.041  1.00  0.00     0.202 C 
BRANCH  16  17
HETATM   17  C9  UNL     1      -9.129  24.315   2.730  1.00  0.00    -0.031 A 
HETATM   18  C10 UNL     1      -9.682  23.436   1.746  1.00  0.00    -0.054 A 
HETATM   19  C11 UNL     1     -10.477  22.255   2.186  1.00  0.00     0.049 C 
HETATM   20  C12 UNL     1      -9.456  23.750   0.448  1.00  0.00     0.014 A 
HETATM   21  C13 UNL     1      -8.738  24.847   0.068  1.00  0.00    -0.061 A 
HETATM   22  C14 UNL     1      -8.729  25.293  -1.387  1.00  0.00     0.048 C 
HETATM   23  C15 UNL     1      -8.197  25.669   1.048  1.00  0.00     0.014 A 
HETATM   24  C16 UNL     1      -8.409  25.374   2.404  1.00  0.00    -0.054 A 
HETATM   25  C17 UNL     1      -7.665  26.172   3.372  1.00  0.00     0.049 C 
ENDBRANCH  16  17
ENDBRANCH   1  16
TORSDOF 6
ENDMDL
