MODEL 1
REMARK VINA RESULT: -7.609941492      0.000      0.000
REMARK  10 active torsions:
REMARK  status: ('A' for Active; 'I' for Inactive)
REMARK    1  A    between atoms: N1_2  and  C2_3 
REMARK    2  A    between atoms: N1_2  and  C4_7 
REMARK    3  A    between atoms: C2_3  and  C3_4 
REMARK    4  A    between atoms: C4_7  and  C5_8 
REMARK       I    between atoms: C5_8  and  N3_10 
REMARK    5  A    between atoms: N3_10  and  C6_12 
REMARK    6  A    between atoms: C6_12  and  C7_13 
REMARK    7  A    between atoms: C6_12  and  C9_19 
REMARK    8  A    between atoms: C7_13  and  C8_14 
REMARK    9  A    between atoms: C8_14  and  N4_15 
REMARK       I    between atoms: C9_19  and  N5_21 
REMARK   10  A    between atoms: N5_21  and  C10_23 
ROOT
HETATM    1  C6  UNL     1      10.465  40.672  32.905  1.00  0.00     0.178 C 
ENDROOT
BRANCH   1   2
HETATM    2  N3  UNL     1      11.416  39.554  32.743  1.00  0.00    -0.346 N 
HETATM    3  C5  UNL     1      12.015  39.302  31.489  1.00  0.00     0.246 C 
HETATM    4  O2  UNL     1      11.741  40.037  30.528  1.00  0.00    -0.272 OA
ATOM      5  H3  UNL     1      11.640  38.960  33.541  1.00  0.00     0.163 HD
BRANCH   3   6
HETATM    6  C4  UNL     1      12.954  38.184  31.322  1.00  0.00     0.374 C 
BRANCH   6   7
HETATM    7  N1  UNL     1      13.341  37.928  29.978  1.00  0.00     0.101 N 
HETATM    8  C1  UNL     1      12.228  37.868  29.054  1.00  0.00     0.311 C 
BRANCH   7   9
HETATM    9  C2  UNL     1      14.306  36.903  29.760  1.00  0.00     0.371 C 
BRANCH   9  10
HETATM   10  C3  UNL     1      15.368  37.358  28.814  1.00  0.00     0.259 C 
HETATM   11  N2  UNL     1      16.705  37.376  29.261  1.00  0.00    -0.061 NA
HETATM   12  O1  UNL     1      15.117  37.723  27.638  1.00  0.00    -0.275 OA
ENDBRANCH   9  10
ENDBRANCH   7   9
ENDBRANCH   6   7
ENDBRANCH   3   6
ENDBRANCH   1   2
BRANCH   1  13
HETATM   13  C7  UNL     1      11.243  41.951  33.173  1.00  0.00     0.062 C 
BRANCH  13  14
HETATM   14  C8  UNL     1      10.782  43.082  32.289  1.00  0.00     0.232 C 
BRANCH  14  15
HETATM   15  N4  UNL     1      11.002  42.776  30.893  1.00  0.00    -0.079 N 
ATOM     16  H43 UNL     1      11.858  42.238  30.757  1.00  0.00     0.274 HD
ATOM     17  H42 UNL     1      10.330  42.089  30.550  1.00  0.00     0.274 HD
ATOM     18  H41 UNL     1      10.996  43.622  30.325  1.00  0.00     0.274 HD
ENDBRANCH  14  15
ENDBRANCH  13  14
ENDBRANCH   1  13
BRANCH   1  19
HETATM   19  C9  UNL     1       9.482  40.406  33.973  1.00  0.00     0.240 C 
HETATM   20  O3  UNL     1       8.826  41.366  34.426  1.00  0.00    -0.271 OA
HETATM   21  N5  UNL     1       9.251  39.120  34.510  1.00  0.00    -0.355 N 
ATOM     22  H5  UNL     1       9.792  38.334  34.148  1.00  0.00     0.162 HD
BRANCH  21  23
HETATM   23  C10 UNL     1       8.273  38.871  35.558  1.00  0.00     0.084 C 
HETATM   24  C11 UNL     1       9.020  37.984  36.578  1.00  0.00     0.025 C 
HETATM   25  C12 UNL     1       9.093  38.649  37.934  1.00  0.00     0.002 C 
HETATM   26  C13 UNL     1       7.832  38.366  38.705  1.00  0.00     0.000 C 
HETATM   27  C14 UNL     1       7.282  39.573  39.423  1.00  0.00     0.000 C 
HETATM   28  C15 UNL     1       6.195  40.287  38.650  1.00  0.00     0.000 C 
HETATM   29  C16 UNL     1       4.989  39.442  38.371  1.00  0.00     0.000 C 
HETATM   30  C17 UNL     1       4.465  39.632  36.962  1.00  0.00     0.000 C 
HETATM   31  C18 UNL     1       4.381  38.343  36.192  1.00  0.00     0.000 C 
HETATM   32  C19 UNL     1       4.666  38.508  34.731  1.00  0.00     0.000 C 
HETATM   33  C20 UNL     1       6.061  39.019  34.431  1.00  0.00     0.002 C 
HETATM   34  C21 UNL     1       7.121  38.116  34.958  1.00  0.00     0.025 C 
ENDBRANCH  21  23
ENDBRANCH   1  19
TORSDOF 10
ENDMDL
MODEL 2
REMARK VINA RESULT: -7.584357132      1.321      2.463
REMARK  10 active torsions:
REMARK  status: ('A' for Active; 'I' for Inactive)
REMARK    1  A    between atoms: N1_2  and  C2_3 
REMARK    2  A    between atoms: N1_2  and  C4_7 
REMARK    3  A    between atoms: C2_3  and  C3_4 
REMARK    4  A    between atoms: C4_7  and  C5_8 
REMARK       I    between atoms: C5_8  and  N3_10 
REMARK    5  A    between atoms: N3_10  and  C6_12 
REMARK    6  A    between atoms: C6_12  and  C7_13 
REMARK    7  A    between atoms: C6_12  and  C9_19 
REMARK    8  A    between atoms: C7_13  and  C8_14 
REMARK    9  A    between atoms: C8_14  and  N4_15 
REMARK       I    between atoms: C9_19  and  N5_21 
REMARK   10  A    between atoms: N5_21  and  C10_23 
ROOT
HETATM    1  C6  UNL     1      10.485  40.466  32.839  1.00  0.00     0.178 C 
ENDROOT
BRANCH   1   2
HETATM    2  N3  UNL     1      11.621  39.535  32.683  1.00  0.00    -0.346 N 
HETATM    3  C5  UNL     1      11.989  39.065  31.402  1.00  0.00     0.246 C 
HETATM    4  O2  UNL     1      11.352  39.451  30.410  1.00  0.00    -0.272 OA
ATOM      5  H3  UNL     1      12.142  39.230  33.505  1.00  0.00     0.163 HD
BRANCH   3   6
HETATM    6  C4  UNL     1      13.112  38.132  31.244  1.00  0.00     0.374 C 
BRANCH   6   7
HETATM    7  N1  UNL     1      13.488  37.876  29.897  1.00  0.00     0.101 N 
HETATM    8  C1  UNL     1      12.367  37.810  28.983  1.00  0.00     0.311 C 
BRANCH   7   9
HETATM    9  C2  UNL     1      14.455  36.854  29.672  1.00  0.00     0.371 C 
BRANCH   9  10
HETATM   10  C3  UNL     1      15.557  37.343  28.789  1.00  0.00     0.259 C 
HETATM   11  N2  UNL     1      16.870  37.366  29.302  1.00  0.00    -0.061 NA
HETATM   12  O1  UNL     1      15.358  37.732  27.611  1.00  0.00    -0.275 OA
ENDBRANCH   9  10
ENDBRANCH   7   9
ENDBRANCH   6   7
ENDBRANCH   3   6
ENDBRANCH   1   2
BRANCH   1  13
HETATM   13  C7  UNL     1      11.021  41.871  33.069  1.00  0.00     0.062 C 
BRANCH  13  14
HETATM   14  C8  UNL     1      10.546  42.832  32.009  1.00  0.00     0.232 C 
BRANCH  14  15
HETATM   15  N4  UNL     1      11.082  42.484  30.712  1.00  0.00    -0.079 N 
ATOM     16  H43 UNL     1      11.937  41.935  30.794  1.00  0.00     0.274 HD
ATOM     17  H42 UNL     1      10.498  41.795  30.238  1.00  0.00     0.274 HD
ATOM     18  H41 UNL     1      11.223  43.315  30.138  1.00  0.00     0.274 HD
ENDBRANCH  14  15
ENDBRANCH  13  14
ENDBRANCH   1  13
BRANCH   1  19
HETATM   19  C9  UNL     1       9.580  40.049  33.928  1.00  0.00     0.240 C 
HETATM   20  O3  UNL     1       9.812  38.970  34.509  1.00  0.00    -0.271 OA
HETATM   21  N5  UNL     1       8.464  40.810  34.340  1.00  0.00    -0.355 N 
ATOM     22  H5  UNL     1       8.267  41.690  33.862  1.00  0.00     0.162 HD
BRANCH  21  23
HETATM   23  C10 UNL     1       7.584  40.391  35.421  1.00  0.00     0.084 C 
HETATM   24  C11 UNL     1       6.441  39.631  34.713  1.00  0.00     0.025 C 
HETATM   25  C12 UNL     1       6.360  38.197  35.187  1.00  0.00     0.002 C 
HETATM   26  C13 UNL     1       5.542  38.126  36.448  1.00  0.00     0.000 C 
HETATM   27  C14 UNL     1       6.141  37.230  37.503  1.00  0.00     0.000 C 
HETATM   28  C15 UNL     1       6.961  37.977  38.531  1.00  0.00     0.000 C 
HETATM   29  C16 UNL     1       6.184  38.995  39.309  1.00  0.00     0.000 C 
HETATM   30  C17 UNL     1       6.954  40.286  39.501  1.00  0.00     0.000 C 
HETATM   31  C18 UNL     1       6.211  41.490  38.990  1.00  0.00     0.000 C 
HETATM   32  C19 UNL     1       7.113  42.540  38.418  1.00  0.00     0.000 C 
HETATM   33  C20 UNL     1       7.917  42.075  37.220  1.00  0.00     0.002 C 
HETATM   34  C21 UNL     1       7.050  41.620  36.098  1.00  0.00     0.025 C 
ENDBRANCH  21  23
ENDBRANCH   1  19
TORSDOF 10
ENDMDL
MODEL 3
REMARK VINA RESULT: -7.415654936      2.754      6.080
REMARK  10 active torsions:
REMARK  status: ('A' for Active; 'I' for Inactive)
REMARK    1  A    between atoms: N1_2  and  C2_3 
REMARK    2  A    between atoms: N1_2  and  C4_7 
REMARK    3  A    between atoms: C2_3  and  C3_4 
REMARK    4  A    between atoms: C4_7  and  C5_8 
REMARK       I    between atoms: C5_8  and  N3_10 
REMARK    5  A    between atoms: N3_10  and  C6_12 
REMARK    6  A    between atoms: C6_12  and  C7_13 
REMARK    7  A    between atoms: C6_12  and  C9_19 
REMARK    8  A    between atoms: C7_13  and  C8_14 
REMARK    9  A    between atoms: C8_14  and  N4_15 
REMARK       I    between atoms: C9_19  and  N5_21 
REMARK   10  A    between atoms: N5_21  and  C10_23 
ROOT
HETATM    1  C6  UNL     1      10.636  40.887  32.736  1.00  0.00     0.178 C 
ENDROOT
BRANCH   1   2
HETATM    2  N3  UNL     1      10.330  42.307  32.470  1.00  0.00    -0.346 N 
HETATM    3  C5  UNL     1      11.166  43.325  32.981  1.00  0.00     0.246 C 
HETATM    4  O2  UNL     1      12.164  43.012  33.649  1.00  0.00    -0.272 OA
ATOM      5  H3  UNL     1       9.511  42.553  31.914  1.00  0.00     0.163 HD
BRANCH   3   6
HETATM    6  C4  UNL     1      10.860  44.739  32.726  1.00  0.00     0.374 C 
BRANCH   6   7
HETATM    7  N1  UNL     1      10.212  45.410  33.799  1.00  0.00     0.101 N 
HETATM    8  C1  UNL     1       9.002  46.101  33.406  1.00  0.00     0.311 C 
BRANCH   7   9
HETATM    9  C2  UNL     1      11.030  46.173  34.682  1.00  0.00     0.371 C 
BRANCH   9  10
HETATM   10  C3  UNL     1      10.882  45.704  36.092  1.00  0.00     0.259 C 
HETATM   11  N2  UNL     1      10.021  44.618  36.353  1.00  0.00    -0.061 NA
HETATM   12  O1  UNL     1      11.494  46.238  37.051  1.00  0.00    -0.275 OA
ENDBRANCH   9  10
ENDBRANCH   7   9
ENDBRANCH   6   7
ENDBRANCH   3   6
ENDBRANCH   1   2
BRANCH   1  13
HETATM   13  C7  UNL     1      10.527  40.102  31.438  1.00  0.00     0.062 C 
BRANCH  13  14
HETATM   14  C8  UNL     1      11.822  39.412  31.091  1.00  0.00     0.232 C 
BRANCH  14  15
HETATM   15  N4  UNL     1      12.415  38.799  32.258  1.00  0.00    -0.079 N 
ATOM     16  H43 UNL     1      13.385  38.530  32.088  1.00  0.00     0.274 HD
ATOM     17  H42 UNL     1      12.570  39.479  33.001  1.00  0.00     0.274 HD
ATOM     18  H41 UNL     1      11.858  38.009  32.582  1.00  0.00     0.274 HD
ENDBRANCH  14  15
ENDBRANCH  13  14
ENDBRANCH   1  13
BRANCH   1  19
HETATM   19  C9  UNL     1       9.758  40.323  33.780  1.00  0.00     0.240 C 
HETATM   20  O3  UNL     1      10.023  39.189  34.227  1.00  0.00    -0.271 OA
HETATM   21  N5  UNL     1       8.632  41.004  34.295  1.00  0.00    -0.355 N 
ATOM     22  H5  UNL     1       8.408  41.928  33.926  1.00  0.00     0.162 HD
BRANCH  21  23
HETATM   23  C10 UNL     1       7.779  40.439  35.330  1.00  0.00     0.084 C 
HETATM   24  C11 UNL     1       6.746  39.592  34.557  1.00  0.00     0.025 C 
HETATM   25  C12 UNL     1       6.814  38.137  34.965  1.00  0.00     0.002 C 
HETATM   26  C13 UNL     1       5.980  37.917  36.198  1.00  0.00     0.000 C 
HETATM   27  C14 UNL     1       6.650  37.044  37.230  1.00  0.00     0.000 C 
HETATM   28  C15 UNL     1       7.357  37.829  38.312  1.00  0.00     0.000 C 
HETATM   29  C16 UNL     1       6.452  38.717  39.111  1.00  0.00     0.000 C 
HETATM   30  C17 UNL     1       7.068  40.076  39.382  1.00  0.00     0.000 C 
HETATM   31  C18 UNL     1       6.208  41.212  38.903  1.00  0.00     0.000 C 
HETATM   32  C19 UNL     1       6.999  42.381  38.404  1.00  0.00     0.000 C 
HETATM   33  C20 UNL     1       7.879  42.064  37.210  1.00  0.00     0.002 C 
HETATM   34  C21 UNL     1       7.095  41.569  36.045  1.00  0.00     0.025 C 
ENDBRANCH  21  23
ENDBRANCH   1  19
TORSDOF 10
ENDMDL
MODEL 4
REMARK VINA RESULT: -7.204346401      2.722      5.963
REMARK  10 active torsions:
REMARK  status: ('A' for Active; 'I' for Inactive)
REMARK    1  A    between atoms: N1_2  and  C2_3 
REMARK    2  A    between atoms: N1_2  and  C4_7 
REMARK    3  A    between atoms: C2_3  and  C3_4 
REMARK    4  A    between atoms: C4_7  and  C5_8 
REMARK       I    between atoms: C5_8  and  N3_10 
REMARK    5  A    between atoms: N3_10  and  C6_12 
REMARK    6  A    between atoms: C6_12  and  C7_13 
REMARK    7  A    between atoms: C6_12  and  C9_19 
REMARK    8  A    between atoms: C7_13  and  C8_14 
REMARK    9  A    between atoms: C8_14  and  N4_15 
REMARK       I    between atoms: C9_19  and  N5_21 
REMARK   10  A    between atoms: N5_21  and  C10_23 
ROOT
HETATM    1  C6  UNL     1      10.742  40.841  32.650  1.00  0.00     0.178 C 
ENDROOT
BRANCH   1   2
HETATM    2  N3  UNL     1      10.492  42.278  32.418  1.00  0.00    -0.346 N 
HETATM    3  C5  UNL     1      11.287  43.254  33.061  1.00  0.00     0.246 C 
HETATM    4  O2  UNL     1      12.202  42.889  33.815  1.00  0.00    -0.272 OA
ATOM      5  H3  UNL     1       9.742  42.567  31.791  1.00  0.00     0.163 HD
BRANCH   3   6
HETATM    6  C4  UNL     1      11.035  44.684  32.840  1.00  0.00     0.374 C 
BRANCH   6   7
HETATM    7  N1  UNL     1      10.321  45.331  33.885  1.00  0.00     0.101 N 
HETATM    8  C1  UNL     1      11.163  46.111  34.768  1.00  0.00     0.311 C 
BRANCH   7   9
HETATM    9  C2  UNL     1       9.342  44.565  34.580  1.00  0.00     0.371 C 
BRANCH   9  10
HETATM   10  C3  UNL     1       8.009  44.666  33.912  1.00  0.00     0.259 C 
HETATM   11  N2  UNL     1       7.624  43.644  33.020  1.00  0.00    -0.061 NA
HETATM   12  O1  UNL     1       7.221  45.623  34.115  1.00  0.00    -0.275 OA
ENDBRANCH   9  10
ENDBRANCH   7   9
ENDBRANCH   6   7
ENDBRANCH   3   6
ENDBRANCH   1   2
BRANCH   1  13
HETATM   13  C7  UNL     1      10.551  40.085  31.344  1.00  0.00     0.062 C 
BRANCH  13  14
HETATM   14  C8  UNL     1      11.794  39.329  30.949  1.00  0.00     0.232 C 
BRANCH  14  15
HETATM   15  N4  UNL     1      12.445  38.755  32.104  1.00  0.00    -0.079 N 
ATOM     16  H43 UNL     1      12.992  37.930  31.855  1.00  0.00     0.274 HD
ATOM     17  H42 UNL     1      13.202  39.348  32.442  1.00  0.00     0.274 HD
ATOM     18  H41 UNL     1      11.772  38.549  32.842  1.00  0.00     0.274 HD
ENDBRANCH  14  15
ENDBRANCH  13  14
ENDBRANCH   1  13
BRANCH   1  19
HETATM   19  C9  UNL     1       9.878  40.300  33.717  1.00  0.00     0.240 C 
HETATM   20  O3  UNL     1      10.168  39.190  34.208  1.00  0.00    -0.271 OA
HETATM   21  N5  UNL     1       8.737  40.974  34.206  1.00  0.00    -0.355 N 
ATOM     22  H5  UNL     1       8.491  41.878  33.801  1.00  0.00     0.162 HD
BRANCH  21  23
HETATM   23  C10 UNL     1       7.897  40.431  35.264  1.00  0.00     0.084 C 
HETATM   24  C11 UNL     1       6.880  39.534  34.525  1.00  0.00     0.025 C 
HETATM   25  C12 UNL     1       6.979  38.098  34.988  1.00  0.00     0.002 C 
HETATM   26  C13 UNL     1       6.151  37.907  36.230  1.00  0.00     0.000 C 
HETATM   27  C14 UNL     1       6.841  37.088  37.292  1.00  0.00     0.000 C 
HETATM   28  C15 UNL     1       7.533  37.927  38.343  1.00  0.00     0.000 C 
HETATM   29  C16 UNL     1       6.612  38.826  39.110  1.00  0.00     0.000 C 
HETATM   30  C17 UNL     1       7.200  40.206  39.327  1.00  0.00     0.000 C 
HETATM   31  C18 UNL     1       6.316  41.305  38.808  1.00  0.00     0.000 C 
HETATM   32  C19 UNL     1       7.082  42.471  38.264  1.00  0.00     0.000 C 
HETATM   33  C20 UNL     1       7.966  42.128  37.081  1.00  0.00     0.002 C 
HETATM   34  C21 UNL     1       7.191  41.573  35.937  1.00  0.00     0.025 C 
ENDBRANCH  21  23
ENDBRANCH   1  19
TORSDOF 10
ENDMDL
MODEL 5
REMARK VINA RESULT: -7.146680195      4.233      8.393
REMARK  10 active torsions:
REMARK  status: ('A' for Active; 'I' for Inactive)
REMARK    1  A    between atoms: N1_2  and  C2_3 
REMARK    2  A    between atoms: N1_2  and  C4_7 
REMARK    3  A    between atoms: C2_3  and  C3_4 
REMARK    4  A    between atoms: C4_7  and  C5_8 
REMARK       I    between atoms: C5_8  and  N3_10 
REMARK    5  A    between atoms: N3_10  and  C6_12 
REMARK    6  A    between atoms: C6_12  and  C7_13 
REMARK    7  A    between atoms: C6_12  and  C9_19 
REMARK    8  A    between atoms: C7_13  and  C8_14 
REMARK    9  A    between atoms: C8_14  and  N4_15 
REMARK       I    between atoms: C9_19  and  N5_21 
REMARK   10  A    between atoms: N5_21  and  C10_23 
ROOT
HETATM    1  C6  UNL     1      10.823  41.499  30.765  1.00  0.00     0.178 C 
ENDROOT
BRANCH   1   2
HETATM    2  N3  UNL     1      11.047  40.451  29.749  1.00  0.00    -0.346 N 
HETATM    3  C5  UNL     1      11.768  39.281  30.076  1.00  0.00     0.246 C 
HETATM    4  O2  UNL     1      12.203  39.140  31.230  1.00  0.00    -0.272 OA
ATOM      5  H3  UNL     1      10.680  40.573  28.805  1.00  0.00     0.163 HD
BRANCH   3   6
HETATM    6  C4  UNL     1      12.001  38.241  29.066  1.00  0.00     0.374 C 
BRANCH   6   7
HETATM    7  N1  UNL     1      13.370  37.970  28.794  1.00  0.00     0.101 N 
HETATM    8  C1  UNL     1      13.667  37.833  27.384  1.00  0.00     0.311 C 
BRANCH   7   9
HETATM    9  C2  UNL     1      14.014  36.988  29.600  1.00  0.00     0.371 C 
BRANCH   9  10
HETATM   10  C3  UNL     1      15.397  37.417  29.968  1.00  0.00     0.259 C 
HETATM   11  N2  UNL     1      16.445  37.164  29.059  1.00  0.00    -0.061 NA
HETATM   12  O1  UNL     1      15.660  37.993  31.053  1.00  0.00    -0.275 OA
ENDBRANCH   9  10
ENDBRANCH   7   9
ENDBRANCH   6   7
ENDBRANCH   3   6
ENDBRANCH   1   2
BRANCH   1  13
HETATM   13  C7  UNL     1       9.675  41.078  31.669  1.00  0.00     0.062 C 
BRANCH  13  14
HETATM   14  C8  UNL     1      10.040  41.190  33.127  1.00  0.00     0.232 C 
BRANCH  14  15
HETATM   15  N4  UNL     1      11.461  41.397  33.294  1.00  0.00    -0.079 N 
ATOM     16  H43 UNL     1      11.876  40.684  33.894  1.00  0.00     0.274 HD
ATOM     17  H42 UNL     1      11.973  41.196  32.436  1.00  0.00     0.274 HD
ATOM     18  H41 UNL     1      11.658  42.337  33.637  1.00  0.00     0.274 HD
ENDBRANCH  14  15
ENDBRANCH  13  14
ENDBRANCH   1  13
BRANCH   1  19
HETATM   19  C9  UNL     1      10.569  42.816  30.148  1.00  0.00     0.240 C 
HETATM   20  O3  UNL     1       9.511  42.973  29.504  1.00  0.00    -0.271 OA
HETATM   21  N5  UNL     1      11.465  43.903  30.246  1.00  0.00    -0.355 N 
ATOM     22  H5  UNL     1      12.335  43.775  30.765  1.00  0.00     0.162 HD
BRANCH  21  23
HETATM   23  C10 UNL     1      11.198  45.198  29.639  1.00  0.00     0.084 C 
HETATM   24  C11 UNL     1      11.936  45.146  28.284  1.00  0.00     0.025 C 
HETATM   25  C12 UNL     1      10.975  45.322  27.129  1.00  0.00     0.002 C 
HETATM   26  C13 UNL     1      10.747  46.788  26.878  1.00  0.00     0.000 C 
HETATM   27  C14 UNL     1       9.301  47.138  26.630  1.00  0.00     0.000 C 
HETATM   28  C15 UNL     1       8.581  47.627  27.867  1.00  0.00     0.000 C 
HETATM   29  C16 UNL     1       9.166  48.873  28.460  1.00  0.00     0.000 C 
HETATM   30  C17 UNL     1       9.235  48.815  29.973  1.00  0.00     0.000 C 
HETATM   31  C18 UNL     1      10.624  49.039  30.503  1.00  0.00     0.000 C 
HETATM   32  C19 UNL     1      10.917  48.251  31.742  1.00  0.00     0.000 C 
HETATM   33  C20 UNL     1      10.840  46.749  31.549  1.00  0.00     0.002 C 
HETATM   34  C21 UNL     1      11.794  46.262  30.515  1.00  0.00     0.025 C 
ENDBRANCH  21  23
ENDBRANCH   1  19
TORSDOF 10
ENDMDL
