MODEL 1
REMARK VINA RESULT: -6.557660814      0.000      0.000
REMARK  12 active torsions:
REMARK  status: ('A' for Active; 'I' for Inactive)
REMARK    1  A    between atoms: C3_5  and  C4_6 
REMARK    2  A    between atoms: C3_5  and  C5_9 
REMARK    3  A    between atoms: C4_6  and  O1_7 
REMARK    4  A    between atoms: C5_9  and  O2_10 
REMARK    5  A    between atoms: O2_10  and  C6_11 
REMARK    6  A    between atoms: C6_11  and  C7_13 
REMARK    7  A    between atoms: C7_13  and  C8_14 
REMARK    8  A    between atoms: C8_14  and  C9_15 
REMARK    9  A    between atoms: C9_15  and  C10_16 
REMARK   10  A    between atoms: C10_16  and  C11_17 
REMARK   11  A    between atoms: C11_17  and  C12_18 
REMARK   12  A    between atoms: C20_31  and  O4_32 
ROOT
HETATM    1  C5  UNL     1      10.560  43.096  31.642  1.00  0.00     0.242 C 
ENDROOT
BRANCH   1   2
HETATM    2  C3  UNL     1      10.894  43.848  32.896  1.00  0.00     0.237 C 
HETATM    3  N1  UNL     1      12.044  44.648  32.727  1.00  0.00    -0.381 N 
HETATM    4  C2  UNL     1      12.410  45.444  33.874  1.00  0.00     0.105 C 
ATOM      5  H1  UNL     1      12.577  44.663  31.858  1.00  0.00     0.156 HD
HETATM    6  C1  UNL     1      13.484  44.709  34.629  1.00  0.00     0.034 C 
HETATM    7  C20 UNL     1      11.290  45.926  34.695  1.00  0.00     0.170 C 
HETATM    8  C18 UNL     1       9.970  45.247  34.541  1.00  0.00     0.215 C 
HETATM    9  N3  UNL     1       9.755  44.698  33.216  1.00  0.00    -0.038 N 
HETATM   10  C19 UNL     1       8.832  46.253  34.755  1.00  0.00     0.043 C 
ATOM     11  H32 UNL     1       9.586  45.416  32.512  1.00  0.00     0.280 HD
ATOM     12  H31 UNL     1       8.862  44.211  33.130  1.00  0.00     0.280 HD
BRANCH   7  13
HETATM   13  O4  UNL     1      11.637  45.864  36.047  1.00  0.00    -0.391 OA
ATOM     14  H4  UNL     1      11.414  46.683  36.472  1.00  0.00     0.210 HD
ENDBRANCH   7  13
BRANCH   2  15
HETATM   15  C4  UNL     1      11.085  42.797  33.979  1.00  0.00     0.227 C 
BRANCH  15  16
HETATM   16  O1  UNL     1      11.713  41.661  33.470  1.00  0.00    -0.397 OA
ATOM     17  H1  UNL     1      11.200  41.272  32.772  1.00  0.00     0.209 HD
ENDBRANCH  15  16
ENDBRANCH   2  15
ENDBRANCH   1   2
BRANCH   1  18
HETATM   18  O2  UNL     1       9.369  42.492  31.495  1.00  0.00    -0.317 OA
BRANCH  18  19
HETATM   19  C6  UNL     1       8.924  41.221  31.492  1.00  0.00     0.258 C 
HETATM   20  O3  UNL     1       9.142  40.487  32.478  1.00  0.00    -0.265 OA
BRANCH  19  21
HETATM   21  C7  UNL     1       8.161  40.679  30.298  1.00  0.00     0.111 C 
BRANCH  21  22
HETATM   22  C8  UNL     1       8.852  41.030  29.008  1.00  0.00     0.010 C 
BRANCH  22  23
HETATM   23  C9  UNL     1       9.524  39.827  28.402  1.00  0.00     0.001 C 
BRANCH  23  24
HETATM   24  C10 UNL     1      10.906  39.635  28.932  1.00  0.00     0.005 C 
BRANCH  24  25
HETATM   25  C11 UNL     1      11.282  38.244  29.291  1.00  0.00     0.040 C 
BRANCH  25  26
HETATM   26  C12 UNL     1      12.725  37.956  29.292  1.00  0.00    -0.034 A 
HETATM   27  C13 UNL     1      13.418  37.718  28.130  1.00  0.00     0.026 A 
HETATM   28  C14 UNL     1      14.787  37.455  28.140  1.00  0.00     0.090 A 
HETATM   29  N2  UNL     1      15.469  37.428  29.298  1.00  0.00    -0.369 N 
HETATM   30  C15 UNL     1      16.916  37.153  29.307  1.00  0.00     0.154 C 
HETATM   31  C16 UNL     1      14.818  37.656  30.445  1.00  0.00     0.114 A 
HETATM   32  C17 UNL     1      13.443  37.924  30.469  1.00  0.00     0.055 A 
HETATM   33 CL1  UNL     1      12.620  38.216  31.975  1.00  0.00    -0.082 Cl
ENDBRANCH  25  26
ENDBRANCH  24  25
ENDBRANCH  23  24
ENDBRANCH  22  23
ENDBRANCH  21  22
ENDBRANCH  19  21
ENDBRANCH  18  19
ENDBRANCH   1  18
TORSDOF 12
ENDMDL
MODEL 2
REMARK VINA RESULT: -6.403323950      5.211      7.008
REMARK  12 active torsions:
REMARK  status: ('A' for Active; 'I' for Inactive)
REMARK    1  A    between atoms: C3_5  and  C4_6 
REMARK    2  A    between atoms: C3_5  and  C5_9 
REMARK    3  A    between atoms: C4_6  and  O1_7 
REMARK    4  A    between atoms: C5_9  and  O2_10 
REMARK    5  A    between atoms: O2_10  and  C6_11 
REMARK    6  A    between atoms: C6_11  and  C7_13 
REMARK    7  A    between atoms: C7_13  and  C8_14 
REMARK    8  A    between atoms: C8_14  and  C9_15 
REMARK    9  A    between atoms: C9_15  and  C10_16 
REMARK   10  A    between atoms: C10_16  and  C11_17 
REMARK   11  A    between atoms: C11_17  and  C12_18 
REMARK   12  A    between atoms: C20_31  and  O4_32 
ROOT
HETATM    1  C5  UNL     1       7.918  38.834  34.838  1.00  0.00     0.242 C 
ENDROOT
BRANCH   1   2
HETATM    2  C3  UNL     1       7.350  37.895  35.860  1.00  0.00     0.237 C 
HETATM    3  N1  UNL     1       6.175  38.415  36.442  1.00  0.00    -0.381 N 
HETATM    4  C2  UNL     1       5.535  37.552  37.406  1.00  0.00     0.105 C 
ATOM      5  H1  UNL     1       5.805  39.335  36.200  1.00  0.00     0.156 HD
HETATM    6  C1  UNL     1       5.965  37.986  38.780  1.00  0.00     0.034 C 
HETATM    7  C20 UNL     1       5.652  36.111  37.142  1.00  0.00     0.170 C 
HETATM    8  C18 UNL     1       6.716  35.659  36.198  1.00  0.00     0.215 C 
HETATM    9  N3  UNL     1       7.043  36.642  35.183  1.00  0.00    -0.038 N 
HETATM   10  C19 UNL     1       6.244  34.420  35.428  1.00  0.00     0.043 C 
ATOM     11  H32 UNL     1       6.313  36.741  34.478  1.00  0.00     0.280 HD
ATOM     12  H31 UNL     1       7.791  36.335  34.561  1.00  0.00     0.280 HD
BRANCH   7  13
HETATM   13  O4  UNL     1       5.842  35.427  38.345  1.00  0.00    -0.391 OA
ATOM     14  H4  UNL     1       6.761  35.215  38.449  1.00  0.00     0.210 HD
ENDBRANCH   7  13
BRANCH   2  15
HETATM   15  C4  UNL     1       8.448  37.679  36.890  1.00  0.00     0.227 C 
BRANCH  15  16
HETATM   16  O1  UNL     1       9.711  37.805  36.311  1.00  0.00    -0.397 OA
ATOM     17  H1  UNL     1      10.278  38.348  36.844  1.00  0.00     0.209 HD
ENDBRANCH  15  16
ENDBRANCH   2  15
ENDBRANCH   1   2
BRANCH   1  18
HETATM   18  O2  UNL     1       8.452  40.012  35.204  1.00  0.00    -0.317 OA
BRANCH  18  19
HETATM   19  C6  UNL     1       7.975  41.207  35.603  1.00  0.00     0.258 C 
HETATM   20  O3  UNL     1       7.369  41.298  36.691  1.00  0.00    -0.265 OA
BRANCH  19  21
HETATM   21  C7  UNL     1       8.169  42.438  34.739  1.00  0.00     0.111 C 
BRANCH  21  22
HETATM   22  C8  UNL     1       8.963  42.113  33.502  1.00  0.00     0.010 C 
BRANCH  22  23
HETATM   23  C9  UNL     1      10.399  42.537  33.646  1.00  0.00     0.001 C 
BRANCH  23  24
HETATM   24  C10 UNL     1      11.333  41.568  33.001  1.00  0.00     0.005 C 
BRANCH  24  25
HETATM   25  C11 UNL     1      10.762  40.243  32.649  1.00  0.00     0.040 C 
BRANCH  25  26
HETATM   26  C12 UNL     1      11.410  39.549  31.525  1.00  0.00    -0.034 A 
HETATM   27  C13 UNL     1      12.474  38.702  31.712  1.00  0.00     0.026 A 
HETATM   28  C14 UNL     1      13.076  38.043  30.641  1.00  0.00     0.090 A 
HETATM   29  N2  UNL     1      12.624  38.221  29.387  1.00  0.00    -0.369 N 
HETATM   30  C15 UNL     1      13.258  37.521  28.257  1.00  0.00     0.154 C 
HETATM   31  C16 UNL     1      11.587  39.041  29.177  1.00  0.00     0.114 A 
HETATM   32  C17 UNL     1      10.960  39.719  30.232  1.00  0.00     0.055 A 
HETATM   33 CL1  UNL     1       9.614  40.780  29.931  1.00  0.00    -0.082 Cl
ENDBRANCH  25  26
ENDBRANCH  24  25
ENDBRANCH  23  24
ENDBRANCH  22  23
ENDBRANCH  21  22
ENDBRANCH  19  21
ENDBRANCH  18  19
ENDBRANCH   1  18
TORSDOF 12
ENDMDL
MODEL 3
REMARK VINA RESULT: -6.331413086      3.247      5.580
REMARK  12 active torsions:
REMARK  status: ('A' for Active; 'I' for Inactive)
REMARK    1  A    between atoms: C3_5  and  C4_6 
REMARK    2  A    between atoms: C3_5  and  C5_9 
REMARK    3  A    between atoms: C4_6  and  O1_7 
REMARK    4  A    between atoms: C5_9  and  O2_10 
REMARK    5  A    between atoms: O2_10  and  C6_11 
REMARK    6  A    between atoms: C6_11  and  C7_13 
REMARK    7  A    between atoms: C7_13  and  C8_14 
REMARK    8  A    between atoms: C8_14  and  C9_15 
REMARK    9  A    between atoms: C9_15  and  C10_16 
REMARK   10  A    between atoms: C10_16  and  C11_17 
REMARK   11  A    between atoms: C11_17  and  C12_18 
REMARK   12  A    between atoms: C20_31  and  O4_32 
ROOT
HETATM    1  C5  UNL     1      10.274  41.476  33.222  1.00  0.00     0.242 C 
ENDROOT
BRANCH   1   2
HETATM    2  C3  UNL     1      10.741  42.852  33.595  1.00  0.00     0.237 C 
HETATM    3  N1  UNL     1      10.067  43.334  34.737  1.00  0.00    -0.381 N 
HETATM    4  C2  UNL     1      10.490  44.636  35.194  1.00  0.00     0.105 C 
ATOM      5  H1  UNL     1       9.335  42.800  35.206  1.00  0.00     0.156 HD
HETATM    6  C1  UNL     1       9.528  45.657  34.651  1.00  0.00     0.034 C 
HETATM    7  C20 UNL     1      11.912  44.948  34.989  1.00  0.00     0.170 C 
HETATM    8  C18 UNL     1      12.672  44.126  34.002  1.00  0.00     0.215 C 
HETATM    9  N3  UNL     1      12.169  42.772  33.871  1.00  0.00    -0.038 N 
HETATM   10  C19 UNL     1      14.130  43.978  34.452  1.00  0.00     0.043 C 
ATOM     11  H32 UNL     1      12.384  42.190  34.680  1.00  0.00     0.280 HD
ATOM     12  H31 UNL     1      12.677  42.227  33.174  1.00  0.00     0.280 HD
BRANCH   7  13
HETATM   13  O4  UNL     1      12.049  46.287  34.611  1.00  0.00    -0.391 OA
ATOM     14  H4  UNL     1      12.342  46.800  35.354  1.00  0.00     0.210 HD
ENDBRANCH   7  13
BRANCH   2  15
HETATM   15  C4  UNL     1      10.491  43.727  32.375  1.00  0.00     0.227 C 
BRANCH  15  16
HETATM   16  O1  UNL     1       9.522  43.163  31.545  1.00  0.00    -0.397 OA
ATOM     17  H1  UNL     1       9.607  43.484  30.655  1.00  0.00     0.209 HD
ENDBRANCH  15  16
ENDBRANCH   2  15
ENDBRANCH   1   2
BRANCH   1  18
HETATM   18  O2  UNL     1      11.149  40.469  33.065  1.00  0.00    -0.317 OA
BRANCH  18  19
HETATM   19  C6  UNL     1      11.587  39.721  32.034  1.00  0.00     0.258 C 
HETATM   20  O3  UNL     1      12.202  38.659  32.258  1.00  0.00    -0.265 OA
BRANCH  19  21
HETATM   21  C7  UNL     1      11.336  40.164  30.605  1.00  0.00     0.111 C 
BRANCH  21  22
HETATM   22  C8  UNL     1      11.208  38.980  29.684  1.00  0.00     0.010 C 
BRANCH  22  23
HETATM   23  C9  UNL     1       9.908  39.014  28.927  1.00  0.00     0.001 C 
BRANCH  23  24
HETATM   24  C10 UNL     1       9.051  40.162  29.345  1.00  0.00     0.005 C 
BRANCH  24  25
HETATM   25  C11 UNL     1       7.584  39.969  29.207  1.00  0.00     0.040 C 
BRANCH  25  26
HETATM   26  C12 UNL     1       7.043  40.160  27.852  1.00  0.00    -0.034 A 
HETATM   27  C13 UNL     1       7.075  41.380  27.223  1.00  0.00     0.026 A 
HETATM   28  C14 UNL     1       6.568  41.548  25.936  1.00  0.00     0.090 A 
HETATM   29  N2  UNL     1       6.029  40.511  25.272  1.00  0.00    -0.369 N 
HETATM   30  C15 UNL     1       5.496  40.690  23.911  1.00  0.00     0.154 C 
HETATM   31  C16 UNL     1       5.985  39.310  25.862  1.00  0.00     0.114 A 
HETATM   32  C17 UNL     1       6.487  39.107  27.155  1.00  0.00     0.055 A 
HETATM   33 CL1  UNL     1       6.416  37.536  27.900  1.00  0.00    -0.082 Cl
ENDBRANCH  25  26
ENDBRANCH  24  25
ENDBRANCH  23  24
ENDBRANCH  22  23
ENDBRANCH  21  22
ENDBRANCH  19  21
ENDBRANCH  18  19
ENDBRANCH   1  18
TORSDOF 12
ENDMDL
MODEL 4
REMARK VINA RESULT: -6.314420296      6.325      8.370
REMARK  12 active torsions:
REMARK  status: ('A' for Active; 'I' for Inactive)
REMARK    1  A    between atoms: C3_5  and  C4_6 
REMARK    2  A    between atoms: C3_5  and  C5_9 
REMARK    3  A    between atoms: C4_6  and  O1_7 
REMARK    4  A    between atoms: C5_9  and  O2_10 
REMARK    5  A    between atoms: O2_10  and  C6_11 
REMARK    6  A    between atoms: C6_11  and  C7_13 
REMARK    7  A    between atoms: C7_13  and  C8_14 
REMARK    8  A    between atoms: C8_14  and  C9_15 
REMARK    9  A    between atoms: C9_15  and  C10_16 
REMARK   10  A    between atoms: C10_16  and  C11_17 
REMARK   11  A    between atoms: C11_17  and  C12_18 
REMARK   12  A    between atoms: C20_31  and  O4_32 
ROOT
HETATM    1  C5  UNL     1       6.597  37.120  37.613  1.00  0.00     0.242 C 
ENDROOT
BRANCH   1   2
HETATM    2  C3  UNL     1       6.169  35.939  36.793  1.00  0.00     0.237 C 
HETATM    3  N1  UNL     1       5.845  34.835  37.609  1.00  0.00    -0.381 N 
HETATM    4  C2  UNL     1       5.377  33.667  36.901  1.00  0.00     0.105 C 
ATOM      5  H1  UNL     1       5.935  34.860  38.625  1.00  0.00     0.156 HD
HETATM    6  C1  UNL     1       6.540  32.728  36.729  1.00  0.00     0.034 C 
HETATM    7  C20 UNL     1       4.605  33.933  35.680  1.00  0.00     0.170 C 
HETATM    8  C18 UNL     1       4.718  35.288  35.064  1.00  0.00     0.215 C 
HETATM    9  N3  UNL     1       4.996  36.337  36.026  1.00  0.00    -0.038 N 
HETATM   10  C19 UNL     1       3.389  35.680  34.406  1.00  0.00     0.043 C 
ATOM     11  H32 UNL     1       4.193  36.556  36.616  1.00  0.00     0.280 HD
ATOM     12  H31 UNL     1       5.099  37.255  35.593  1.00  0.00     0.280 HD
BRANCH   7  13
HETATM   13  O4  UNL     1       4.943  32.999  34.697  1.00  0.00    -0.391 OA
ATOM     14  H4  UNL     1       5.707  33.299  34.220  1.00  0.00     0.210 HD
ENDBRANCH   7  13
BRANCH   2  15
HETATM   15  C4  UNL     1       7.329  35.635  35.856  1.00  0.00     0.227 C 
BRANCH  15  16
HETATM   16  O1  UNL     1       8.522  35.500  36.564  1.00  0.00    -0.397 OA
ATOM     17  H1  UNL     1       8.366  35.151  37.434  1.00  0.00     0.209 HD
ENDBRANCH  15  16
ENDBRANCH   2  15
ENDBRANCH   1   2
BRANCH   1  18
HETATM   18  O2  UNL     1       7.566  37.946  37.182  1.00  0.00    -0.317 OA
BRANCH  18  19
HETATM   19  C6  UNL     1       7.614  39.171  36.625  1.00  0.00     0.258 C 
HETATM   20  O3  UNL     1       6.987  40.113  37.149  1.00  0.00    -0.265 OA
BRANCH  19  21
HETATM   21  C7  UNL     1       8.425  39.409  35.365  1.00  0.00     0.111 C 
BRANCH  21  22
HETATM   22  C8  UNL     1       7.529  39.650  34.180  1.00  0.00     0.010 C 
BRANCH  22  23
HETATM   23  C9  UNL     1       8.100  40.702  33.268  1.00  0.00     0.001 C 
BRANCH  23  24
HETATM   24  C10 UNL     1       9.491  40.372  32.839  1.00  0.00     0.005 C 
BRANCH  24  25
HETATM   25  C11 UNL     1       9.753  40.416  31.377  1.00  0.00     0.040 C 
BRANCH  25  26
HETATM   26  C12 UNL     1      10.879  39.593  30.909  1.00  0.00    -0.034 A 
HETATM   27  C13 UNL     1      11.862  39.154  31.762  1.00  0.00     0.026 A 
HETATM   28  C14 UNL     1      12.920  38.367  31.310  1.00  0.00     0.090 A 
HETATM   29  N2  UNL     1      13.005  38.015  30.015  1.00  0.00    -0.369 N 
HETATM   30  C15 UNL     1      14.122  37.181  29.539  1.00  0.00     0.154 C 
HETATM   31  C16 UNL     1      12.061  38.429  29.162  1.00  0.00     0.114 A 
HETATM   32  C17 UNL     1      10.984  39.221  29.584  1.00  0.00     0.055 A 
HETATM   33 CL1  UNL     1       9.770  39.747  28.454  1.00  0.00    -0.082 Cl
ENDBRANCH  25  26
ENDBRANCH  24  25
ENDBRANCH  23  24
ENDBRANCH  22  23
ENDBRANCH  21  22
ENDBRANCH  19  21
ENDBRANCH  18  19
ENDBRANCH   1  18
TORSDOF 12
ENDMDL
MODEL 5
REMARK VINA RESULT: -6.196004422      3.851      7.743
REMARK  12 active torsions:
REMARK  status: ('A' for Active; 'I' for Inactive)
REMARK    1  A    between atoms: C3_5  and  C4_6 
REMARK    2  A    between atoms: C3_5  and  C5_9 
REMARK    3  A    between atoms: C4_6  and  O1_7 
REMARK    4  A    between atoms: C5_9  and  O2_10 
REMARK    5  A    between atoms: O2_10  and  C6_11 
REMARK    6  A    between atoms: C6_11  and  C7_13 
REMARK    7  A    between atoms: C7_13  and  C8_14 
REMARK    8  A    between atoms: C8_14  and  C9_15 
REMARK    9  A    between atoms: C9_15  and  C10_16 
REMARK   10  A    between atoms: C10_16  and  C11_17 
REMARK   11  A    between atoms: C11_17  and  C12_18 
REMARK   12  A    between atoms: C20_31  and  O4_32 
ROOT
HETATM    1  C5  UNL     1      11.100  42.297  33.571  1.00  0.00     0.242 C 
ENDROOT
BRANCH   1   2
HETATM    2  C3  UNL     1      10.807  41.378  32.422  1.00  0.00     0.237 C 
HETATM    3  N1  UNL     1      10.736  42.085  31.203  1.00  0.00    -0.381 N 
HETATM    4  C2  UNL     1      10.503  41.268  30.036  1.00  0.00     0.105 C 
ATOM      5  H1  UNL     1      10.841  43.098  31.150  1.00  0.00     0.156 HD
HETATM    6  C1  UNL     1       9.033  41.312  29.720  1.00  0.00     0.034 C 
HETATM    7  C20 UNL     1      11.092  39.923  30.076  1.00  0.00     0.170 C 
HETATM    8  C18 UNL     1      11.495  39.377  31.405  1.00  0.00     0.215 C 
HETATM    9  N3  UNL     1      11.885  40.401  32.355  1.00  0.00    -0.038 N 
HETATM   10  C19 UNL     1      12.725  38.473  31.252  1.00  0.00     0.043 C 
ATOM     11  H32 UNL     1      12.788  40.821  32.136  1.00  0.00     0.280 HD
ATOM     12  H31 UNL     1      12.131  40.020  33.269  1.00  0.00     0.280 HD
BRANCH   7  13
HETATM   13  O4  UNL     1      10.210  39.006  29.498  1.00  0.00    -0.391 OA
ATOM     14  H4  UNL     1      10.094  38.264  30.079  1.00  0.00     0.210 HD
ENDBRANCH   7  13
BRANCH   2  15
HETATM   15  C4  UNL     1       9.493  40.689  32.759  1.00  0.00     0.227 C 
BRANCH  15  16
HETATM   16  O1  UNL     1       9.489  40.236  34.078  1.00  0.00    -0.397 OA
ATOM     17  H1  UNL     1       9.266  39.314  34.122  1.00  0.00     0.209 HD
ENDBRANCH  15  16
ENDBRANCH   2  15
ENDBRANCH   1   2
BRANCH   1  18
HETATM   18  O2  UNL     1      12.265  42.964  33.643  1.00  0.00    -0.317 OA
BRANCH  18  19
HETATM   19  C6  UNL     1      12.813  43.863  34.482  1.00  0.00     0.258 C 
HETATM   20  O3  UNL     1      14.022  43.774  34.780  1.00  0.00    -0.265 OA
BRANCH  19  21
HETATM   21  C7  UNL     1      11.970  44.981  35.066  1.00  0.00     0.111 C 
BRANCH  21  22
HETATM   22  C8  UNL     1      11.729  46.066  34.050  1.00  0.00     0.010 C 
BRANCH  22  23
HETATM   23  C9  UNL     1      10.331  45.997  33.498  1.00  0.00     0.001 C 
BRANCH  23  24
HETATM   24  C10 UNL     1      10.315  45.524  32.082  1.00  0.00     0.005 C 
BRANCH  24  25
HETATM   25  C11 UNL     1      11.536  45.806  31.284  1.00  0.00     0.040 C 
BRANCH  25  26
HETATM   26  C12 UNL     1      11.305  46.376  29.948  1.00  0.00    -0.034 A 
HETATM   27  C13 UNL     1      11.396  45.615  28.808  1.00  0.00     0.026 A 
HETATM   28  C14 UNL     1      11.166  46.163  27.547  1.00  0.00     0.090 A 
HETATM   29  N2  UNL     1      10.845  47.462  27.414  1.00  0.00    -0.369 N 
HETATM   30  C15 UNL     1      10.599  48.038  26.082  1.00  0.00     0.154 C 
HETATM   31  C16 UNL     1      10.748  48.226  28.509  1.00  0.00     0.114 A 
HETATM   32  C17 UNL     1      10.973  47.706  29.790  1.00  0.00     0.055 A 
HETATM   33 CL1  UNL     1      10.842  48.722  31.198  1.00  0.00    -0.082 Cl
ENDBRANCH  25  26
ENDBRANCH  24  25
ENDBRANCH  23  24
ENDBRANCH  22  23
ENDBRANCH  21  22
ENDBRANCH  19  21
ENDBRANCH  18  19
ENDBRANCH   1  18
TORSDOF 12
ENDMDL
