MODEL 1
REMARK VINA RESULT: -7.151815458      0.000      0.000
REMARK  11 active torsions:
REMARK  status: ('A' for Active; 'I' for Inactive)
REMARK    1  A    between atoms: C2_2  and  C3_3 
REMARK    2  A    between atoms: C3_3  and  N1_4 
REMARK    3  A    between atoms: C5_7  and  C6_8 
REMARK    4  A    between atoms: C9_11  and  O2_12 
REMARK    5  A    between atoms: C10_16  and  C11_17 
REMARK    6  A    between atoms: C11_17  and  C12_18 
REMARK    7  A    between atoms: N4_24  and  C16_26 
REMARK    8  A    between atoms: C16_26  and  C17_27 
REMARK    9  A    between atoms: C17_27  and  C18_28 
REMARK   10  A    between atoms: C18_28  and  C19_29 
REMARK   11  A    between atoms: C19_29  and  N5_30 
ROOT
HETATM    1  N1  UNL     1      11.554  43.673  32.890  1.00  0.00    -0.273 N 
HETATM    2  C4  UNL     1      11.181  42.320  32.578  1.00  0.00     0.277 A 
HETATM    3  O1  UNL     1      11.268  41.439  33.501  1.00  0.00    -0.265 OA
HETATM    4  C5  UNL     1      10.731  42.023  31.239  1.00  0.00     0.103 A 
HETATM    5  N3  UNL     1      10.680  43.108  30.272  1.00  0.00    -0.334 N 
ATOM      6  H3  UNL     1      10.365  42.908  29.323  1.00  0.00     0.168 HD
HETATM    7  C15 UNL     1      11.051  44.420  30.601  1.00  0.00     0.171 A 
HETATM    8  N4  UNL     1      11.031  45.396  29.749  1.00  0.00    -0.372 N 
ATOM      9  H4  UNL     1      11.311  46.333  30.041  1.00  0.00     0.161 HD
HETATM   10  C20 UNL     1      11.503  44.723  31.948  1.00  0.00     0.294 A 
HETATM   11  O3  UNL     1      11.840  45.894  32.264  1.00  0.00    -0.264 OA
ENDROOT
BRANCH   4  12
HETATM   12  C6  UNL     1      10.341  40.830  30.855  1.00  0.00     0.049 C 
HETATM   13  C7  UNL     1      11.042  39.757  30.210  1.00  0.00    -0.007 A 
HETATM   14  C8  UNL     1      12.179  39.076  30.583  1.00  0.00     0.069 A 
HETATM   15  C10 UNL     1      10.606  39.217  28.975  1.00  0.00     0.022 A 
HETATM   16  C9  UNL     1      12.429  38.147  29.602  1.00  0.00     0.140 A 
HETATM   17  N2  UNL     1      11.478  38.258  28.666  1.00  0.00    -0.340 N 
ATOM     18  H2  UNL     1      11.427  37.683  27.824  1.00  0.00     0.167 HD
BRANCH  16  19
HETATM   19  O2  UNL     1      13.472  37.237  29.556  1.00  0.00    -0.346 OA
ATOM     20  H2  UNL     1      13.749  36.718  28.810  1.00  0.00     0.219 HD
ENDBRANCH  16  19
BRANCH  15  21
HETATM   21  C11 UNL     1       9.410  39.696  28.246  1.00  0.00     0.062 C 
BRANCH  21  22
HETATM   22  C12 UNL     1       8.167  39.045  28.764  1.00  0.00    -0.017 C 
HETATM   23  C13 UNL     1       7.478  38.221  27.686  1.00  0.00     0.010 C 
HETATM   24  C14 UNL     1       7.145  40.050  29.244  1.00  0.00     0.010 C 
ENDBRANCH  21  22
ENDBRANCH  15  21
ENDBRANCH   4  12
BRANCH   1  25
HETATM   25  C3  UNL     1      12.005  43.924  34.266  1.00  0.00     0.162 C 
BRANCH  25  26
HETATM   26  C2  UNL     1      13.483  43.849  34.382  1.00  0.00    -0.017 C 
HETATM   27  C1  UNL     1      14.175  44.588  35.239  1.00  0.00     0.008 C 
ENDBRANCH  25  26
ENDBRANCH   1  25
BRANCH   8  28
HETATM   28  C16 UNL     1      10.620  45.165  28.407  1.00  0.00     0.121 C 
BRANCH  28  29
HETATM   29  C17 UNL     1      11.355  46.126  27.455  1.00  0.00     0.021 C 
BRANCH  29  30
HETATM   30  C18 UNL     1      10.724  47.484  27.649  1.00  0.00     0.029 C 
BRANCH  30  31
HETATM   31  C19 UNL     1      10.721  48.288  26.359  1.00  0.00     0.229 C 
BRANCH  31  32
HETATM   32  N5  UNL     1      10.847  49.700  26.614  1.00  0.00    -0.079 N 
ATOM     33  H53 UNL     1      10.354  49.970  27.465  1.00  0.00     0.274 HD
ATOM     34  H52 UNL     1      11.796  49.944  26.895  1.00  0.00     0.274 HD
ATOM     35  H51 UNL     1      10.542  50.254  25.814  1.00  0.00     0.274 HD
ENDBRANCH  31  32
ENDBRANCH  30  31
ENDBRANCH  29  30
ENDBRANCH  28  29
ENDBRANCH   8  28
TORSDOF 11
ENDMDL
MODEL 2
REMARK VINA RESULT: -7.023435998      1.162      1.225
REMARK  11 active torsions:
REMARK  status: ('A' for Active; 'I' for Inactive)
REMARK    1  A    between atoms: C2_2  and  C3_3 
REMARK    2  A    between atoms: C3_3  and  N1_4 
REMARK    3  A    between atoms: C5_7  and  C6_8 
REMARK    4  A    between atoms: C9_11  and  O2_12 
REMARK    5  A    between atoms: C10_16  and  C11_17 
REMARK    6  A    between atoms: C11_17  and  C12_18 
REMARK    7  A    between atoms: N4_24  and  C16_26 
REMARK    8  A    between atoms: C16_26  and  C17_27 
REMARK    9  A    between atoms: C17_27  and  C18_28 
REMARK   10  A    between atoms: C18_28  and  C19_29 
REMARK   11  A    between atoms: C19_29  and  N5_30 
ROOT
HETATM    1  N1  UNL     1      11.251  43.637  33.162  1.00  0.00    -0.273 N 
HETATM    2  C4  UNL     1      10.968  42.295  32.732  1.00  0.00     0.277 A 
HETATM    3  O1  UNL     1      11.350  41.327  33.476  1.00  0.00    -0.265 OA
HETATM    4  C5  UNL     1      10.272  42.106  31.482  1.00  0.00     0.103 A 
HETATM    5  N3  UNL     1       9.894  43.285  30.719  1.00  0.00    -0.334 N 
ATOM      6  H3  UNL     1       9.403  43.163  29.833  1.00  0.00     0.168 HD
HETATM    7  C15 UNL     1      10.182  44.585  31.160  1.00  0.00     0.171 A 
HETATM    8  N4  UNL     1       9.871  45.647  30.486  1.00  0.00    -0.372 N 
ATOM      9  H4  UNL     1      10.104  46.570  30.853  1.00  0.00     0.161 HD
HETATM   10  C20 UNL     1      10.881  44.779  32.419  1.00  0.00     0.294 A 
HETATM   11  O3  UNL     1      11.150  45.937  32.833  1.00  0.00    -0.264 OA
ENDROOT
BRANCH   4  12
HETATM   12  C6  UNL     1       9.940  40.928  31.010  1.00  0.00     0.049 C 
HETATM   13  C7  UNL     1      10.702  39.924  30.325  1.00  0.00    -0.007 A 
HETATM   14  C8  UNL     1      11.849  39.260  30.697  1.00  0.00     0.069 A 
HETATM   15  C10 UNL     1      10.330  39.449  29.043  1.00  0.00     0.022 A 
HETATM   16  C9  UNL     1      12.167  38.405  29.669  1.00  0.00     0.140 A 
HETATM   17  N2  UNL     1      11.246  38.543  28.706  1.00  0.00    -0.340 N 
ATOM     18  H2  UNL     1      11.247  38.022  27.829  1.00  0.00     0.167 HD
BRANCH  16  19
HETATM   19  O2  UNL     1      13.245  37.537  29.604  1.00  0.00    -0.346 OA
ATOM     20  H2  UNL     1      14.023  37.626  29.067  1.00  0.00     0.219 HD
ENDBRANCH  16  19
BRANCH  15  21
HETATM   21  C11 UNL     1       9.142  39.933  28.301  1.00  0.00     0.062 C 
BRANCH  21  22
HETATM   22  C12 UNL     1       7.922  39.150  28.669  1.00  0.00    -0.017 C 
HETATM   23  C13 UNL     1       7.358  38.400  27.471  1.00  0.00     0.010 C 
HETATM   24  C14 UNL     1       6.805  40.028  29.182  1.00  0.00     0.010 C 
ENDBRANCH  21  22
ENDBRANCH  15  21
ENDBRANCH   4  12
BRANCH   1  25
HETATM   25  C3  UNL     1      11.961  43.776  34.442  1.00  0.00     0.162 C 
BRANCH  25  26
HETATM   26  C2  UNL     1      13.431  43.842  34.250  1.00  0.00    -0.017 C 
HETATM   27  C1  UNL     1      14.232  44.522  35.059  1.00  0.00     0.008 C 
ENDBRANCH  25  26
ENDBRANCH   1  25
BRANCH   8  28
HETATM   28  C16 UNL     1       9.205  45.529  29.235  1.00  0.00     0.121 C 
BRANCH  28  29
HETATM   29  C17 UNL     1       9.490  46.766  28.364  1.00  0.00     0.021 C 
BRANCH  29  30
HETATM   30  C18 UNL     1      10.993  46.870  28.248  1.00  0.00     0.029 C 
BRANCH  30  31
HETATM   31  C19 UNL     1      11.473  46.490  26.857  1.00  0.00     0.229 C 
BRANCH  31  32
HETATM   32  N5  UNL     1      11.889  45.113  26.797  1.00  0.00    -0.079 N 
ATOM     33  H53 UNL     1      11.166  44.523  26.387  1.00  0.00     0.274 HD
ATOM     34  H52 UNL     1      12.621  44.975  26.100  1.00  0.00     0.274 HD
ATOM     35  H51 UNL     1      12.178  44.768  27.713  1.00  0.00     0.274 HD
ENDBRANCH  31  32
ENDBRANCH  30  31
ENDBRANCH  29  30
ENDBRANCH  28  29
ENDBRANCH   8  28
TORSDOF 11
ENDMDL
MODEL 3
REMARK VINA RESULT: -6.935063829      1.338      1.734
REMARK  11 active torsions:
REMARK  status: ('A' for Active; 'I' for Inactive)
REMARK    1  A    between atoms: C2_2  and  C3_3 
REMARK    2  A    between atoms: C3_3  and  N1_4 
REMARK    3  A    between atoms: C5_7  and  C6_8 
REMARK    4  A    between atoms: C9_11  and  O2_12 
REMARK    5  A    between atoms: C10_16  and  C11_17 
REMARK    6  A    between atoms: C11_17  and  C12_18 
REMARK    7  A    between atoms: N4_24  and  C16_26 
REMARK    8  A    between atoms: C16_26  and  C17_27 
REMARK    9  A    between atoms: C17_27  and  C18_28 
REMARK   10  A    between atoms: C18_28  and  C19_29 
REMARK   11  A    between atoms: C19_29  and  N5_30 
ROOT
HETATM    1  N1  UNL     1      11.411  43.733  33.191  1.00  0.00    -0.273 N 
HETATM    2  C4  UNL     1      11.068  42.401  32.773  1.00  0.00     0.277 A 
HETATM    3  O1  UNL     1      11.381  41.426  33.540  1.00  0.00    -0.265 OA
HETATM    4  C5  UNL     1      10.392  42.229  31.509  1.00  0.00     0.103 A 
HETATM    5  N3  UNL     1      10.095  43.414  30.721  1.00  0.00    -0.334 N 
ATOM      6  H3  UNL     1       9.619  43.304  29.825  1.00  0.00     0.168 HD
HETATM    7  C15 UNL     1      10.440  44.703  31.150  1.00  0.00     0.171 A 
HETATM    8  N4  UNL     1      10.200  45.770  30.453  1.00  0.00    -0.372 N 
ATOM      9  H4  UNL     1      10.473  46.685  30.812  1.00  0.00     0.161 HD
HETATM   10  C20 UNL     1      11.119  44.880  32.422  1.00  0.00     0.294 A 
HETATM   11  O3  UNL     1      11.437  46.029  32.826  1.00  0.00    -0.264 OA
ENDROOT
BRANCH   4  12
HETATM   12  C6  UNL     1      10.011  41.063  31.046  1.00  0.00     0.049 C 
HETATM   13  C7  UNL     1      10.719  40.039  30.333  1.00  0.00    -0.007 A 
HETATM   14  C8  UNL     1      11.859  39.341  30.664  1.00  0.00     0.069 A 
HETATM   15  C10 UNL     1      10.289  39.579  29.064  1.00  0.00     0.022 A 
HETATM   16  C9  UNL     1      12.116  38.480  29.623  1.00  0.00     0.140 A 
HETATM   17  N2  UNL     1      11.167  38.648  28.694  1.00  0.00    -0.340 N 
ATOM     18  H2  UNL     1      11.122  38.130  27.816  1.00  0.00     0.167 HD
BRANCH  16  19
HETATM   19  O2  UNL     1      13.165  37.581  29.520  1.00  0.00    -0.346 OA
ATOM     20  H2  UNL     1      13.926  37.649  28.955  1.00  0.00     0.219 HD
ENDBRANCH  16  19
BRANCH  15  21
HETATM   21  C11 UNL     1       9.092  40.099  28.365  1.00  0.00     0.062 C 
BRANCH  21  22
HETATM   22  C12 UNL     1       7.874  39.306  28.719  1.00  0.00    -0.017 C 
HETATM   23  C13 UNL     1       7.282  38.617  27.499  1.00  0.00     0.010 C 
HETATM   24  C14 UNL     1       6.773  40.165  29.296  1.00  0.00     0.010 C 
ENDBRANCH  21  22
ENDBRANCH  15  21
ENDBRANCH   4  12
BRANCH   1  25
HETATM   25  C3  UNL     1      12.096  43.854  34.485  1.00  0.00     0.162 C 
BRANCH  25  26
HETATM   26  C2  UNL     1      13.572  43.859  34.325  1.00  0.00    -0.017 C 
HETATM   27  C1  UNL     1      14.375  44.598  35.080  1.00  0.00     0.008 C 
ENDBRANCH  25  26
ENDBRANCH   1  25
BRANCH   8  28
HETATM   28  C16 UNL     1       9.559  45.667  29.188  1.00  0.00     0.121 C 
BRANCH  28  29
HETATM   29  C17 UNL     1      10.579  45.888  28.057  1.00  0.00     0.021 C 
BRANCH  29  30
HETATM   30  C18 UNL     1      10.218  44.913  26.961  1.00  0.00     0.029 C 
BRANCH  30  31
HETATM   31  C19 UNL     1       9.049  44.029  27.363  1.00  0.00     0.229 C 
BRANCH  31  32
HETATM   32  N5  UNL     1       8.422  43.425  26.216  1.00  0.00    -0.079 N 
ATOM     33  H53 UNL     1       7.416  43.595  26.209  1.00  0.00     0.274 HD
ATOM     34  H52 UNL     1       8.671  43.913  25.356  1.00  0.00     0.274 HD
ATOM     35  H51 UNL     1       8.632  42.429  26.154  1.00  0.00     0.274 HD
ENDBRANCH  31  32
ENDBRANCH  30  31
ENDBRANCH  29  30
ENDBRANCH  28  29
ENDBRANCH   8  28
TORSDOF 11
ENDMDL
MODEL 4
REMARK VINA RESULT: -6.858137004      4.681      7.282
REMARK  11 active torsions:
REMARK  status: ('A' for Active; 'I' for Inactive)
REMARK    1  A    between atoms: C2_2  and  C3_3 
REMARK    2  A    between atoms: C3_3  and  N1_4 
REMARK    3  A    between atoms: C5_7  and  C6_8 
REMARK    4  A    between atoms: C9_11  and  O2_12 
REMARK    5  A    between atoms: C10_16  and  C11_17 
REMARK    6  A    between atoms: C11_17  and  C12_18 
REMARK    7  A    between atoms: N4_24  and  C16_26 
REMARK    8  A    between atoms: C16_26  and  C17_27 
REMARK    9  A    between atoms: C17_27  and  C18_28 
REMARK   10  A    between atoms: C18_28  and  C19_29 
REMARK   11  A    between atoms: C19_29  and  N5_30 
ROOT
HETATM    1  N1  UNL     1       9.930  43.352  33.805  1.00  0.00    -0.273 N 
HETATM    2  C4  UNL     1       8.915  42.656  34.548  1.00  0.00     0.277 A 
HETATM    3  O1  UNL     1       8.118  43.343  35.275  1.00  0.00    -0.265 OA
HETATM    4  C5  UNL     1       8.849  41.218  34.440  1.00  0.00     0.103 A 
HETATM    5  N3  UNL     1       9.815  40.546  33.587  1.00  0.00    -0.334 N 
ATOM      6  H3  UNL     1       9.778  39.529  33.505  1.00  0.00     0.168 HD
HETATM    7  C15 UNL     1      10.796  41.248  32.872  1.00  0.00     0.171 A 
HETATM    8  N4  UNL     1      11.678  40.665  32.121  1.00  0.00    -0.372 N 
ATOM      9  H4  UNL     1      12.371  41.224  31.623  1.00  0.00     0.161 HD
HETATM   10  C20 UNL     1      10.865  42.695  32.977  1.00  0.00     0.294 A 
HETATM   11  O3  UNL     1      11.738  43.344  32.344  1.00  0.00    -0.264 OA
ENDROOT
BRANCH   4  12
HETATM   12  C6  UNL     1       7.947  40.488  35.053  1.00  0.00     0.049 C 
HETATM   13  C7  UNL     1       7.848  40.029  36.409  1.00  0.00    -0.007 A 
HETATM   14  C8  UNL     1       7.834  40.731  37.594  1.00  0.00     0.069 A 
HETATM   15  C10 UNL     1       7.751  38.652  36.726  1.00  0.00     0.022 A 
HETATM   16  C9  UNL     1       7.732  39.805  38.605  1.00  0.00     0.140 A 
HETATM   17  N2  UNL     1       7.684  38.585  38.055  1.00  0.00    -0.340 N 
ATOM     18  H2  UNL     1       7.607  37.717  38.586  1.00  0.00     0.167 HD
BRANCH  16  19
HETATM   19  O2  UNL     1       7.683  40.055  39.966  1.00  0.00    -0.346 OA
ATOM     20  H2  UNL     1       7.010  39.778  40.577  1.00  0.00     0.219 HD
ENDBRANCH  16  19
BRANCH  15  21
HETATM   21  C11 UNL     1       7.741  37.574  35.711  1.00  0.00     0.062 C 
BRANCH  21  22
HETATM   22  C12 UNL     1       6.449  36.820  35.739  1.00  0.00    -0.017 C 
HETATM   23  C13 UNL     1       6.588  35.451  35.091  1.00  0.00     0.010 C 
HETATM   24  C14 UNL     1       5.348  37.532  34.988  1.00  0.00     0.010 C 
ENDBRANCH  21  22
ENDBRANCH  15  21
ENDBRANCH   4  12
BRANCH   1  25
HETATM   25  C3  UNL     1       9.955  44.814  33.948  1.00  0.00     0.162 C 
BRANCH  25  26
HETATM   26  C2  UNL     1      10.997  45.254  34.909  1.00  0.00    -0.017 C 
HETATM   27  C1  UNL     1      10.712  45.679  36.133  1.00  0.00     0.008 C 
ENDBRANCH  25  26
ENDBRANCH   1  25
BRANCH   8  28
HETATM   28  C16 UNL     1      11.683  39.249  31.991  1.00  0.00     0.121 C 
BRANCH  28  29
HETATM   29  C17 UNL     1      12.236  38.845  30.613  1.00  0.00     0.021 C 
BRANCH  29  30
HETATM   30  C18 UNL     1      13.348  37.856  30.873  1.00  0.00     0.029 C 
BRANCH  30  31
HETATM   31  C19 UNL     1      13.995  37.391  29.579  1.00  0.00     0.229 C 
BRANCH  31  32
HETATM   32  N5  UNL     1      15.432  37.410  29.668  1.00  0.00    -0.079 N 
ATOM     33  H53 UNL     1      15.853  37.793  28.821  1.00  0.00     0.274 HD
ATOM     34  H52 UNL     1      15.754  38.110  30.336  1.00  0.00     0.274 HD
ATOM     35  H51 UNL     1      15.807  36.487  29.886  1.00  0.00     0.274 HD
ENDBRANCH  31  32
ENDBRANCH  30  31
ENDBRANCH  29  30
ENDBRANCH  28  29
ENDBRANCH   8  28
TORSDOF 11
ENDMDL
MODEL 5
REMARK VINA RESULT: -6.856968541      4.052      7.501
REMARK  11 active torsions:
REMARK  status: ('A' for Active; 'I' for Inactive)
REMARK    1  A    between atoms: C2_2  and  C3_3 
REMARK    2  A    between atoms: C3_3  and  N1_4 
REMARK    3  A    between atoms: C5_7  and  C6_8 
REMARK    4  A    between atoms: C9_11  and  O2_12 
REMARK    5  A    between atoms: C10_16  and  C11_17 
REMARK    6  A    between atoms: C11_17  and  C12_18 
REMARK    7  A    between atoms: N4_24  and  C16_26 
REMARK    8  A    between atoms: C16_26  and  C17_27 
REMARK    9  A    between atoms: C17_27  and  C18_28 
REMARK   10  A    between atoms: C18_28  and  C19_29 
REMARK   11  A    between atoms: C19_29  and  N5_30 
ROOT
HETATM    1  N1  UNL     1      12.952  37.832  30.181  1.00  0.00    -0.273 N 
HETATM    2  C4  UNL     1      12.816  38.512  31.440  1.00  0.00     0.277 A 
HETATM    3  O1  UNL     1      13.615  38.197  32.388  1.00  0.00    -0.265 OA
HETATM    4  C5  UNL     1      11.783  39.511  31.574  1.00  0.00     0.103 A 
HETATM    5  N3  UNL     1      10.930  39.777  30.427  1.00  0.00    -0.334 N 
ATOM      6  H3  UNL     1      10.195  40.480  30.511  1.00  0.00     0.168 HD
HETATM    7  C15 UNL     1      11.082  39.099  29.209  1.00  0.00     0.171 A 
HETATM    8  N4  UNL     1      10.320  39.309  28.181  1.00  0.00    -0.372 N 
ATOM      9  H4  UNL     1      10.475  38.788  27.318  1.00  0.00     0.161 HD
HETATM   10  C20 UNL     1      12.122  38.094  29.070  1.00  0.00     0.294 A 
HETATM   11  O3  UNL     1      12.277  37.475  27.985  1.00  0.00    -0.264 OA
ENDROOT
BRANCH   4  12
HETATM   12  C6  UNL     1      11.589  40.208  32.668  1.00  0.00     0.049 C 
HETATM   13  C7  UNL     1      10.399  40.755  33.255  1.00  0.00    -0.007 A 
HETATM   14  C8  UNL     1       9.229  40.144  33.644  1.00  0.00     0.069 A 
HETATM   15  C10 UNL     1      10.269  42.140  33.526  1.00  0.00     0.022 A 
HETATM   16  C9  UNL     1       8.408  41.129  34.138  1.00  0.00     0.140 A 
HETATM   17  N2  UNL     1       9.056  42.298  34.053  1.00  0.00    -0.340 N 
ATOM     18  H2  UNL     1       8.671  43.194  34.354  1.00  0.00     0.167 HD
BRANCH  16  19
HETATM   19  O2  UNL     1       7.128  40.977  34.644  1.00  0.00    -0.346 OA
ATOM     20  H2  UNL     1       6.488  41.661  34.805  1.00  0.00     0.219 HD
ENDBRANCH  16  19
BRANCH  15  21
HETATM   21  C11 UNL     1      11.326  43.136  33.237  1.00  0.00     0.062 C 
BRANCH  21  22
HETATM   22  C12 UNL     1      11.888  43.706  34.500  1.00  0.00    -0.017 C 
HETATM   23  C13 UNL     1      11.304  45.078  34.802  1.00  0.00     0.010 C 
HETATM   24  C14 UNL     1      13.386  43.890  34.435  1.00  0.00     0.010 C 
ENDBRANCH  21  22
ENDBRANCH  15  21
ENDBRANCH   4  12
BRANCH   1  25
HETATM   25  C3  UNL     1      14.019  36.825  30.096  1.00  0.00     0.162 C 
BRANCH  25  26
HETATM   26  C2  UNL     1      15.230  37.363  29.428  1.00  0.00    -0.017 C 
HETATM   27  C1  UNL     1      16.403  37.468  30.040  1.00  0.00     0.008 C 
ENDBRANCH  25  26
ENDBRANCH   1  25
BRANCH   8  28
HETATM   28  C16 UNL     1       9.269  40.263  28.255  1.00  0.00     0.121 C 
BRANCH  28  29
HETATM   29  C17 UNL     1       8.008  39.718  27.559  1.00  0.00     0.021 C 
BRANCH  29  30
HETATM   30  C18 UNL     1       7.685  38.404  28.232  1.00  0.00     0.029 C 
BRANCH  30  31
HETATM   31  C19 UNL     1       6.319  37.884  27.813  1.00  0.00     0.229 C 
BRANCH  31  32
HETATM   32  N5  UNL     1       6.276  36.445  27.817  1.00  0.00    -0.079 N 
ATOM     33  H53 UNL     1       7.072  36.050  28.318  1.00  0.00     0.274 HD
ATOM     34  H52 UNL     1       5.525  36.096  28.411  1.00  0.00     0.274 HD
ATOM     35  H51 UNL     1       6.207  36.069  26.871  1.00  0.00     0.274 HD
ENDBRANCH  31  32
ENDBRANCH  30  31
ENDBRANCH  29  30
ENDBRANCH  28  29
ENDBRANCH   8  28
TORSDOF 11
ENDMDL
