MODEL 1
REMARK VINA RESULT: -4.230537828      0.000      0.000
REMARK  0 active torsions:
REMARK  status: ('A' for Active; 'I' for Inactive)
REMARK       I    between atoms: N1_2  and  C3_4 
REMARK       I    between atoms: C3_4  and  N3_8 
ROOT
HETATM    1  C1  UNL     1     -13.183  25.514  46.435  1.00  0.00     0.168 C 
HETATM    2  N1  UNL     1     -13.848  26.795  46.521  1.00  0.00    -0.227 N 
HETATM    3  C2  UNL     1     -14.006  27.380  47.859  1.00  0.00     0.168 C 
HETATM    4  C3  UNL     1     -14.345  27.495  45.391  1.00  0.00     0.671 C 
HETATM    5  N2  UNL     1     -15.574  27.836  45.286  1.00  0.00    -0.235 N 
ATOM      6  H21 UNL     1     -15.931  28.340  44.474  1.00  0.00     0.174 HD
ATOM      7  H22 UNL     1     -16.235  27.606  46.027  1.00  0.00     0.174 HD
HETATM    8  N3  UNL     1     -13.427  27.814  44.363  1.00  0.00    -0.215 N 
HETATM    9  C4  UNL     1     -12.049  28.121  43.879  1.00  0.00     0.161 A 
HETATM   10  C5  UNL     1     -13.125  28.097  42.920  1.00  0.00     0.161 A 
ENDROOT
TORSDOF 0
ENDMDL
MODEL 2
REMARK VINA RESULT: -4.043906074      1.384      2.417
REMARK  0 active torsions:
REMARK  status: ('A' for Active; 'I' for Inactive)
REMARK       I    between atoms: N1_2  and  C3_4 
REMARK       I    between atoms: C3_4  and  N3_8 
ROOT
HETATM    1  C1  UNL     1     -13.538  26.949  47.579  1.00  0.00     0.168 C 
HETATM    2  N1  UNL     1     -13.018  26.136  46.501  1.00  0.00    -0.227 N 
HETATM    3  C2  UNL     1     -13.049  24.679  46.685  1.00  0.00     0.168 C 
HETATM    4  C3  UNL     1     -12.489  26.676  45.301  1.00  0.00     0.671 C 
HETATM    5  N2  UNL     1     -11.297  26.427  44.908  1.00  0.00    -0.235 N 
ATOM      6  H21 UNL     1     -10.916  26.815  44.045  1.00  0.00     0.174 HD
ATOM      7  H22 UNL     1     -10.689  25.823  45.462  1.00  0.00     0.174 HD
HETATM    8  N3  UNL     1     -13.331  27.513  44.532  1.00  0.00    -0.215 N 
HETATM    9  C4  UNL     1     -14.680  27.956  44.072  1.00  0.00     0.161 A 
HETATM   10  C5  UNL     1     -13.520  28.638  43.557  1.00  0.00     0.161 A 
ENDROOT
TORSDOF 0
ENDMDL
MODEL 3
REMARK VINA RESULT: -3.998045915      0.897      3.478
REMARK  0 active torsions:
REMARK  status: ('A' for Active; 'I' for Inactive)
REMARK       I    between atoms: N1_2  and  C3_4 
REMARK       I    between atoms: C3_4  and  N3_8 
ROOT
HETATM    1  C1  UNL     1     -12.239  28.155  44.127  1.00  0.00     0.168 C 
HETATM    2  N1  UNL     1     -13.683  28.200  44.207  1.00  0.00    -0.227 N 
HETATM    3  C2  UNL     1     -14.428  28.112  42.944  1.00  0.00     0.168 C 
HETATM    4  C3  UNL     1     -14.395  28.324  45.428  1.00  0.00     0.671 C 
HETATM    5  N2  UNL     1     -15.216  29.280  45.646  1.00  0.00    -0.235 N 
ATOM      6  H21 UNL     1     -15.727  29.369  46.524  1.00  0.00     0.174 HD
ATOM      7  H22 UNL     1     -15.379  29.989  44.931  1.00  0.00     0.174 HD
HETATM    8  N3  UNL     1     -14.169  27.340  46.420  1.00  0.00    -0.215 N 
HETATM    9  C4  UNL     1     -13.796  25.958  46.840  1.00  0.00     0.161 A 
HETATM   10  C5  UNL     1     -14.128  26.920  47.860  1.00  0.00     0.161 A 
ENDROOT
TORSDOF 0
ENDMDL
MODEL 4
REMARK VINA RESULT: -3.925395868      1.499      2.417
REMARK  0 active torsions:
REMARK  status: ('A' for Active; 'I' for Inactive)
REMARK       I    between atoms: N1_2  and  C3_4 
REMARK       I    between atoms: C3_4  and  N3_8 
ROOT
HETATM    1  C1  UNL     1     -13.569  27.812  46.910  1.00  0.00     0.168 C 
HETATM    2  N1  UNL     1     -13.051  26.636  46.245  1.00  0.00    -0.227 N 
HETATM    3  C2  UNL     1     -13.525  25.332  46.725  1.00  0.00     0.168 C 
HETATM    4  C3  UNL     1     -12.123  26.689  45.174  1.00  0.00     0.671 C 
HETATM    5  N2  UNL     1     -10.988  26.102  45.224  1.00  0.00    -0.235 N 
ATOM      6  H21 UNL     1     -10.321  26.140  44.454  1.00  0.00     0.174 HD
ATOM      7  H22 UNL     1     -10.721  25.572  46.055  1.00  0.00     0.174 HD
HETATM    8  N3  UNL     1     -12.493  27.424  44.022  1.00  0.00    -0.215 N 
HETATM    9  C4  UNL     1     -13.518  27.979  43.091  1.00  0.00     0.161 A 
HETATM   10  C5  UNL     1     -12.128  28.235  42.814  1.00  0.00     0.161 A 
ENDROOT
TORSDOF 0
ENDMDL
MODEL 5
REMARK VINA RESULT: -3.881269938      1.181      3.432
REMARK  0 active torsions:
REMARK  status: ('A' for Active; 'I' for Inactive)
REMARK       I    between atoms: N1_2  and  C3_4 
REMARK       I    between atoms: C3_4  and  N3_8 
ROOT
HETATM    1  C1  UNL     1     -11.796  28.026  45.899  1.00  0.00     0.168 C 
HETATM    2  N1  UNL     1     -12.962  27.641  45.134  1.00  0.00    -0.227 N 
HETATM    3  C2  UNL     1     -12.943  27.928  43.694  1.00  0.00     0.168 C 
HETATM    4  C3  UNL     1     -14.099  27.013  45.705  1.00  0.00     0.671 C 
HETATM    5  N2  UNL     1     -15.273  27.513  45.614  1.00  0.00    -0.235 N 
ATOM      6  H21 UNL     1     -16.090  27.061  46.025  1.00  0.00     0.174 HD
ATOM      7  H22 UNL     1     -15.418  28.393  45.119  1.00  0.00     0.174 HD
HETATM    8  N3  UNL     1     -13.897  25.792  46.392  1.00  0.00    -0.215 N 
HETATM    9  C4  UNL     1     -13.146  24.524  46.626  1.00  0.00     0.161 A 
HETATM   10  C5  UNL     1     -14.295  24.804  47.448  1.00  0.00     0.161 A 
ENDROOT
TORSDOF 0
ENDMDL
