MODEL 1
REMARK VINA RESULT: -4.776591751      0.000      0.000
REMARK  1 active torsions:
REMARK  status: ('A' for Active; 'I' for Inactive)
REMARK    1  A    between atoms: C5_5  and  C6_6 
REMARK       I    between atoms: C6_6  and  N1_8 
ROOT
HETATM    1  C1  UNL     1     -12.104  27.730  41.779  1.00  0.00     0.012 C 
HETATM    2  C2  UNL     1     -12.492  27.988  42.903  1.00  0.00    -0.112 C 
HETATM    3  C3  UNL     1     -12.950  28.321  44.254  1.00  0.00     0.078 A 
HETATM    4  C4  UNL     1     -14.372  28.942  44.313  1.00  0.00     0.033 A 
HETATM    5  C5  UNL     1     -14.071  27.525  44.815  1.00  0.00     0.094 A 
ENDROOT
BRANCH   5   6
HETATM    6  C6  UNL     1     -14.245  27.389  46.280  1.00  0.00     0.222 C 
HETATM    7  O1  UNL     1     -13.593  28.173  47.017  1.00  0.00    -0.273 OA
HETATM    8  N1  UNL     1     -15.088  26.441  46.880  1.00  0.00    -0.365 N 
HETATM    9  C7  UNL     1     -15.222  26.349  48.313  1.00  0.00     0.149 C 
ATOM     10  H1  UNL     1     -15.619  25.803  46.288  1.00  0.00     0.161 HD
ENDBRANCH   5   6
TORSDOF 1
ENDMDL
MODEL 2
REMARK VINA RESULT: -4.679068634      2.248      4.598
REMARK  1 active torsions:
REMARK  status: ('A' for Active; 'I' for Inactive)
REMARK    1  A    between atoms: C5_5  and  C6_6 
REMARK       I    between atoms: C6_6  and  N1_8 
ROOT
HETATM    1  C1  UNL     1     -14.375  27.503  48.791  1.00  0.00     0.012 C 
HETATM    2  C2  UNL     1     -14.250  27.341  47.592  1.00  0.00    -0.112 C 
HETATM    3  C3  UNL     1     -14.121  27.133  46.148  1.00  0.00     0.078 A 
HETATM    4  C4  UNL     1     -14.803  28.225  45.279  1.00  0.00     0.033 A 
HETATM    5  C5  UNL     1     -13.279  28.092  45.387  1.00  0.00     0.094 A 
ENDROOT
BRANCH   5   6
HETATM    6  C6  UNL     1     -12.647  27.696  44.107  1.00  0.00     0.222 C 
HETATM    7  O1  UNL     1     -11.886  26.696  44.121  1.00  0.00    -0.273 OA
HETATM    8  N1  UNL     1     -12.853  28.373  42.895  1.00  0.00    -0.365 N 
HETATM    9  C7  UNL     1     -12.213  27.948  41.675  1.00  0.00     0.149 C 
ATOM     10  H1  UNL     1     -13.469  29.185  42.877  1.00  0.00     0.161 HD
ENDBRANCH   5   6
TORSDOF 1
ENDMDL
MODEL 3
REMARK VINA RESULT: -4.627427549      2.411      4.573
REMARK  1 active torsions:
REMARK  status: ('A' for Active; 'I' for Inactive)
REMARK    1  A    between atoms: C5_5  and  C6_6 
REMARK       I    between atoms: C6_6  and  N1_8 
ROOT
HETATM    1  C1  UNL     1     -13.996  27.213  48.321  1.00  0.00     0.012 C 
HETATM    2  C2  UNL     1     -14.085  27.226  47.108  1.00  0.00    -0.112 C 
HETATM    3  C3  UNL     1     -14.213  27.228  45.649  1.00  0.00     0.078 A 
HETATM    4  C4  UNL     1     -15.039  28.414  45.080  1.00  0.00     0.033 A 
HETATM    5  C5  UNL     1     -13.520  28.308  44.899  1.00  0.00     0.094 A 
ENDROOT
BRANCH   5   6
HETATM    6  C6  UNL     1     -13.124  28.114  43.485  1.00  0.00     0.222 C 
HETATM    7  O1  UNL     1     -13.958  28.436  42.600  1.00  0.00    -0.273 OA
HETATM    8  N1  UNL     1     -11.882  27.597  43.087  1.00  0.00    -0.365 N 
HETATM    9  C7  UNL     1     -11.544  27.428  41.695  1.00  0.00     0.149 C 
ATOM     10  H1  UNL     1     -11.201  27.334  43.800  1.00  0.00     0.161 HD
ENDBRANCH   5   6
TORSDOF 1
ENDMDL
MODEL 4
REMARK VINA RESULT: -4.611464800      2.165      4.610
REMARK  1 active torsions:
REMARK  status: ('A' for Active; 'I' for Inactive)
REMARK    1  A    between atoms: C5_5  and  C6_6 
REMARK       I    between atoms: C6_6  and  N1_8 
ROOT
HETATM    1  C1  UNL     1     -14.654  27.778  48.940  1.00  0.00     0.012 C 
HETATM    2  C2  UNL     1     -14.059  27.773  47.879  1.00  0.00    -0.112 C 
HETATM    3  C3  UNL     1     -13.323  27.759  46.613  1.00  0.00     0.078 A 
HETATM    4  C4  UNL     1     -13.378  26.404  45.854  1.00  0.00     0.033 A 
HETATM    5  C5  UNL     1     -14.113  27.655  45.359  1.00  0.00     0.094 A 
ENDROOT
BRANCH   5   6
HETATM    6  C6  UNL     1     -13.572  28.167  44.078  1.00  0.00     0.222 C 
HETATM    7  O1  UNL     1     -14.035  29.253  43.645  1.00  0.00    -0.273 OA
HETATM    8  N1  UNL     1     -12.582  27.509  43.333  1.00  0.00    -0.365 N 
HETATM    9  C7  UNL     1     -12.088  28.049  42.090  1.00  0.00     0.149 C 
ATOM     10  H1  UNL     1     -12.202  26.628  43.678  1.00  0.00     0.161 HD
ENDBRANCH   5   6
TORSDOF 1
ENDMDL
MODEL 5
REMARK VINA RESULT: -4.503531275      2.403      4.542
REMARK  1 active torsions:
REMARK  status: ('A' for Active; 'I' for Inactive)
REMARK    1  A    between atoms: C5_5  and  C6_6 
REMARK       I    between atoms: C6_6  and  N1_8 
ROOT
HETATM    1  C1  UNL     1     -12.600  25.959  48.532  1.00  0.00     0.012 C 
HETATM    2  C2  UNL     1     -12.984  26.359  47.449  1.00  0.00    -0.112 C 
HETATM    3  C3  UNL     1     -13.469  26.832  46.150  1.00  0.00     0.078 A 
HETATM    4  C4  UNL     1     -14.115  28.244  46.182  1.00  0.00     0.033 A 
HETATM    5  C5  UNL     1     -12.757  27.976  45.525  1.00  0.00     0.094 A 
ENDROOT
BRANCH   5   6
HETATM    6  C6  UNL     1     -12.783  28.173  44.056  1.00  0.00     0.222 C 
HETATM    7  O1  UNL     1     -13.630  28.980  43.594  1.00  0.00    -0.273 OA
HETATM    8  N1  UNL     1     -11.921  27.514  43.167  1.00  0.00    -0.365 N 
HETATM    9  C7  UNL     1     -11.987  27.741  41.744  1.00  0.00     0.149 C 
ATOM     10  H1  UNL     1     -11.233  26.858  43.534  1.00  0.00     0.161 HD
ENDBRANCH   5   6
TORSDOF 1
ENDMDL
