MODEL 1
REMARK VINA RESULT: -3.885010715      0.000      0.000
REMARK  2 active torsions:
REMARK  status: ('A' for Active; 'I' for Inactive)
REMARK    1  A    between atoms: C2_4  and  N2_6 
REMARK    2  A    between atoms: N2_6  and  C4_8 
ROOT
HETATM    1  C1  UNL     1     -10.188  25.548  47.224  1.00  0.00     0.147 C 
HETATM    2  N1  UNL     1     -10.472  25.846  45.863  1.00  0.00    -0.385 N 
ATOM      3  H1  UNL     1      -9.952  25.325  45.157  1.00  0.00     0.160 HD
HETATM    4  C2  UNL     1     -11.318  26.705  45.441  1.00  0.00     0.068 C 
HETATM    5  C3  UNL     1     -12.097  27.482  46.429  1.00  0.00     0.088 C 
ENDROOT
BRANCH   4   6
HETATM    6  N2  UNL     1     -11.553  26.953  44.070  1.00  0.00    -0.376 N 
ATOM      7  H2  UNL     1     -11.224  26.252  43.405  1.00  0.00     0.161 HD
BRANCH   6   8
HETATM    8  C4  UNL     1     -12.212  28.106  43.537  1.00  0.00     0.083 A 
HETATM    9  C5  UNL     1     -13.634  28.102  43.137  1.00  0.00     0.027 A 
HETATM   10  C6  UNL     1     -12.584  27.968  42.062  1.00  0.00     0.027 A 
ENDBRANCH   6   8
ENDBRANCH   4   6
TORSDOF 2
ENDMDL
MODEL 2
REMARK VINA RESULT: -3.854986473      1.291      1.295
REMARK  2 active torsions:
REMARK  status: ('A' for Active; 'I' for Inactive)
REMARK    1  A    between atoms: C2_4  and  N2_6 
REMARK    2  A    between atoms: N2_6  and  C4_8 
ROOT
HETATM    1  C1  UNL     1     -12.955  24.837  47.045  1.00  0.00     0.147 C 
HETATM    2  N1  UNL     1     -12.382  25.341  45.845  1.00  0.00    -0.385 N 
ATOM      3  H1  UNL     1     -12.133  24.658  45.129  1.00  0.00     0.160 HD
HETATM    4  C2  UNL     1     -12.152  26.569  45.578  1.00  0.00     0.068 C 
HETATM    5  C3  UNL     1     -12.500  27.593  46.585  1.00  0.00     0.088 C 
ENDROOT
BRANCH   4   6
HETATM    6  N2  UNL     1     -11.579  27.003  44.362  1.00  0.00    -0.376 N 
ATOM      7  H2  UNL     1     -10.763  26.494  44.021  1.00  0.00     0.161 HD
BRANCH   6   8
HETATM    8  C4  UNL     1     -12.048  28.098  43.568  1.00  0.00     0.083 A 
HETATM    9  C5  UNL     1     -13.391  28.122  42.952  1.00  0.00     0.027 A 
HETATM   10  C6  UNL     1     -12.209  27.754  42.089  1.00  0.00     0.027 A 
ENDBRANCH   6   8
ENDBRANCH   4   6
TORSDOF 2
ENDMDL
MODEL 3
REMARK VINA RESULT: -3.847104198      1.912      4.055
REMARK  2 active torsions:
REMARK  status: ('A' for Active; 'I' for Inactive)
REMARK    1  A    between atoms: C2_4  and  N2_6 
REMARK    2  A    between atoms: N2_6  and  C4_8 
ROOT
HETATM    1  C1  UNL     1     -11.949  27.680  41.935  1.00  0.00     0.147 C 
HETATM    2  N1  UNL     1     -11.909  27.811  43.350  1.00  0.00    -0.385 N 
ATOM      3  H1  UNL     1     -10.996  27.727  43.797  1.00  0.00     0.160 HD
HETATM    4  C2  UNL     1     -12.910  28.024  44.115  1.00  0.00     0.068 C 
HETATM    5  C3  UNL     1     -14.252  28.156  43.510  1.00  0.00     0.088 C 
ENDROOT
BRANCH   4   6
HETATM    6  N2  UNL     1     -12.800  28.145  45.518  1.00  0.00    -0.376 N 
ATOM      7  H2  UNL     1     -12.603  29.072  45.895  1.00  0.00     0.161 HD
BRANCH   6   8
HETATM    8  C4  UNL     1     -12.943  27.072  46.456  1.00  0.00     0.083 A 
HETATM    9  C5  UNL     1     -14.214  26.348  46.657  1.00  0.00     0.027 A 
HETATM   10  C6  UNL     1     -13.832  27.419  47.649  1.00  0.00     0.027 A 
ENDBRANCH   6   8
ENDBRANCH   4   6
TORSDOF 2
ENDMDL
MODEL 4
REMARK VINA RESULT: -3.818739605      1.485      3.993
REMARK  2 active torsions:
REMARK  status: ('A' for Active; 'I' for Inactive)
REMARK    1  A    between atoms: C2_4  and  N2_6 
REMARK    2  A    between atoms: N2_6  and  C4_8 
ROOT
HETATM    1  C1  UNL     1     -12.251  27.878  41.861  1.00  0.00     0.147 C 
HETATM    2  N1  UNL     1     -11.844  27.812  43.222  1.00  0.00    -0.385 N 
ATOM      3  H1  UNL     1     -10.921  27.420  43.410  1.00  0.00     0.160 HD
HETATM    4  C2  UNL     1     -12.526  28.197  44.231  1.00  0.00     0.068 C 
HETATM    5  C3  UNL     1     -13.868  28.774  44.005  1.00  0.00     0.088 C 
ENDROOT
BRANCH   4   6
HETATM    6  N2  UNL     1     -12.061  28.103  45.561  1.00  0.00    -0.376 N 
ATOM      7  H2  UNL     1     -11.988  28.970  46.095  1.00  0.00     0.161 HD
BRANCH   6   8
HETATM    8  C4  UNL     1     -11.682  26.891  46.223  1.00  0.00     0.083 A 
HETATM    9  C5  UNL     1     -12.541  25.690  46.248  1.00  0.00     0.027 A 
HETATM   10  C6  UNL     1     -12.521  26.586  47.462  1.00  0.00     0.027 A 
ENDBRANCH   6   8
ENDBRANCH   4   6
TORSDOF 2
ENDMDL
MODEL 5
REMARK VINA RESULT: -3.809918401      3.183      3.613
REMARK  2 active torsions:
REMARK  status: ('A' for Active; 'I' for Inactive)
REMARK    1  A    between atoms: C2_4  and  N2_6 
REMARK    2  A    between atoms: N2_6  and  C4_8 
ROOT
HETATM    1  C1  UNL     1     -15.486  24.792  48.123  1.00  0.00     0.147 C 
HETATM    2  N1  UNL     1     -15.511  26.011  47.392  1.00  0.00    -0.385 N 
ATOM      3  H1  UNL     1     -16.365  26.565  47.447  1.00  0.00     0.160 HD
HETATM    4  C2  UNL     1     -14.563  26.477  46.674  1.00  0.00     0.068 C 
HETATM    5  C3  UNL     1     -13.305  25.707  46.568  1.00  0.00     0.088 C 
ENDROOT
BRANCH   4   6
HETATM    6  N2  UNL     1     -14.653  27.699  45.971  1.00  0.00    -0.376 N 
ATOM      7  H2  UNL     1     -14.637  28.558  46.521  1.00  0.00     0.161 HD
BRANCH   6   8
HETATM    8  C4  UNL     1     -14.767  27.832  44.550  1.00  0.00     0.083 A 
HETATM    9  C5  UNL     1     -13.596  28.013  43.666  1.00  0.00     0.027 A 
HETATM   10  C6  UNL     1     -14.413  29.227  44.038  1.00  0.00     0.027 A 
ENDBRANCH   6   8
ENDBRANCH   4   6
TORSDOF 2
ENDMDL
