MODEL 1
REMARK VINA RESULT: -6.854924173      0.000      0.000
REMARK  8 active torsions:
REMARK  status: ('A' for Active; 'I' for Inactive)
REMARK    1  A    between atoms: C2_2  and  O1_3 
REMARK    2  A    between atoms: O1_3  and  C3_4 
REMARK       I    between atoms: C3_4  and  N1_6 
REMARK    3  A    between atoms: N1_6  and  C4_8 
REMARK    4  A    between atoms: C5_11  and  C6_12 
REMARK    5  A    between atoms: C6_12  and  O4_14 
REMARK    6  A    between atoms: O4_14  and  C7_15 
REMARK    7  A    between atoms: C7_15  and  C8_16 
REMARK    8  A    between atoms: C8_16  and  C9_17 
ROOT
HETATM    1  C4  UNL     1      54.755  39.200  66.639  1.00  0.00     0.155 A 
HETATM    2  N2  UNL     1      53.855  40.005  66.094  1.00  0.00    -0.330 N 
ATOM      3  H2  UNL     1      53.009  39.624  65.672  1.00  0.00     0.168 HD
HETATM    4  C5  UNL     1      54.064  41.297  66.106  1.00  0.00     0.139 A 
HETATM    5  C12 UNL     1      55.228  41.736  66.695  1.00  0.00     0.111 A 
HETATM    6 CL1  UNL     1      55.817  43.394  66.883  1.00  0.00    -0.073 Cl
HETATM    7  S1  UNL     1      55.951  40.271  67.196  1.00  0.00    -0.039 SA
ENDROOT
BRANCH   4   8
HETATM    8  C6  UNL     1      53.116  42.282  65.523  1.00  0.00     0.312 C 
HETATM    9  O3  UNL     1      52.478  43.043  66.268  1.00  0.00    -0.258 OA
BRANCH   8  10
HETATM   10  O4  UNL     1      52.935  42.367  64.171  1.00  0.00    -0.316 OA
BRANCH  10  11
HETATM   11  C7  UNL     1      53.947  42.342  63.208  1.00  0.00     0.179 C 
BRANCH  11  12
HETATM   12  C8  UNL     1      53.506  42.764  61.839  1.00  0.00     0.031 C 
BRANCH  12  13
HETATM   13  C9  UNL     1      54.175  41.851  60.835  1.00  0.00    -0.013 A 
HETATM   14  C10 UNL     1      54.052  40.393  60.933  1.00  0.00     0.005 A 
HETATM   15  C11 UNL     1      53.251  41.068  59.911  1.00  0.00     0.005 A 
ENDBRANCH  12  13
ENDBRANCH  11  12
ENDBRANCH  10  11
ENDBRANCH   8  10
ENDBRANCH   4   8
BRANCH   1  16
HETATM   16  N1  UNL     1      54.737  37.888  66.730  1.00  0.00    -0.282 N 
HETATM   17  C3  UNL     1      55.180  37.134  65.587  1.00  0.00     0.366 C 
HETATM   18  O2  UNL     1      55.799  36.046  65.694  1.00  0.00    -0.238 OA
ATOM     19  H1  UNL     1      54.421  37.422  67.580  1.00  0.00     0.173 HD
BRANCH  17  20
HETATM   20  O1  UNL     1      54.921  37.611  64.310  1.00  0.00    -0.304 OA
BRANCH  20  21
HETATM   21  C2  UNL     1      56.011  37.919  63.453  1.00  0.00     0.176 C 
HETATM   22  C1  UNL     1      56.387  39.379  63.514  1.00  0.00     0.034 C 
ENDBRANCH  20  21
ENDBRANCH  17  20
ENDBRANCH   1  16
TORSDOF 8
ENDMDL
MODEL 2
REMARK VINA RESULT: -6.735120146      1.609      2.102
REMARK  8 active torsions:
REMARK  status: ('A' for Active; 'I' for Inactive)
REMARK    1  A    between atoms: C2_2  and  O1_3 
REMARK    2  A    between atoms: O1_3  and  C3_4 
REMARK       I    between atoms: C3_4  and  N1_6 
REMARK    3  A    between atoms: N1_6  and  C4_8 
REMARK    4  A    between atoms: C5_11  and  C6_12 
REMARK    5  A    between atoms: C6_12  and  O4_14 
REMARK    6  A    between atoms: O4_14  and  C7_15 
REMARK    7  A    between atoms: C7_15  and  C8_16 
REMARK    8  A    between atoms: C8_16  and  C9_17 
ROOT
HETATM    1  C4  UNL     1      53.749  39.657  65.712  1.00  0.00     0.155 A 
HETATM    2  N2  UNL     1      53.866  40.241  64.529  1.00  0.00    -0.330 N 
ATOM      3  H2  UNL     1      53.509  39.784  63.690  1.00  0.00     0.168 HD
HETATM    4  C5  UNL     1      54.445  41.412  64.450  1.00  0.00     0.139 A 
HETATM    5  C12 UNL     1      54.899  41.965  65.626  1.00  0.00     0.111 A 
HETATM    6 CL1  UNL     1      55.716  43.514  65.877  1.00  0.00    -0.073 Cl
HETATM    7  S1  UNL     1      54.470  40.773  66.772  1.00  0.00    -0.039 SA
ENDROOT
BRANCH   4   8
HETATM    8  C6  UNL     1      54.624  42.149  63.171  1.00  0.00     0.312 C 
HETATM    9  O3  UNL     1      55.744  42.201  62.638  1.00  0.00    -0.258 OA
BRANCH   8  10
HETATM   10  O4  UNL     1      53.568  42.773  62.568  1.00  0.00    -0.316 OA
BRANCH  10  11
HETATM   11  C7  UNL     1      53.422  42.988  61.196  1.00  0.00     0.179 C 
BRANCH  11  12
HETATM   12  C8  UNL     1      52.657  41.915  60.481  1.00  0.00     0.031 C 
BRANCH  12  13
HETATM   13  C9  UNL     1      53.658  40.932  59.916  1.00  0.00    -0.013 A 
HETATM   14  C10 UNL     1      54.067  39.744  60.671  1.00  0.00     0.005 A 
HETATM   15  C11 UNL     1      53.124  39.548  59.568  1.00  0.00     0.005 A 
ENDBRANCH  12  13
ENDBRANCH  11  12
ENDBRANCH  10  11
ENDBRANCH   8  10
ENDBRANCH   4   8
BRANCH   1  16
HETATM   16  N1  UNL     1      53.208  38.495  66.006  1.00  0.00    -0.282 N 
HETATM   17  C3  UNL     1      54.059  37.490  66.587  1.00  0.00     0.366 C 
HETATM   18  O2  UNL     1      53.649  36.672  67.446  1.00  0.00    -0.238 OA
ATOM     19  H1  UNL     1      52.220  38.312  65.829  1.00  0.00     0.173 HD
BRANCH  17  20
HETATM   20  O1  UNL     1      55.387  37.407  66.192  1.00  0.00    -0.304 OA
BRANCH  20  21
HETATM   21  C2  UNL     1      55.747  36.495  65.164  1.00  0.00     0.176 C 
HETATM   22  C1  UNL     1      56.096  37.201  63.876  1.00  0.00     0.034 C 
ENDBRANCH  20  21
ENDBRANCH  17  20
ENDBRANCH   1  16
TORSDOF 8
ENDMDL
MODEL 3
REMARK VINA RESULT: -6.704549097      2.440      3.156
REMARK  8 active torsions:
REMARK  status: ('A' for Active; 'I' for Inactive)
REMARK    1  A    between atoms: C2_2  and  O1_3 
REMARK    2  A    between atoms: O1_3  and  C3_4 
REMARK       I    between atoms: C3_4  and  N1_6 
REMARK    3  A    between atoms: N1_6  and  C4_8 
REMARK    4  A    between atoms: C5_11  and  C6_12 
REMARK    5  A    between atoms: C6_12  and  O4_14 
REMARK    6  A    between atoms: O4_14  and  C7_15 
REMARK    7  A    between atoms: C7_15  and  C8_16 
REMARK    8  A    between atoms: C8_16  and  C9_17 
ROOT
HETATM    1  C4  UNL     1      54.005  37.626  66.240  1.00  0.00     0.155 A 
HETATM    2  N2  UNL     1      53.594  38.685  65.558  1.00  0.00    -0.330 N 
ATOM      3  H2  UNL     1      52.805  38.612  64.916  1.00  0.00     0.168 HD
HETATM    4  C5  UNL     1      54.214  39.827  65.717  1.00  0.00     0.139 A 
HETATM    5  C12 UNL     1      55.269  39.846  66.601  1.00  0.00     0.111 A 
HETATM    6 CL1  UNL     1      56.311  41.203  67.050  1.00  0.00    -0.073 Cl
HETATM    7  S1  UNL     1      55.309  38.228  67.148  1.00  0.00    -0.039 SA
ENDROOT
BRANCH   4   8
HETATM    8  C6  UNL     1      53.830  41.070  65.000  1.00  0.00     0.312 C 
HETATM    9  O3  UNL     1      53.340  42.022  65.629  1.00  0.00    -0.258 OA
BRANCH   8  10
HETATM   10  O4  UNL     1      54.011  41.186  63.650  1.00  0.00    -0.316 OA
BRANCH  10  11
HETATM   11  C7  UNL     1      55.208  41.514  63.011  1.00  0.00     0.179 C 
BRANCH  11  12
HETATM   12  C8  UNL     1      55.255  41.144  61.559  1.00  0.00     0.031 C 
BRANCH  12  13
HETATM   13  C9  UNL     1      53.913  40.554  61.188  1.00  0.00    -0.013 A 
HETATM   14  C10 UNL     1      53.220  40.952  59.958  1.00  0.00     0.005 A 
HETATM   15  C11 UNL     1      53.886  39.649  59.963  1.00  0.00     0.005 A 
ENDBRANCH  12  13
ENDBRANCH  11  12
ENDBRANCH  10  11
ENDBRANCH   8  10
ENDBRANCH   4   8
BRANCH   1  16
HETATM   16  N1  UNL     1      53.527  36.401  66.225  1.00  0.00    -0.282 N 
HETATM   17  C3  UNL     1      52.096  36.243  66.227  1.00  0.00     0.366 C 
HETATM   18  O2  UNL     1      51.518  35.313  65.613  1.00  0.00    -0.238 OA
ATOM     19  H1  UNL     1      54.147  35.591  66.211  1.00  0.00     0.173 HD
BRANCH  17  20
HETATM   20  O1  UNL     1      51.310  37.144  66.932  1.00  0.00    -0.304 OA
BRANCH  20  21
HETATM   21  C2  UNL     1      51.194  37.005  68.341  1.00  0.00     0.176 C 
HETATM   22  C1  UNL     1      51.595  38.264  69.070  1.00  0.00     0.034 C 
ENDBRANCH  20  21
ENDBRANCH  17  20
ENDBRANCH   1  16
TORSDOF 8
ENDMDL
MODEL 4
REMARK VINA RESULT: -6.697564900      1.785      2.492
REMARK  8 active torsions:
REMARK  status: ('A' for Active; 'I' for Inactive)
REMARK    1  A    between atoms: C2_2  and  O1_3 
REMARK    2  A    between atoms: O1_3  and  C3_4 
REMARK       I    between atoms: C3_4  and  N1_6 
REMARK    3  A    between atoms: N1_6  and  C4_8 
REMARK    4  A    between atoms: C5_11  and  C6_12 
REMARK    5  A    between atoms: C6_12  and  O4_14 
REMARK    6  A    between atoms: O4_14  and  C7_15 
REMARK    7  A    between atoms: C7_15  and  C8_16 
REMARK    8  A    between atoms: C8_16  and  C9_17 
ROOT
HETATM    1  C4  UNL     1      55.169  39.168  66.236  1.00  0.00     0.155 A 
HETATM    2  N2  UNL     1      54.336  39.807  65.427  1.00  0.00    -0.330 N 
ATOM      3  H2  UNL     1      53.635  39.291  64.896  1.00  0.00     0.168 HD
HETATM    4  C5  UNL     1      54.425  41.108  65.316  1.00  0.00     0.139 A 
HETATM    5  C12 UNL     1      55.397  41.733  66.065  1.00  0.00     0.111 A 
HETATM    6 CL1  UNL     1      55.786  43.456  66.156  1.00  0.00    -0.073 Cl
HETATM    7  S1  UNL     1      56.122  40.418  66.881  1.00  0.00    -0.039 SA
ENDROOT
BRANCH   4   8
HETATM    8  C6  UNL     1      53.539  41.915  64.438  1.00  0.00     0.312 C 
HETATM    9  O3  UNL     1      52.539  42.476  64.914  1.00  0.00    -0.258 OA
BRANCH   8  10
HETATM   10  O4  UNL     1      53.810  42.052  63.105  1.00  0.00    -0.316 OA
BRANCH  10  11
HETATM   11  C7  UNL     1      55.080  42.063  62.526  1.00  0.00     0.179 C 
BRANCH  11  12
HETATM   12  C8  UNL     1      55.250  41.099  61.390  1.00  0.00     0.031 C 
BRANCH  12  13
HETATM   13  C9  UNL     1      53.907  40.454  61.126  1.00  0.00    -0.013 A 
HETATM   14  C10 UNL     1      53.124  40.789  59.932  1.00  0.00     0.005 A 
HETATM   15  C11 UNL     1      53.833  39.508  59.934  1.00  0.00     0.005 A 
ENDBRANCH  12  13
ENDBRANCH  11  12
ENDBRANCH  10  11
ENDBRANCH   8  10
ENDBRANCH   4   8
BRANCH   1  16
HETATM   16  N1  UNL     1      55.246  37.879  66.486  1.00  0.00    -0.282 N 
HETATM   17  C3  UNL     1      54.049  37.096  66.329  1.00  0.00     0.366 C 
HETATM   18  O2  UNL     1      54.067  35.911  65.915  1.00  0.00    -0.238 OA
ATOM     19  H1  UNL     1      56.123  37.450  66.781  1.00  0.00     0.173 HD
BRANCH  17  20
HETATM   20  O1  UNL     1      52.819  37.656  66.644  1.00  0.00    -0.304 OA
BRANCH  20  21
HETATM   21  C2  UNL     1      51.658  36.838  66.608  1.00  0.00     0.176 C 
HETATM   22  C1  UNL     1      51.172  36.482  67.991  1.00  0.00     0.034 C 
ENDBRANCH  20  21
ENDBRANCH  17  20
ENDBRANCH   1  16
TORSDOF 8
ENDMDL
MODEL 5
REMARK VINA RESULT: -6.663932283      2.508      3.223
REMARK  8 active torsions:
REMARK  status: ('A' for Active; 'I' for Inactive)
REMARK    1  A    between atoms: C2_2  and  O1_3 
REMARK    2  A    between atoms: O1_3  and  C3_4 
REMARK       I    between atoms: C3_4  and  N1_6 
REMARK    3  A    between atoms: N1_6  and  C4_8 
REMARK    4  A    between atoms: C5_11  and  C6_12 
REMARK    5  A    between atoms: C6_12  and  O4_14 
REMARK    6  A    between atoms: O4_14  and  C7_15 
REMARK    7  A    between atoms: C7_15  and  C8_16 
REMARK    8  A    between atoms: C8_16  and  C9_17 
ROOT
HETATM    1  C4  UNL     1      53.845  38.398  66.096  1.00  0.00     0.155 A 
HETATM    2  N2  UNL     1      53.464  39.557  65.578  1.00  0.00    -0.330 N 
ATOM      3  H2  UNL     1      52.585  39.630  65.066  1.00  0.00     0.168 HD
HETATM    4  C5  UNL     1      54.230  40.607  65.732  1.00  0.00     0.139 A 
HETATM    5  C12 UNL     1      55.400  40.429  66.436  1.00  0.00     0.111 A 
HETATM    6 CL1  UNL     1      56.649  41.620  66.825  1.00  0.00    -0.073 Cl
HETATM    7  S1  UNL     1      55.330  38.769  66.833  1.00  0.00    -0.039 SA
ENDROOT
BRANCH   4   8
HETATM    8  C6  UNL     1      53.893  41.949  65.190  1.00  0.00     0.312 C 
HETATM    9  O3  UNL     1      52.835  42.505  65.529  1.00  0.00    -0.258 OA
BRANCH   8  10
HETATM   10  O4  UNL     1      54.733  42.587  64.322  1.00  0.00    -0.316 OA
BRANCH  10  11
HETATM   11  C7  UNL     1      55.019  42.182  63.016  1.00  0.00     0.179 C 
BRANCH  11  12
HETATM   12  C8  UNL     1      53.877  42.333  62.058  1.00  0.00     0.031 C 
BRANCH  12  13
HETATM   13  C9  UNL     1      54.232  41.586  60.792  1.00  0.00    -0.013 A 
HETATM   14  C10 UNL     1      54.201  40.121  60.738  1.00  0.00     0.005 A 
HETATM   15  C11 UNL     1      53.096  40.842  60.103  1.00  0.00     0.005 A 
ENDBRANCH  12  13
ENDBRANCH  11  12
ENDBRANCH  10  11
ENDBRANCH   8  10
ENDBRANCH   4   8
BRANCH   1  16
HETATM   16  N1  UNL     1      53.229  37.237  66.055  1.00  0.00    -0.282 N 
HETATM   17  C3  UNL     1      51.916  37.156  66.638  1.00  0.00     0.366 C 
HETATM   18  O2  UNL     1      51.010  36.426  66.165  1.00  0.00    -0.238 OA
ATOM     19  H1  UNL     1      53.666  36.422  65.624  1.00  0.00     0.173 HD
BRANCH  17  20
HETATM   20  O1  UNL     1      51.622  37.907  67.768  1.00  0.00    -0.304 OA
BRANCH  20  21
HETATM   21  C2  UNL     1      51.224  37.241  68.957  1.00  0.00     0.176 C 
HETATM   22  C1  UNL     1      50.892  38.208  70.066  1.00  0.00     0.034 C 
ENDBRANCH  20  21
ENDBRANCH  17  20
ENDBRANCH   1  16
TORSDOF 8
ENDMDL
