MODEL 1
REMARK VINA RESULT: -6.394067284      0.000      0.000
REMARK  7 active torsions:
REMARK  status: ('A' for Active; 'I' for Inactive)
REMARK    1  A    between atoms: C2_2  and  O1_3 
REMARK    2  A    between atoms: O1_3  and  C3_4 
REMARK    3  A    between atoms: C3_4  and  C4_6 
REMARK    4  A    between atoms: C4_6  and  S1_7 
REMARK    5  A    between atoms: S1_7  and  C5_8 
REMARK    6  A    between atoms: C8_14  and  C9_15 
REMARK    7  A    between atoms: C9_15  and  O4_17 
ROOT
HETATM    1  C5  UNL     1      54.858  39.712  63.752  1.00  0.00     0.087 A 
HETATM    2  N1  UNL     1      54.929  38.871  62.704  1.00  0.00    -0.358 N 
ATOM      3  H1  UNL     1      55.226  37.896  62.725  1.00  0.00     0.166 HD
HETATM    4  C6  UNL     1      54.525  39.575  61.612  1.00  0.00     0.109 A 
HETATM    5  C7  UNL     1      54.203  40.859  61.996  1.00  0.00     0.045 A 
HETATM    6 BR1  UNL     1      53.573  42.287  60.871  1.00  0.00    -0.048 Br
HETATM    7  C8  UNL     1      54.410  40.966  63.359  1.00  0.00     0.091 A 
ENDROOT
BRANCH   1   8
HETATM    8  S1  UNL     1      55.267  39.367  65.466  1.00  0.00    -0.101 SA
BRANCH   8   9
HETATM    9  C4  UNL     1      54.313  38.029  66.163  1.00  0.00     0.191 C 
BRANCH   9  10
HETATM   10  C3  UNL     1      54.718  36.679  65.691  1.00  0.00     0.268 C 
HETATM   11  O2  UNL     1      55.716  36.616  64.932  1.00  0.00    -0.264 OA
BRANCH  10  12
HETATM   12  O1  UNL     1      54.072  35.519  66.035  1.00  0.00    -0.321 OA
BRANCH  12  13
HETATM   13  C2  UNL     1      52.939  35.456  66.871  1.00  0.00     0.174 C 
HETATM   14  C1  UNL     1      51.859  34.534  66.354  1.00  0.00     0.034 C 
ENDBRANCH  12  13
ENDBRANCH  10  12
ENDBRANCH   9  10
ENDBRANCH   8   9
ENDBRANCH   1   8
BRANCH   7  15
HETATM   15  C9  UNL     1      54.185  42.158  64.168  1.00  0.00     0.297 C 
HETATM   16  O3  UNL     1      53.047  42.374  64.618  1.00  0.00    -0.259 OA
BRANCH  15  17
HETATM   17  O4  UNL     1      55.192  43.078  64.468  1.00  0.00    -0.322 OA
HETATM   18  C10 UNL     1      55.555  43.338  65.835  1.00  0.00     0.213 C 
ENDBRANCH  15  17
ENDBRANCH   7  15
TORSDOF 7
ENDMDL
MODEL 2
REMARK VINA RESULT: -6.367074667      0.607      1.005
REMARK  7 active torsions:
REMARK  status: ('A' for Active; 'I' for Inactive)
REMARK    1  A    between atoms: C2_2  and  O1_3 
REMARK    2  A    between atoms: O1_3  and  C3_4 
REMARK    3  A    between atoms: C3_4  and  C4_6 
REMARK    4  A    between atoms: C4_6  and  S1_7 
REMARK    5  A    between atoms: S1_7  and  C5_8 
REMARK    6  A    between atoms: C8_14  and  C9_15 
REMARK    7  A    between atoms: C9_15  and  O4_17 
ROOT
HETATM    1  C5  UNL     1      54.872  39.716  63.688  1.00  0.00     0.087 A 
HETATM    2  N1  UNL     1      54.902  38.868  62.644  1.00  0.00    -0.358 N 
ATOM      3  H1  UNL     1      55.188  37.889  62.662  1.00  0.00     0.166 HD
HETATM    4  C6  UNL     1      54.475  39.569  61.559  1.00  0.00     0.109 A 
HETATM    5  C7  UNL     1      54.180  40.860  61.945  1.00  0.00     0.045 A 
HETATM    6 BR1  UNL     1      53.534  42.288  60.829  1.00  0.00    -0.048 Br
HETATM    7  C8  UNL     1      54.428  40.973  63.300  1.00  0.00     0.091 A 
ENDROOT
BRANCH   1   8
HETATM    8  S1  UNL     1      55.327  39.376  65.391  1.00  0.00    -0.101 SA
BRANCH   8   9
HETATM    9  C4  UNL     1      54.382  38.051  66.123  1.00  0.00     0.191 C 
BRANCH   9  10
HETATM   10  C3  UNL     1      54.776  36.693  65.665  1.00  0.00     0.268 C 
HETATM   11  O2  UNL     1      55.756  36.618  64.884  1.00  0.00    -0.264 OA
BRANCH  10  12
HETATM   12  O1  UNL     1      54.139  35.540  66.043  1.00  0.00    -0.321 OA
BRANCH  12  13
HETATM   13  C2  UNL     1      52.980  35.495  66.844  1.00  0.00     0.174 C 
HETATM   14  C1  UNL     1      51.928  34.539  66.330  1.00  0.00     0.034 C 
ENDBRANCH  12  13
ENDBRANCH  10  12
ENDBRANCH   9  10
ENDBRANCH   8   9
ENDBRANCH   1   8
BRANCH   7  15
HETATM   15  C9  UNL     1      54.240  42.173  64.108  1.00  0.00     0.297 C 
HETATM   16  O3  UNL     1      55.165  42.998  64.183  1.00  0.00    -0.259 OA
BRANCH  15  17
HETATM   17  O4  UNL     1      53.063  42.445  64.808  1.00  0.00    -0.322 OA
HETATM   18  C10 UNL     1      53.073  42.524  66.243  1.00  0.00     0.213 C 
ENDBRANCH  15  17
ENDBRANCH   7  15
TORSDOF 7
ENDMDL
MODEL 3
REMARK VINA RESULT: -6.096454848      0.837      1.023
REMARK  7 active torsions:
REMARK  status: ('A' for Active; 'I' for Inactive)
REMARK    1  A    between atoms: C2_2  and  O1_3 
REMARK    2  A    between atoms: O1_3  and  C3_4 
REMARK    3  A    between atoms: C3_4  and  C4_6 
REMARK    4  A    between atoms: C4_6  and  S1_7 
REMARK    5  A    between atoms: S1_7  and  C5_8 
REMARK    6  A    between atoms: C8_14  and  C9_15 
REMARK    7  A    between atoms: C9_15  and  O4_17 
ROOT
HETATM    1  C5  UNL     1      54.813  39.712  63.802  1.00  0.00     0.087 A 
HETATM    2  N1  UNL     1      54.907  38.872  62.757  1.00  0.00    -0.358 N 
ATOM      3  H1  UNL     1      55.196  37.894  62.785  1.00  0.00     0.166 HD
HETATM    4  C6  UNL     1      54.541  39.580  61.654  1.00  0.00     0.109 A 
HETATM    5  C7  UNL     1      54.219  40.866  62.030  1.00  0.00     0.045 A 
HETATM    6 BR1  UNL     1      53.633  42.299  60.888  1.00  0.00    -0.048 Br
HETATM    7  C8  UNL     1      54.387  40.971  63.398  1.00  0.00     0.091 A 
ENDROOT
BRANCH   1   8
HETATM    8  S1  UNL     1      55.170  39.363  65.527  1.00  0.00    -0.101 SA
BRANCH   8   9
HETATM    9  C4  UNL     1      55.020  37.634  65.943  1.00  0.00     0.191 C 
BRANCH   9  10
HETATM   10  C3  UNL     1      53.626  37.182  66.187  1.00  0.00     0.268 C 
HETATM   11  O2  UNL     1      52.869  37.975  66.801  1.00  0.00    -0.264 OA
BRANCH  10  12
HETATM   12  O1  UNL     1      53.129  35.969  65.785  1.00  0.00    -0.321 OA
BRANCH  12  13
HETATM   13  C2  UNL     1      52.743  34.936  66.663  1.00  0.00     0.174 C 
HETATM   14  C1  UNL     1      51.275  34.589  66.578  1.00  0.00     0.034 C 
ENDBRANCH  12  13
ENDBRANCH  10  12
ENDBRANCH   9  10
ENDBRANCH   8   9
ENDBRANCH   1   8
BRANCH   7  15
HETATM   15  C9  UNL     1      54.148  42.164  64.201  1.00  0.00     0.297 C 
HETATM   16  O3  UNL     1      53.013  42.358  64.669  1.00  0.00    -0.259 OA
BRANCH  15  17
HETATM   17  O4  UNL     1      55.138  43.110  64.476  1.00  0.00    -0.322 OA
HETATM   18  C10 UNL     1      55.571  43.336  65.828  1.00  0.00     0.213 C 
ENDBRANCH  15  17
ENDBRANCH   7  15
TORSDOF 7
ENDMDL
MODEL 4
REMARK VINA RESULT: -6.092728062      1.591      2.049
REMARK  7 active torsions:
REMARK  status: ('A' for Active; 'I' for Inactive)
REMARK    1  A    between atoms: C2_2  and  O1_3 
REMARK    2  A    between atoms: O1_3  and  C3_4 
REMARK    3  A    between atoms: C3_4  and  C4_6 
REMARK    4  A    between atoms: C4_6  and  S1_7 
REMARK    5  A    between atoms: S1_7  and  C5_8 
REMARK    6  A    between atoms: C8_14  and  C9_15 
REMARK    7  A    between atoms: C9_15  and  O4_17 
ROOT
HETATM    1  C5  UNL     1      54.819  40.203  62.263  1.00  0.00     0.087 A 
HETATM    2  N1  UNL     1      54.590  39.701  61.037  1.00  0.00    -0.358 N 
ATOM      3  H1  UNL     1      55.001  38.858  60.637  1.00  0.00     0.166 HD
HETATM    4  C6  UNL     1      53.701  40.537  60.434  1.00  0.00     0.109 A 
HETATM    5  C7  UNL     1      53.384  41.560  61.302  1.00  0.00     0.045 A 
HETATM    6 BR1  UNL     1      52.179  43.025  60.983  1.00  0.00    -0.048 Br
HETATM    7  C8  UNL     1      54.089  41.364  62.475  1.00  0.00     0.091 A 
ENDROOT
BRANCH   1   8
HETATM    8  S1  UNL     1      55.906  39.545  63.532  1.00  0.00    -0.101 SA
BRANCH   8   9
HETATM    9  C4  UNL     1      56.257  37.807  63.329  1.00  0.00     0.191 C 
BRANCH   9  10
HETATM   10  C3  UNL     1      55.755  36.949  64.434  1.00  0.00     0.268 C 
HETATM   11  O2  UNL     1      56.401  35.900  64.680  1.00  0.00    -0.264 OA
BRANCH  10  12
HETATM   12  O1  UNL     1      54.646  37.235  65.186  1.00  0.00    -0.321 OA
BRANCH  12  13
HETATM   13  C2  UNL     1      54.592  37.148  66.592  1.00  0.00     0.174 C 
HETATM   14  C1  UNL     1      55.392  38.221  67.294  1.00  0.00     0.034 C 
ENDBRANCH  12  13
ENDBRANCH  10  12
ENDBRANCH   9  10
ENDBRANCH   8   9
ENDBRANCH   1   8
BRANCH   7  15
HETATM   15  C9  UNL     1      54.037  42.217  63.657  1.00  0.00     0.297 C 
HETATM   16  O3  UNL     1      52.986  42.268  64.317  1.00  0.00    -0.259 OA
BRANCH  15  17
HETATM   17  O4  UNL     1      55.119  42.986  64.091  1.00  0.00    -0.322 OA
HETATM   18  C10 UNL     1      55.411  43.104  65.494  1.00  0.00     0.213 C 
ENDBRANCH  15  17
ENDBRANCH   7  15
TORSDOF 7
ENDMDL
MODEL 5
REMARK VINA RESULT: -5.956991219      1.056      1.248
REMARK  7 active torsions:
REMARK  status: ('A' for Active; 'I' for Inactive)
REMARK    1  A    between atoms: C2_2  and  O1_3 
REMARK    2  A    between atoms: O1_3  and  C3_4 
REMARK    3  A    between atoms: C3_4  and  C4_6 
REMARK    4  A    between atoms: C4_6  and  S1_7 
REMARK    5  A    between atoms: S1_7  and  C5_8 
REMARK    6  A    between atoms: C8_14  and  C9_15 
REMARK    7  A    between atoms: C9_15  and  O4_17 
ROOT
HETATM    1  C5  UNL     1      54.820  39.675  63.896  1.00  0.00     0.087 A 
HETATM    2  N1  UNL     1      54.949  38.815  62.870  1.00  0.00    -0.358 N 
ATOM      3  H1  UNL     1      55.223  37.835  62.927  1.00  0.00     0.166 HD
HETATM    4  C6  UNL     1      54.641  39.509  61.740  1.00  0.00     0.109 A 
HETATM    5  C7  UNL     1      54.321  40.806  62.080  1.00  0.00     0.045 A 
HETATM    6 BR1  UNL     1      53.806  42.227  60.890  1.00  0.00    -0.048 Br
HETATM    7  C8  UNL     1      54.430  40.931  63.452  1.00  0.00     0.091 A 
ENDROOT
BRANCH   1   8
HETATM    8  S1  UNL     1      55.096  39.350  65.641  1.00  0.00    -0.101 SA
BRANCH   8   9
HETATM    9  C4  UNL     1      55.229  37.612  66.023  1.00  0.00     0.191 C 
BRANCH   9  10
HETATM   10  C3  UNL     1      53.924  36.919  66.181  1.00  0.00     0.268 C 
HETATM   11  O2  UNL     1      53.913  35.676  66.001  1.00  0.00    -0.264 OA
BRANCH  10  12
HETATM   12  O1  UNL     1      52.752  37.552  66.507  1.00  0.00    -0.321 OA
BRANCH  12  13
HETATM   13  C2  UNL     1      51.530  36.892  66.744  1.00  0.00     0.174 C 
HETATM   14  C1  UNL     1      51.193  36.754  68.211  1.00  0.00     0.034 C 
ENDBRANCH  12  13
ENDBRANCH  10  12
ENDBRANCH   9  10
ENDBRANCH   8   9
ENDBRANCH   1   8
BRANCH   7  15
HETATM   15  C9  UNL     1      54.172  42.141  64.225  1.00  0.00     0.297 C 
HETATM   16  O3  UNL     1      53.023  42.352  64.648  1.00  0.00    -0.259 OA
BRANCH  15  17
HETATM   17  O4  UNL     1      55.159  43.085  64.517  1.00  0.00    -0.322 OA
HETATM   18  C10 UNL     1      55.612  43.268  65.869  1.00  0.00     0.213 C 
ENDBRANCH  15  17
ENDBRANCH   7  15
TORSDOF 7
ENDMDL
