MODEL 1
REMARK VINA RESULT: -6.952586811      0.000      0.000
REMARK  5 active torsions:
REMARK  status: ('A' for Active; 'I' for Inactive)
REMARK    1  A    between atoms: S1_2  and  C2_3 
REMARK    2  A    between atoms: C3_8  and  C4_9 
REMARK       I    between atoms: N3_12  and  C7_13 
REMARK       I    between atoms: C7_13  and  N4_15 
REMARK    3  A    between atoms: N4_15  and  C8_17 
REMARK    4  A    between atoms: C8_17  and  C9_18 
REMARK    5  A    between atoms: C9_18  and  C10_19 
ROOT
HETATM    1  C4  UNL     1      56.466  41.992  66.291  1.00  0.00     0.065 C 
HETATM    2  C5  UNL     1      55.464  42.711  65.431  1.00  0.00     0.033 C 
HETATM    3  C6  UNL     1      55.041  41.938  64.233  1.00  0.00     0.128 C 
HETATM    4  N3  UNL     1      55.218  40.514  64.310  1.00  0.00    -0.334 N 
HETATM    5  C7  UNL     1      54.928  39.731  63.158  1.00  0.00     0.318 C 
HETATM    6  O1  UNL     1      55.065  38.477  63.165  1.00  0.00    -0.247 OA
HETATM    7  N4  UNL     1      54.478  40.350  61.971  1.00  0.00    -0.343 N 
ATOM      8  H4  UNL     1      54.377  41.365  61.987  1.00  0.00     0.164 HD
HETATM    9  C11 UNL     1      55.669  39.839  65.483  1.00  0.00     0.128 C 
HETATM   10  C12 UNL     1      55.839  40.677  66.700  1.00  0.00     0.033 C 
ENDROOT
BRANCH   1  11
HETATM   11  C3  UNL     1      56.761  42.840  67.453  1.00  0.00     0.145 A 
HETATM   12  N2  UNL     1      57.173  44.119  67.380  1.00  0.00    -0.281 N 
HETATM   13  N1  UNL     1      57.349  44.594  68.579  1.00  0.00    -0.272 N 
ATOM     14  H2  UNL     1      57.325  44.638  66.516  1.00  0.00     0.189 HD
HETATM   15  C2  UNL     1      57.044  43.607  69.438  1.00  0.00     0.203 A 
ATOM     16  H1  UNL     1      57.659  45.536  68.820  1.00  0.00     0.189 HD
HETATM   17  O2  UNL     1      56.692  42.556  68.740  1.00  0.00    -0.272 OA
BRANCH  15  18
HETATM   18  S1  UNL     1      57.136  43.792  71.209  1.00  0.00    -0.089 SA
HETATM   19  C1  UNL     1      58.340  45.098  71.658  1.00  0.00     0.099 C 
ENDBRANCH  15  18
ENDBRANCH   1  11
BRANCH   7  20
HETATM   20  C8  UNL     1      54.150  39.678  60.744  1.00  0.00     0.125 C 
BRANCH  20  21
HETATM   21  C9  UNL     1      53.276  40.519  59.855  1.00  0.00     0.034 C 
BRANCH  21  22
HETATM   22  C10 UNL     1      53.475  41.998  60.212  1.00  0.00     0.116 C 
HETATM   23 CL1  UNL     1      51.884  42.774  60.341  1.00  0.00    -0.130 Cl
ENDBRANCH  21  22
ENDBRANCH  20  21
ENDBRANCH   7  20
TORSDOF 5
ENDMDL
MODEL 2
REMARK VINA RESULT: -6.859612901      2.026      2.299
REMARK  5 active torsions:
REMARK  status: ('A' for Active; 'I' for Inactive)
REMARK    1  A    between atoms: S1_2  and  C2_3 
REMARK    2  A    between atoms: C3_8  and  C4_9 
REMARK       I    between atoms: N3_12  and  C7_13 
REMARK       I    between atoms: C7_13  and  N4_15 
REMARK    3  A    between atoms: N4_15  and  C8_17 
REMARK    4  A    between atoms: C8_17  and  C9_18 
REMARK    5  A    between atoms: C9_18  and  C10_19 
ROOT
HETATM    1  C4  UNL     1      57.438  41.858  67.085  1.00  0.00     0.065 C 
HETATM    2  C5  UNL     1      56.634  43.108  66.866  1.00  0.00     0.033 C 
HETATM    3  C6  UNL     1      55.715  43.034  65.699  1.00  0.00     0.128 C 
HETATM    4  N3  UNL     1      55.347  41.710  65.275  1.00  0.00    -0.334 N 
HETATM    5  C7  UNL     1      54.555  41.570  64.102  1.00  0.00     0.318 C 
HETATM    6  O1  UNL     1      54.201  40.435  63.680  1.00  0.00    -0.247 OA
HETATM    7  N4  UNL     1      54.144  42.712  63.379  1.00  0.00    -0.343 N 
ATOM      8  H4  UNL     1      54.443  43.619  63.737  1.00  0.00     0.164 HD
HETATM    9  C11 UNL     1      55.735  40.524  65.968  1.00  0.00     0.128 C 
HETATM   10  C12 UNL     1      56.454  40.721  67.255  1.00  0.00     0.033 C 
ENDROOT
BRANCH   1  11
HETATM   11  C3  UNL     1      58.262  42.049  68.284  1.00  0.00     0.145 A 
HETATM   12  N2  UNL     1      59.530  41.618  68.417  1.00  0.00    -0.281 N 
HETATM   13  N1  UNL     1      59.985  41.940  69.593  1.00  0.00    -0.272 N 
ATOM     14  H2  UNL     1      60.055  41.113  67.704  1.00  0.00     0.189 HD
HETATM   15  C2  UNL     1      58.996  42.592  70.228  1.00  0.00     0.203 A 
ATOM     16  H1  UNL     1      60.915  41.738  69.962  1.00  0.00     0.189 HD
HETATM   17  O2  UNL     1      57.964  42.648  69.423  1.00  0.00    -0.272 OA
BRANCH  15  18
HETATM   18  S1  UNL     1      59.156  43.234  71.884  1.00  0.00    -0.089 SA
HETATM   19  C1  UNL     1      58.783  45.027  71.918  1.00  0.00     0.099 C 
ENDBRANCH  15  18
ENDBRANCH   1  11
BRANCH   7  20
HETATM   20  C8  UNL     1      53.344  42.710  62.186  1.00  0.00     0.125 C 
BRANCH  20  21
HETATM   21  C9  UNL     1      54.155  42.393  60.961  1.00  0.00     0.034 C 
BRANCH  21  22
HETATM   22  C10 UNL     1      53.386  41.382  60.099  1.00  0.00     0.116 C 
HETATM   23 CL1  UNL     1      54.128  39.782  60.295  1.00  0.00    -0.130 Cl
ENDBRANCH  21  22
ENDBRANCH  20  21
ENDBRANCH   7  20
TORSDOF 5
ENDMDL
MODEL 3
REMARK VINA RESULT: -6.841698204      1.258      1.261
REMARK  5 active torsions:
REMARK  status: ('A' for Active; 'I' for Inactive)
REMARK    1  A    between atoms: S1_2  and  C2_3 
REMARK    2  A    between atoms: C3_8  and  C4_9 
REMARK       I    between atoms: N3_12  and  C7_13 
REMARK       I    between atoms: C7_13  and  N4_15 
REMARK    3  A    between atoms: N4_15  and  C8_17 
REMARK    4  A    between atoms: C8_17  and  C9_18 
REMARK    5  A    between atoms: C9_18  and  C10_19 
ROOT
HETATM    1  C4  UNL     1      56.637  41.339  66.308  1.00  0.00     0.065 C 
HETATM    2  C5  UNL     1      55.729  42.226  65.504  1.00  0.00     0.033 C 
HETATM    3  C6  UNL     1      55.253  41.605  64.239  1.00  0.00     0.128 C 
HETATM    4  N3  UNL     1      55.286  40.168  64.194  1.00  0.00    -0.334 N 
HETATM    5  C7  UNL     1      54.941  39.520  62.976  1.00  0.00     0.318 C 
HETATM    6  O1  UNL     1      54.952  38.262  62.876  1.00  0.00    -0.247 OA
HETATM    7  N4  UNL     1      54.577  40.280  61.843  1.00  0.00    -0.343 N 
ATOM      8  H4  UNL     1      54.578  41.295  61.945  1.00  0.00     0.164 HD
HETATM    9  C11 UNL     1      55.645  39.354  65.309  1.00  0.00     0.128 C 
HETATM   10  C12 UNL     1      55.875  40.064  66.595  1.00  0.00     0.033 C 
ENDROOT
BRANCH   1  11
HETATM   11  C3  UNL     1      56.994  42.051  67.542  1.00  0.00     0.145 A 
HETATM   12  N2  UNL     1      56.321  43.105  68.038  1.00  0.00    -0.281 N 
HETATM   13  N1  UNL     1      56.885  43.510  69.139  1.00  0.00    -0.272 N 
ATOM     14  H2  UNL     1      55.494  43.524  67.615  1.00  0.00     0.189 HD
HETATM   15  C2  UNL     1      57.937  42.703  69.357  1.00  0.00     0.203 A 
ATOM     16  H1  UNL     1      56.585  44.290  69.724  1.00  0.00     0.189 HD
HETATM   17  O2  UNL     1      57.988  41.829  68.383  1.00  0.00    -0.272 OA
BRANCH  15  18
HETATM   18  S1  UNL     1      59.022  42.874  70.762  1.00  0.00    -0.089 SA
HETATM   19  C1  UNL     1      60.517  41.835  70.550  1.00  0.00     0.099 C 
ENDBRANCH  15  18
ENDBRANCH   1  11
BRANCH   7  20
HETATM   20  C8  UNL     1      54.207  39.752  60.559  1.00  0.00     0.125 C 
BRANCH  20  21
HETATM   21  C9  UNL     1      53.165  40.596  59.879  1.00  0.00     0.034 C 
BRANCH  21  22
HETATM   22  C10 UNL     1      53.433  42.074  60.195  1.00  0.00     0.116 C 
HETATM   23 CL1  UNL     1      51.881  42.889  60.475  1.00  0.00    -0.130 Cl
ENDBRANCH  21  22
ENDBRANCH  20  21
ENDBRANCH   7  20
TORSDOF 5
ENDMDL
MODEL 4
REMARK VINA RESULT: -6.738994119      1.257      1.264
REMARK  5 active torsions:
REMARK  status: ('A' for Active; 'I' for Inactive)
REMARK    1  A    between atoms: S1_2  and  C2_3 
REMARK    2  A    between atoms: C3_8  and  C4_9 
REMARK       I    between atoms: N3_12  and  C7_13 
REMARK       I    between atoms: C7_13  and  N4_15 
REMARK    3  A    between atoms: N4_15  and  C8_17 
REMARK    4  A    between atoms: C8_17  and  C9_18 
REMARK    5  A    between atoms: C9_18  and  C10_19 
ROOT
HETATM    1  C4  UNL     1      56.553  40.986  66.435  1.00  0.00     0.065 C 
HETATM    2  C5  UNL     1      55.706  41.958  65.662  1.00  0.00     0.033 C 
HETATM    3  C6  UNL     1      55.256  41.441  64.342  1.00  0.00     0.128 C 
HETATM    4  N3  UNL     1      55.240  40.010  64.200  1.00  0.00    -0.334 N 
HETATM    5  C7  UNL     1      54.919  39.458  62.929  1.00  0.00     0.318 C 
HETATM    6  O1  UNL     1      54.889  38.211  62.744  1.00  0.00    -0.247 OA
HETATM    7  N4  UNL     1      54.624  40.306  61.838  1.00  0.00    -0.343 N 
ATOM      8  H4  UNL     1      54.656  41.311  62.010  1.00  0.00     0.164 HD
HETATM    9  C11 UNL     1      55.530  39.110  65.268  1.00  0.00     0.128 C 
HETATM   10  C12 UNL     1      55.736  39.724  66.607  1.00  0.00     0.033 C 
ENDROOT
BRANCH   1  11
HETATM   11  C3  UNL     1      56.888  41.600  67.726  1.00  0.00     0.145 A 
HETATM   12  N2  UNL     1      57.177  40.913  68.846  1.00  0.00    -0.281 N 
HETATM   13  N1  UNL     1      57.429  41.741  69.818  1.00  0.00    -0.272 N 
ATOM     14  H2  UNL     1      57.195  39.897  68.923  1.00  0.00     0.189 HD
HETATM   15  C2  UNL     1      57.303  42.981  69.316  1.00  0.00     0.203 A 
ATOM     16  H1  UNL     1      57.676  41.496  70.777  1.00  0.00     0.189 HD
HETATM   17  O2  UNL     1      56.975  42.876  68.052  1.00  0.00    -0.272 OA
BRANCH  15  18
HETATM   18  S1  UNL     1      57.557  44.457  70.285  1.00  0.00    -0.089 SA
HETATM   19  C1  UNL     1      58.584  44.090  71.758  1.00  0.00     0.099 C 
ENDBRANCH  15  18
ENDBRANCH   1  11
BRANCH   7  20
HETATM   20  C8  UNL     1      54.283  39.879  60.510  1.00  0.00     0.125 C 
BRANCH  20  21
HETATM   21  C9  UNL     1      53.184  40.713  59.912  1.00  0.00     0.034 C 
BRANCH  21  22
HETATM   22  C10 UNL     1      53.418  42.185  60.277  1.00  0.00     0.116 C 
HETATM   23 CL1  UNL     1      51.845  42.971  60.517  1.00  0.00    -0.130 Cl
ENDBRANCH  21  22
ENDBRANCH  20  21
ENDBRANCH   7  20
TORSDOF 5
ENDMDL
MODEL 5
REMARK VINA RESULT: -6.694683259      4.835      8.563
REMARK  5 active torsions:
REMARK  status: ('A' for Active; 'I' for Inactive)
REMARK    1  A    between atoms: S1_2  and  C2_3 
REMARK    2  A    between atoms: C3_8  and  C4_9 
REMARK       I    between atoms: N3_12  and  C7_13 
REMARK       I    between atoms: C7_13  and  N4_15 
REMARK    3  A    between atoms: N4_15  and  C8_17 
REMARK    4  A    between atoms: C8_17  and  C9_18 
REMARK    5  A    between atoms: C9_18  and  C10_19 
ROOT
HETATM    1  C4  UNL     1      55.999  42.570  65.546  1.00  0.00     0.065 C 
HETATM    2  C5  UNL     1      56.014  41.226  66.218  1.00  0.00     0.033 C 
HETATM    3  C6  UNL     1      56.907  41.160  67.405  1.00  0.00     0.128 C 
HETATM    4  N3  UNL     1      57.215  42.419  68.029  1.00  0.00    -0.334 N 
HETATM    5  C7  UNL     1      58.146  42.433  69.104  1.00  0.00     0.318 C 
HETATM    6  O1  UNL     1      58.457  43.506  69.690  1.00  0.00    -0.247 OA
HETATM    7  N4  UNL     1      58.748  41.232  69.540  1.00  0.00    -0.343 N 
ATOM      8  H4  UNL     1      58.485  40.376  69.051  1.00  0.00     0.164 HD
HETATM    9  C11 UNL     1      56.636  43.659  67.628  1.00  0.00     0.128 C 
HETATM   10  C12 UNL     1      55.576  43.584  66.587  1.00  0.00     0.033 C 
ENDROOT
BRANCH   1  11
HETATM   11  C3  UNL     1      55.050  42.510  64.427  1.00  0.00     0.145 A 
HETATM   12  N2  UNL     1      53.712  42.472  64.560  1.00  0.00    -0.281 N 
HETATM   13  N1  UNL     1      53.153  42.422  63.386  1.00  0.00    -0.272 N 
ATOM     14  H2  UNL     1      53.210  42.481  65.448  1.00  0.00     0.189 HD
HETATM   15  C2  UNL     1      54.146  42.429  62.481  1.00  0.00     0.203 A 
ATOM     16  H1  UNL     1      52.152  42.385  63.191  1.00  0.00     0.189 HD
HETATM   17  O2  UNL     1      55.284  42.483  63.127  1.00  0.00    -0.272 OA
BRANCH  15  18
HETATM   18  S1  UNL     1      53.863  42.373  60.721  1.00  0.00    -0.089 SA
HETATM   19  C1  UNL     1      53.429  40.672  60.194  1.00  0.00     0.099 C 
ENDBRANCH  15  18
ENDBRANCH   1  11
BRANCH   7  20
HETATM   20  C8  UNL     1      59.698  41.107  70.611  1.00  0.00     0.125 C 
BRANCH  20  21
HETATM   21  C9  UNL     1      59.071  40.562  71.864  1.00  0.00     0.034 C 
BRANCH  21  22
HETATM   22  C10 UNL     1      59.951  39.430  72.412  1.00  0.00     0.116 C 
HETATM   23 CL1  UNL     1      59.357  37.884  71.774  1.00  0.00    -0.130 Cl
ENDBRANCH  21  22
ENDBRANCH  20  21
ENDBRANCH   7  20
TORSDOF 5
ENDMDL
