MODEL 1
REMARK VINA RESULT: -6.974369026      0.000      0.000
REMARK  8 active torsions:
REMARK  status: ('A' for Active; 'I' for Inactive)
REMARK    1  A    between atoms: C2_2  and  C3_3 
REMARK    2  A    between atoms: C3_3  and  N1_4 
REMARK    3  A    between atoms: N1_4  and  C4_6 
REMARK    4  A    between atoms: C6_11  and  C7_12 
REMARK    5  A    between atoms: C7_12  and  O2_14 
REMARK    6  A    between atoms: O2_14  and  C8_15 
REMARK    7  A    between atoms: C12_19  and  C13_20 
REMARK    8  A    between atoms: C13_20  and  O4_22 
ROOT
HETATM    1  C4  UNL     1      54.947  40.777  63.316  1.00  0.00     0.123 A 
HETATM    2  N2  UNL     1      55.537  39.623  62.999  1.00  0.00    -0.331 N 
ATOM      3  H2  UNL     1      55.995  39.532  62.092  1.00  0.00     0.168 HD
HETATM    4  C5  UNL     1      55.543  38.564  63.855  1.00  0.00     0.122 A 
HETATM    5 CL1  UNL     1      56.337  37.095  63.360  1.00  0.00    -0.063 Cl
HETATM    6  C6  UNL     1      54.944  38.610  65.101  1.00  0.00     0.085 A 
HETATM    7  C10 UNL     1      54.326  39.791  65.456  1.00  0.00    -0.022 A 
HETATM    8  C11 UNL     1      53.687  39.826  66.795  1.00  0.00     0.050 C 
HETATM    9  C12 UNL     1      54.333  40.832  64.584  1.00  0.00     0.090 A 
ENDROOT
BRANCH   1  10
HETATM   10  N1  UNL     1      54.915  41.759  62.578  1.00  0.00    -0.355 N 
ATOM     11  H1  UNL     1      55.062  42.586  63.156  1.00  0.00     0.166 HD
BRANCH  10  12
HETATM   12  C3  UNL     1      54.758  42.181  61.279  1.00  0.00     0.062 C 
BRANCH  12  13
HETATM   13  C2  UNL     1      53.446  42.004  60.585  1.00  0.00     0.040 C 
HETATM   14  C1  UNL     1      53.438  40.593  59.984  1.00  0.00     0.010 C 
ENDBRANCH  12  13
ENDBRANCH  10  12
ENDBRANCH   1  10
BRANCH   9  15
HETATM   15  C13 UNL     1      53.667  42.076  64.991  1.00  0.00     0.297 C 
HETATM   16  O3  UNL     1      52.576  42.354  64.450  1.00  0.00    -0.259 OA
BRANCH  15  17
HETATM   17  O4  UNL     1      54.189  42.935  65.928  1.00  0.00    -0.322 OA
HETATM   18  C14 UNL     1      55.547  43.318  65.821  1.00  0.00     0.213 C 
ENDBRANCH  15  17
ENDBRANCH   9  15
BRANCH   6  19
HETATM   19  C7  UNL     1      54.967  37.451  66.002  1.00  0.00     0.297 C 
HETATM   20  O1  UNL     1      55.764  37.447  66.948  1.00  0.00    -0.259 OA
BRANCH  19  21
HETATM   21  O2  UNL     1      54.149  36.370  65.850  1.00  0.00    -0.318 OA
BRANCH  21  22
HETATM   22  C8  UNL     1      53.087  36.042  66.694  1.00  0.00     0.174 C 
HETATM   23  C9  UNL     1      52.376  34.782  66.370  1.00  0.00     0.034 C 
ENDBRANCH  21  22
ENDBRANCH  19  21
ENDBRANCH   6  19
TORSDOF 8
ENDMDL
MODEL 2
REMARK VINA RESULT: -6.867526976      2.206      5.553
REMARK  8 active torsions:
REMARK  status: ('A' for Active; 'I' for Inactive)
REMARK    1  A    between atoms: C2_2  and  C3_3 
REMARK    2  A    between atoms: C3_3  and  N1_4 
REMARK    3  A    between atoms: N1_4  and  C4_6 
REMARK    4  A    between atoms: C6_11  and  C7_12 
REMARK    5  A    between atoms: C7_12  and  O2_14 
REMARK    6  A    between atoms: O2_14  and  C8_15 
REMARK    7  A    between atoms: C12_19  and  C13_20 
REMARK    8  A    between atoms: C13_20  and  O4_22 
ROOT
HETATM    1  C4  UNL     1      55.375  38.836  64.220  1.00  0.00     0.123 A 
HETATM    2  N2  UNL     1      54.937  38.686  62.968  1.00  0.00    -0.331 N 
ATOM      3  H2  UNL     1      54.876  37.748  62.572  1.00  0.00     0.168 HD
HETATM    4  C5  UNL     1      54.570  39.753  62.206  1.00  0.00     0.122 A 
HETATM    5 CL1  UNL     1      54.010  39.466  60.582  1.00  0.00    -0.063 Cl
HETATM    6  C6  UNL     1      54.625  41.055  62.672  1.00  0.00     0.085 A 
HETATM    7  C10 UNL     1      55.074  41.240  63.963  1.00  0.00    -0.022 A 
HETATM    8  C11 UNL     1      55.128  42.641  64.448  1.00  0.00     0.050 C 
HETATM    9  C12 UNL     1      55.434  40.159  64.702  1.00  0.00     0.090 A 
ENDROOT
BRANCH   1  10
HETATM   10  N1  UNL     1      55.717  37.904  64.945  1.00  0.00    -0.355 N 
ATOM     11  H1  UNL     1      56.717  37.999  65.119  1.00  0.00     0.166 HD
BRANCH  10  12
HETATM   12  C3  UNL     1      55.282  36.785  65.613  1.00  0.00     0.062 C 
BRANCH  12  13
HETATM   13  C2  UNL     1      54.010  36.825  66.396  1.00  0.00     0.040 C 
HETATM   14  C1  UNL     1      53.465  35.391  66.446  1.00  0.00     0.010 C 
ENDBRANCH  12  13
ENDBRANCH  10  12
ENDBRANCH   1  10
BRANCH   9  15
HETATM   15  C13 UNL     1      55.908  40.389  66.073  1.00  0.00     0.297 C 
HETATM   16  O3  UNL     1      55.136  40.100  67.010  1.00  0.00    -0.259 OA
BRANCH  15  17
HETATM   17  O4  UNL     1      57.150  40.903  66.361  1.00  0.00    -0.322 OA
HETATM   18  C14 UNL     1      57.290  41.764  67.474  1.00  0.00     0.213 C 
ENDBRANCH  15  17
ENDBRANCH   9  15
BRANCH   6  19
HETATM   19  C7  UNL     1      54.223  42.185  61.826  1.00  0.00     0.297 C 
HETATM   20  O1  UNL     1      54.995  42.572  60.940  1.00  0.00    -0.259 OA
BRANCH  19  21
HETATM   21  O2  UNL     1      53.033  42.837  61.967  1.00  0.00    -0.318 OA
BRANCH  21  22
HETATM   22  C8  UNL     1      52.165  43.159  60.922  1.00  0.00     0.174 C 
HETATM   23  C9  UNL     1      51.454  42.014  60.303  1.00  0.00     0.034 C 
ENDBRANCH  21  22
ENDBRANCH  19  21
ENDBRANCH   6  19
TORSDOF 8
ENDMDL
MODEL 3
REMARK VINA RESULT: -6.808541386      3.033      5.546
REMARK  8 active torsions:
REMARK  status: ('A' for Active; 'I' for Inactive)
REMARK    1  A    between atoms: C2_2  and  C3_3 
REMARK    2  A    between atoms: C3_3  and  N1_4 
REMARK    3  A    between atoms: N1_4  and  C4_6 
REMARK    4  A    between atoms: C6_11  and  C7_12 
REMARK    5  A    between atoms: C7_12  and  O2_14 
REMARK    6  A    between atoms: O2_14  and  C8_15 
REMARK    7  A    between atoms: C12_19  and  C13_20 
REMARK    8  A    between atoms: C13_20  and  O4_22 
ROOT
HETATM    1  C4  UNL     1      53.484  41.759  65.317  1.00  0.00     0.123 A 
HETATM    2  N2  UNL     1      53.148  42.446  64.224  1.00  0.00    -0.331 N 
ATOM      3  H2  UNL     1      52.390  43.126  64.278  1.00  0.00     0.168 HD
HETATM    4  C5  UNL     1      53.793  42.264  63.039  1.00  0.00     0.122 A 
HETATM    5 CL1  UNL     1      53.291  43.205  61.662  1.00  0.00    -0.063 Cl
HETATM    6  C6  UNL     1      54.831  41.362  62.886  1.00  0.00     0.085 A 
HETATM    7  C10 UNL     1      55.200  40.636  64.001  1.00  0.00    -0.022 A 
HETATM    8  C11 UNL     1      56.314  39.673  63.822  1.00  0.00     0.050 C 
HETATM    9  C12 UNL     1      54.540  40.837  65.171  1.00  0.00     0.090 A 
ENDROOT
BRANCH   1  10
HETATM   10  N1  UNL     1      52.931  41.888  66.408  1.00  0.00    -0.355 N 
ATOM     11  H1  UNL     1      52.608  40.967  66.702  1.00  0.00     0.166 HD
BRANCH  10  12
HETATM   12  C3  UNL     1      52.578  42.786  67.386  1.00  0.00     0.062 C 
BRANCH  12  13
HETATM   13  C2  UNL     1      51.331  42.577  68.183  1.00  0.00     0.040 C 
HETATM   14  C1  UNL     1      50.180  43.223  67.401  1.00  0.00     0.010 C 
ENDBRANCH  12  13
ENDBRANCH  10  12
ENDBRANCH   1  10
BRANCH   9  15
HETATM   15  C13 UNL     1      54.955  40.049  66.339  1.00  0.00     0.297 C 
HETATM   16  O3  UNL     1      55.863  40.514  67.059  1.00  0.00    -0.259 OA
BRANCH  15  17
HETATM   17  O4  UNL     1      54.393  38.838  66.666  1.00  0.00    -0.322 OA
HETATM   18  C14 UNL     1      55.223  37.695  66.725  1.00  0.00     0.213 C 
ENDBRANCH  15  17
ENDBRANCH   9  15
BRANCH   6  19
HETATM   19  C7  UNL     1      55.507  41.187  61.595  1.00  0.00     0.297 C 
HETATM   20  O1  UNL     1      56.467  41.918  61.320  1.00  0.00    -0.259 OA
BRANCH  19  21
HETATM   21  O2  UNL     1      55.129  40.255  60.674  1.00  0.00    -0.318 OA
BRANCH  21  22
HETATM   22  C8  UNL     1      53.924  39.550  60.693  1.00  0.00     0.174 C 
HETATM   23  C9  UNL     1      52.978  39.869  59.597  1.00  0.00     0.034 C 
ENDBRANCH  21  22
ENDBRANCH  19  21
ENDBRANCH   6  19
TORSDOF 8
ENDMDL
MODEL 4
REMARK VINA RESULT: -6.792039093      3.067      5.394
REMARK  8 active torsions:
REMARK  status: ('A' for Active; 'I' for Inactive)
REMARK    1  A    between atoms: C2_2  and  C3_3 
REMARK    2  A    between atoms: C3_3  and  N1_4 
REMARK    3  A    between atoms: N1_4  and  C4_6 
REMARK    4  A    between atoms: C6_11  and  C7_12 
REMARK    5  A    between atoms: C7_12  and  O2_14 
REMARK    6  A    between atoms: O2_14  and  C8_15 
REMARK    7  A    between atoms: C12_19  and  C13_20 
REMARK    8  A    between atoms: C13_20  and  O4_22 
ROOT
HETATM    1  C4  UNL     1      53.482  41.712  65.314  1.00  0.00     0.123 A 
HETATM    2  N2  UNL     1      53.163  42.421  64.230  1.00  0.00    -0.331 N 
ATOM      3  H2  UNL     1      52.419  43.116  64.292  1.00  0.00     0.168 HD
HETATM    4  C5  UNL     1      53.806  42.242  63.044  1.00  0.00     0.122 A 
HETATM    5 CL1  UNL     1      53.326  43.211  61.679  1.00  0.00    -0.063 Cl
HETATM    6  C6  UNL     1      54.825  41.319  62.880  1.00  0.00     0.085 A 
HETATM    7  C10 UNL     1      55.176  40.571  63.985  1.00  0.00    -0.022 A 
HETATM    8  C11 UNL     1      56.269  39.586  63.795  1.00  0.00     0.050 C 
HETATM    9  C12 UNL     1      54.518  40.770  65.157  1.00  0.00     0.090 A 
ENDROOT
BRANCH   1  10
HETATM   10  N1  UNL     1      52.930  41.838  66.406  1.00  0.00    -0.355 N 
ATOM     11  H1  UNL     1      52.630  40.912  66.710  1.00  0.00     0.166 HD
BRANCH  10  12
HETATM   12  C3  UNL     1      52.559  42.736  67.377  1.00  0.00     0.062 C 
BRANCH  12  13
HETATM   13  C2  UNL     1      51.298  42.527  68.150  1.00  0.00     0.040 C 
HETATM   14  C1  UNL     1      50.171  43.223  67.375  1.00  0.00     0.010 C 
ENDBRANCH  12  13
ENDBRANCH  10  12
ENDBRANCH   1  10
BRANCH   9  15
HETATM   15  C13 UNL     1      54.915  39.958  66.315  1.00  0.00     0.297 C 
HETATM   16  O3  UNL     1      54.129  39.064  66.693  1.00  0.00    -0.259 OA
BRANCH  15  17
HETATM   17  O4  UNL     1      56.099  40.140  66.989  1.00  0.00    -0.322 OA
HETATM   18  C14 UNL     1      56.492  41.455  67.332  1.00  0.00     0.213 C 
ENDBRANCH  15  17
ENDBRANCH   9  15
BRANCH   6  19
HETATM   19  C7  UNL     1      55.500  41.148  61.588  1.00  0.00     0.297 C 
HETATM   20  O1  UNL     1      56.476  41.862  61.325  1.00  0.00    -0.259 OA
BRANCH  19  21
HETATM   21  O2  UNL     1      55.103  40.237  60.653  1.00  0.00    -0.318 OA
BRANCH  21  22
HETATM   22  C8  UNL     1      53.882  39.561  60.659  1.00  0.00     0.174 C 
HETATM   23  C9  UNL     1      52.899  40.004  59.641  1.00  0.00     0.034 C 
ENDBRANCH  21  22
ENDBRANCH  19  21
ENDBRANCH   6  19
TORSDOF 8
ENDMDL
MODEL 5
REMARK VINA RESULT: -6.758968348      1.029      1.052
REMARK  8 active torsions:
REMARK  status: ('A' for Active; 'I' for Inactive)
REMARK    1  A    between atoms: C2_2  and  C3_3 
REMARK    2  A    between atoms: C3_3  and  N1_4 
REMARK    3  A    between atoms: N1_4  and  C4_6 
REMARK    4  A    between atoms: C6_11  and  C7_12 
REMARK    5  A    between atoms: C7_12  and  O2_14 
REMARK    6  A    between atoms: O2_14  and  C8_15 
REMARK    7  A    between atoms: C12_19  and  C13_20 
REMARK    8  A    between atoms: C13_20  and  O4_22 
ROOT
HETATM    1  C4  UNL     1      55.330  40.050  63.389  1.00  0.00     0.123 A 
HETATM    2  N2  UNL     1      55.690  38.771  63.512  1.00  0.00    -0.331 N 
ATOM      3  H2  UNL     1      56.120  38.298  62.718  1.00  0.00     0.168 HD
HETATM    4  C5  UNL     1      55.498  38.082  64.671  1.00  0.00     0.122 A 
HETATM    5 CL1  UNL     1      55.998  36.416  64.744  1.00  0.00    -0.063 Cl
HETATM    6  C6  UNL     1      54.920  38.654  65.791  1.00  0.00     0.085 A 
HETATM    7  C10 UNL     1      54.538  39.977  65.693  1.00  0.00    -0.022 A 
HETATM    8  C11 UNL     1      53.921  40.576  66.901  1.00  0.00     0.050 C 
HETATM    9  C12 UNL     1      54.741  40.641  64.525  1.00  0.00     0.090 A 
ENDROOT
BRANCH   1  10
HETATM   10  N1  UNL     1      55.483  40.713  62.365  1.00  0.00    -0.355 N 
ATOM     11  H1  UNL     1      56.246  41.369  62.531  1.00  0.00     0.166 HD
BRANCH  10  12
HETATM   12  C3  UNL     1      55.029  40.916  61.084  1.00  0.00     0.062 C 
BRANCH  12  13
HETATM   13  C2  UNL     1      53.604  40.632  60.737  1.00  0.00     0.040 C 
HETATM   14  C1  UNL     1      53.589  39.346  59.901  1.00  0.00     0.010 C 
ENDBRANCH  12  13
ENDBRANCH  10  12
ENDBRANCH   1  10
BRANCH   9  15
HETATM   15  C13 UNL     1      54.323  42.047  64.452  1.00  0.00     0.297 C 
HETATM   16  O3  UNL     1      53.116  42.283  64.236  1.00  0.00    -0.259 OA
BRANCH  15  17
HETATM   17  O4  UNL     1      55.196  43.098  64.608  1.00  0.00    -0.322 OA
HETATM   18  C14 UNL     1      55.574  43.482  65.915  1.00  0.00     0.213 C 
ENDBRANCH  15  17
ENDBRANCH   9  15
BRANCH   6  19
HETATM   19  C7  UNL     1      54.726  37.886  67.026  1.00  0.00     0.297 C 
HETATM   20  O1  UNL     1      55.643  37.847  67.856  1.00  0.00    -0.259 OA
BRANCH  19  21
HETATM   21  O2  UNL     1      53.578  37.205  67.309  1.00  0.00    -0.318 OA
BRANCH  21  22
HETATM   22  C8  UNL     1      52.792  36.532  66.372  1.00  0.00     0.174 C 
HETATM   23  C9  UNL     1      52.754  35.056  66.508  1.00  0.00     0.034 C 
ENDBRANCH  21  22
ENDBRANCH  19  21
ENDBRANCH   6  19
TORSDOF 8
ENDMDL
