MODEL 1
REMARK VINA RESULT: -8.241267350      0.000      0.000
REMARK  5 active torsions:
REMARK  status: ('A' for Active; 'I' for Inactive)
REMARK    1  A    between atoms: C3_6  and  C4_7 
REMARK    2  A    between atoms: C4_7  and  N2_8 
REMARK    3  A    between atoms: N2_8  and  C5_11 
REMARK    4  A    between atoms: C10_17  and  C11_18 
REMARK    5  A    between atoms: C11_18  and  N3_19 
ROOT
HETATM    1  C1  UNL     1      56.768  41.343  66.789  1.00  0.00     0.080 C 
HETATM    2  C2  UNL     1      55.992  40.114  66.961  1.00  0.00     0.086 A 
HETATM    3  O1  UNL     1      55.559  39.671  68.109  1.00  0.00    -0.242 OA
HETATM    4  N1  UNL     1      54.905  38.619  67.967  1.00  0.00    -0.263 N 
ATOM      5  H1  UNL     1      54.481  38.091  68.730  1.00  0.00     0.194 HD
HETATM    6  C3  UNL     1      54.840  38.291  66.722  1.00  0.00     0.072 A 
HETATM    7  C10 UNL     1      55.530  39.169  65.979  1.00  0.00     0.037 A 
ENDROOT
BRANCH   6   8
HETATM    8  C4  UNL     1      53.868  37.278  66.127  1.00  0.00     0.292 C 
BRANCH   8   9
HETATM    9  N2  UNL     1      52.519  37.870  66.279  1.00  0.00    -0.066 N 
ATOM     10  H22 UNL     1      52.535  38.728  66.832  1.00  0.00     0.278 HD
ATOM     11  H21 UNL     1      52.172  38.266  65.405  1.00  0.00     0.278 HD
BRANCH   9  12
HETATM   12  C5  UNL     1      51.610  36.880  66.830  1.00  0.00     0.190 C 
HETATM   13  C6  UNL     1      51.608  36.964  68.323  1.00  0.00     0.059 C 
HETATM   14  C7  UNL     1      50.749  35.881  68.949  1.00  0.00     0.169 C 
HETATM   15  O2  UNL     1      49.947  35.304  67.954  1.00  0.00    -0.391 OA
HETATM   16  C8  UNL     1      50.827  34.544  67.187  1.00  0.00     0.169 C 
HETATM   17  C9  UNL     1      51.645  35.512  66.289  1.00  0.00     0.059 C 
ENDBRANCH   9  12
ENDBRANCH   8   9
ENDBRANCH   6   8
BRANCH   7  18
HETATM   18  C11 UNL     1      55.853  39.455  64.581  1.00  0.00     0.101 C 
BRANCH  18  19
HETATM   19  N3  UNL     1      55.127  40.445  63.891  1.00  0.00    -0.388 N 
HETATM   20  C12 UNL     1      53.918  41.012  64.210  1.00  0.00     0.125 C 
HETATM   21  C13 UNL     1      53.817  42.334  63.383  1.00  0.00     0.057 C 
HETATM   22  C14 UNL     1      53.667  41.914  61.941  1.00  0.00     0.177 C 
HETATM   23  F1  UNL     1      53.464  42.951  61.077  1.00  0.00    -0.249 F 
HETATM   24  C15 UNL     1      54.923  41.164  61.550  1.00  0.00     0.033 C 
HETATM   25  C16 UNL     1      56.131  42.024  61.372  1.00  0.00     0.014 C 
HETATM   26  C17 UNL     1      55.131  40.009  62.444  1.00  0.00     0.129 C 
ENDBRANCH  18  19
ENDBRANCH   7  18
TORSDOF 5
ENDMDL
MODEL 2
REMARK VINA RESULT: -8.205833574      3.004      6.011
REMARK  5 active torsions:
REMARK  status: ('A' for Active; 'I' for Inactive)
REMARK    1  A    between atoms: C3_6  and  C4_7 
REMARK    2  A    between atoms: C4_7  and  N2_8 
REMARK    3  A    between atoms: N2_8  and  C5_11 
REMARK    4  A    between atoms: C10_17  and  C11_18 
REMARK    5  A    between atoms: C11_18  and  N3_19 
ROOT
HETATM    1  C1  UNL     1      53.509  36.646  67.343  1.00  0.00     0.080 C 
HETATM    2  C2  UNL     1      54.415  36.963  66.238  1.00  0.00     0.086 A 
HETATM    3  O1  UNL     1      55.083  36.075  65.556  1.00  0.00    -0.242 OA
HETATM    4  N1  UNL     1      55.758  36.614  64.657  1.00  0.00    -0.263 N 
ATOM      5  H1  UNL     1      56.367  36.113  64.008  1.00  0.00     0.194 HD
HETATM    6  C3  UNL     1      55.582  37.890  64.661  1.00  0.00     0.072 A 
HETATM    7  C10 UNL     1      54.755  38.236  65.659  1.00  0.00     0.037 A 
ENDROOT
BRANCH   6   8
HETATM    8  C4  UNL     1      55.963  38.837  63.528  1.00  0.00     0.292 C 
BRANCH   8   9
HETATM    9  N2  UNL     1      54.878  38.729  62.525  1.00  0.00    -0.066 N 
ATOM     10  H22 UNL     1      55.061  37.997  61.838  1.00  0.00     0.278 HD
ATOM     11  H21 UNL     1      54.022  38.344  62.924  1.00  0.00     0.278 HD
BRANCH   9  12
HETATM   12  C5  UNL     1      54.659  40.023  61.903  1.00  0.00     0.190 C 
HETATM   13  C6  UNL     1      54.258  41.025  62.937  1.00  0.00     0.059 C 
HETATM   14  C7  UNL     1      53.920  42.370  62.321  1.00  0.00     0.169 C 
HETATM   15  O2  UNL     1      54.380  42.393  60.996  1.00  0.00    -0.391 OA
HETATM   16  C8  UNL     1      53.511  41.550  60.306  1.00  0.00     0.169 C 
HETATM   17  C9  UNL     1      53.884  40.083  60.653  1.00  0.00     0.059 C 
ENDBRANCH   9  12
ENDBRANCH   8   9
ENDBRANCH   6   8
BRANCH   7  18
HETATM   18  C11 UNL     1      54.101  39.416  66.225  1.00  0.00     0.101 C 
BRANCH  18  19
HETATM   19  N3  UNL     1      54.883  40.418  66.832  1.00  0.00    -0.388 N 
HETATM   20  C12 UNL     1      55.587  40.371  68.010  1.00  0.00     0.125 C 
HETATM   21  C13 UNL     1      56.610  41.552  67.961  1.00  0.00     0.057 C 
HETATM   22  C14 UNL     1      55.794  42.817  68.060  1.00  0.00     0.177 C 
HETATM   23  F1  UNL     1      56.540  43.957  68.132  1.00  0.00    -0.249 F 
HETATM   24  C15 UNL     1      54.891  42.875  66.845  1.00  0.00     0.033 C 
HETATM   25  C16 UNL     1      55.591  43.200  65.566  1.00  0.00     0.014 C 
HETATM   26  C17 UNL     1      54.042  41.671  66.779  1.00  0.00     0.129 C 
ENDBRANCH  18  19
ENDBRANCH   7  18
TORSDOF 5
ENDMDL
MODEL 3
REMARK VINA RESULT: -8.153899746      1.560      2.280
REMARK  5 active torsions:
REMARK  status: ('A' for Active; 'I' for Inactive)
REMARK    1  A    between atoms: C3_6  and  C4_7 
REMARK    2  A    between atoms: C4_7  and  N2_8 
REMARK    3  A    between atoms: N2_8  and  C5_11 
REMARK    4  A    between atoms: C10_17  and  C11_18 
REMARK    5  A    between atoms: C11_18  and  N3_19 
ROOT
HETATM    1  C1  UNL     1      55.347  43.339  66.284  1.00  0.00     0.080 C 
HETATM    2  C2  UNL     1      55.637  41.906  66.222  1.00  0.00     0.086 A 
HETATM    3  O1  UNL     1      56.605  41.322  66.872  1.00  0.00    -0.242 OA
HETATM    4  N1  UNL     1      56.612  40.093  66.659  1.00  0.00    -0.263 N 
ATOM      5  H1  UNL     1      57.287  39.438  67.055  1.00  0.00     0.194 HD
HETATM    6  C3  UNL     1      55.647  39.765  65.870  1.00  0.00     0.072 A 
HETATM    7  C10 UNL     1      54.965  40.859  65.498  1.00  0.00     0.037 A 
ENDROOT
BRANCH   6   8
HETATM    8  C4  UNL     1      55.132  38.346  65.649  1.00  0.00     0.292 C 
BRANCH   8   9
HETATM    9  N2  UNL     1      54.234  38.057  66.790  1.00  0.00    -0.066 N 
ATOM     10  H22 UNL     1      54.752  37.798  67.630  1.00  0.00     0.278 HD
ATOM     11  H21 UNL     1      53.784  38.898  67.149  1.00  0.00     0.278 HD
BRANCH   9  12
HETATM   12  C5  UNL     1      53.270  37.040  66.407  1.00  0.00     0.190 C 
HETATM   13  C6  UNL     1      51.934  37.356  66.999  1.00  0.00     0.059 C 
HETATM   14  C7  UNL     1      50.916  36.268  66.710  1.00  0.00     0.169 C 
HETATM   15  O2  UNL     1      51.419  35.429  65.705  1.00  0.00    -0.391 OA
HETATM   16  C8  UNL     1      52.430  34.699  66.327  1.00  0.00     0.169 C 
HETATM   17  C9  UNL     1      53.665  35.625  66.492  1.00  0.00     0.059 C 
ENDBRANCH   9  12
ENDBRANCH   8   9
ENDBRANCH   6   8
BRANCH   7  18
HETATM   18  C11 UNL     1      53.799  41.246  64.704  1.00  0.00     0.101 C 
BRANCH  18  19
HETATM   19  N3  UNL     1      53.872  41.202  63.298  1.00  0.00    -0.388 N 
HETATM   20  C12 UNL     1      54.621  40.376  62.496  1.00  0.00     0.125 C 
HETATM   21  C13 UNL     1      53.983  40.445  61.071  1.00  0.00     0.057 C 
HETATM   22  C14 UNL     1      54.266  41.834  60.553  1.00  0.00     0.177 C 
HETATM   23  F1  UNL     1      53.860  42.041  59.266  1.00  0.00    -0.249 F 
HETATM   24  C15 UNL     1      53.569  42.816  61.471  1.00  0.00     0.033 C 
HETATM   25  C16 UNL     1      52.084  42.857  61.323  1.00  0.00     0.014 C 
HETATM   26  C17 UNL     1      54.033  42.638  62.859  1.00  0.00     0.129 C 
ENDBRANCH  18  19
ENDBRANCH   7  18
TORSDOF 5
ENDMDL
MODEL 4
REMARK VINA RESULT: -8.139328056      3.404      6.312
REMARK  5 active torsions:
REMARK  status: ('A' for Active; 'I' for Inactive)
REMARK    1  A    between atoms: C3_6  and  C4_7 
REMARK    2  A    between atoms: C4_7  and  N2_8 
REMARK    3  A    between atoms: N2_8  and  C5_11 
REMARK    4  A    between atoms: C10_17  and  C11_18 
REMARK    5  A    between atoms: C11_18  and  N3_19 
ROOT
HETATM    1  C1  UNL     1      54.868  36.234  66.265  1.00  0.00     0.080 C 
HETATM    2  C2  UNL     1      55.416  36.969  65.123  1.00  0.00     0.086 A 
HETATM    3  O1  UNL     1      56.138  36.432  64.179  1.00  0.00    -0.242 OA
HETATM    4  N1  UNL     1      56.453  37.277  63.318  1.00  0.00    -0.263 N 
ATOM      5  H1  UNL     1      57.024  37.084  62.495  1.00  0.00     0.194 HD
HETATM    6  C3  UNL     1      55.956  38.429  63.613  1.00  0.00     0.072 A 
HETATM    7  C10 UNL     1      55.289  38.360  64.774  1.00  0.00     0.037 A 
ENDROOT
BRANCH   6   8
HETATM    8  C4  UNL     1      55.840  39.610  62.654  1.00  0.00     0.292 C 
BRANCH   8   9
HETATM    9  N2  UNL     1      54.615  39.369  61.858  1.00  0.00    -0.066 N 
ATOM     10  H22 UNL     1      54.818  38.909  60.970  1.00  0.00     0.278 HD
ATOM     11  H21 UNL     1      54.026  38.644  62.267  1.00  0.00     0.278 HD
BRANCH   9  12
HETATM   12  C5  UNL     1      53.897  40.619  61.677  1.00  0.00     0.190 C 
HETATM   13  C6  UNL     1      53.564  40.811  60.232  1.00  0.00     0.059 C 
HETATM   14  C7  UNL     1      52.902  42.152  59.977  1.00  0.00     0.169 C 
HETATM   15  O2  UNL     1      52.498  42.701  61.203  1.00  0.00    -0.391 OA
HETATM   16  C8  UNL     1      53.683  43.094  61.822  1.00  0.00     0.169 C 
HETATM   17  C9  UNL     1      54.392  41.823  62.362  1.00  0.00     0.059 C 
ENDBRANCH   9  12
ENDBRANCH   8   9
ENDBRANCH   6   8
BRANCH   7  18
HETATM   18  C11 UNL     1      54.482  39.194  65.664  1.00  0.00     0.101 C 
BRANCH  18  19
HETATM   19  N3  UNL     1      55.110  40.184  66.445  1.00  0.00    -0.388 N 
HETATM   20  C12 UNL     1      55.784  40.050  67.634  1.00  0.00     0.125 C 
HETATM   21  C13 UNL     1      56.643  41.344  67.804  1.00  0.00     0.057 C 
HETATM   22  C14 UNL     1      55.664  42.466  68.050  1.00  0.00     0.177 C 
HETATM   23  F1  UNL     1      56.251  43.668  68.321  1.00  0.00    -0.249 F 
HETATM   24  C15 UNL     1      54.792  42.592  66.818  1.00  0.00     0.033 C 
HETATM   25  C16 UNL     1      55.474  43.192  65.633  1.00  0.00     0.014 C 
HETATM   26  C17 UNL     1      54.111  41.314  66.539  1.00  0.00     0.129 C 
ENDBRANCH  18  19
ENDBRANCH   7  18
TORSDOF 5
ENDMDL
MODEL 5
REMARK VINA RESULT: -8.050933212      1.595      2.240
REMARK  5 active torsions:
REMARK  status: ('A' for Active; 'I' for Inactive)
REMARK    1  A    between atoms: C3_6  and  C4_7 
REMARK    2  A    between atoms: C4_7  and  N2_8 
REMARK    3  A    between atoms: N2_8  and  C5_11 
REMARK    4  A    between atoms: C10_17  and  C11_18 
REMARK    5  A    between atoms: C11_18  and  N3_19 
ROOT
HETATM    1  C1  UNL     1      56.435  43.323  66.738  1.00  0.00     0.080 C 
HETATM    2  C2  UNL     1      56.221  41.938  67.163  1.00  0.00     0.086 A 
HETATM    3  O1  UNL     1      56.927  41.330  68.075  1.00  0.00    -0.242 OA
HETATM    4  N1  UNL     1      56.517  40.167  68.259  1.00  0.00    -0.263 N 
ATOM      5  H1  UNL     1      56.926  39.504  68.918  1.00  0.00     0.194 HD
HETATM    6  C3  UNL     1      55.506  39.918  67.499  1.00  0.00     0.072 A 
HETATM    7  C10 UNL     1      55.241  40.980  66.724  1.00  0.00     0.037 A 
ENDROOT
BRANCH   6   8
HETATM    8  C4  UNL     1      54.542  38.749  67.670  1.00  0.00     0.292 C 
BRANCH   8   9
HETATM    9  N2  UNL     1      54.940  37.742  66.659  1.00  0.00    -0.066 N 
ATOM     10  H22 UNL     1      55.391  38.168  65.849  1.00  0.00     0.278 HD
ATOM     11  H21 UNL     1      55.720  37.167  66.975  1.00  0.00     0.278 HD
BRANCH   9  12
HETATM   12  C5  UNL     1      53.786  36.942  66.287  1.00  0.00     0.190 C 
HETATM   13  C6  UNL     1      52.537  37.574  66.812  1.00  0.00     0.059 C 
HETATM   14  C7  UNL     1      51.312  36.721  66.534  1.00  0.00     0.169 C 
HETATM   15  O2  UNL     1      51.645  35.740  65.590  1.00  0.00    -0.391 OA
HETATM   16  C8  UNL     1      52.452  34.840  66.284  1.00  0.00     0.169 C 
HETATM   17  C9  UNL     1      53.856  35.481  66.453  1.00  0.00     0.059 C 
ENDBRANCH   9  12
ENDBRANCH   8   9
ENDBRANCH   6   8
BRANCH   7  18
HETATM   18  C11 UNL     1      54.283  41.428  65.713  1.00  0.00     0.101 C 
BRANCH  18  19
HETATM   19  N3  UNL     1      54.476  41.062  64.366  1.00  0.00    -0.388 N 
HETATM   20  C12 UNL     1      55.116  39.962  63.851  1.00  0.00     0.125 C 
HETATM   21  C13 UNL     1      54.639  39.826  62.370  1.00  0.00     0.057 C 
HETATM   22  C14 UNL     1      55.241  40.994  61.627  1.00  0.00     0.177 C 
HETATM   23  F1  UNL     1      55.006  40.980  60.283  1.00  0.00    -0.249 F 
HETATM   24  C15 UNL     1      54.672  42.261  62.231  1.00  0.00     0.033 C 
HETATM   25  C16 UNL     1      53.245  42.529  61.882  1.00  0.00     0.014 C 
HETATM   26  C17 UNL     1      54.960  42.316  63.676  1.00  0.00     0.129 C 
ENDBRANCH  18  19
ENDBRANCH   7  18
TORSDOF 5
ENDMDL
