MODEL 1
REMARK VINA RESULT: -6.561963380      0.000      0.000
REMARK  6 active torsions:
REMARK  status: ('A' for Active; 'I' for Inactive)
REMARK    1  A    between atoms: C2_2  and  C3_3 
REMARK    2  A    between atoms: C3_3  and  N1_4 
REMARK    3  A    between atoms: N1_4  and  C4_5 
REMARK       I    between atoms: N1_4  and  C6_7 
REMARK       I    between atoms: C6_7  and  N2_9 
REMARK    4  A    between atoms: N2_9  and  C7_11 
REMARK    5  A    between atoms: C9_15  and  S1_16 
REMARK    6  A    between atoms: S1_16  and  O2_19 
ROOT
HETATM    1  C7  UNL     1      54.492  42.329  65.624  1.00  0.00     0.096 A 
HETATM    2  C8  UNL     1      54.093  41.585  66.702  1.00  0.00     0.126 A 
HETATM    3  N3  UNL     1      54.828  41.613  67.776  1.00  0.00    -0.352 N 
ATOM      4  H3  UNL     1      54.542  41.063  68.585  1.00  0.00     0.166 HD
HETATM    5  C9  UNL     1      55.899  42.309  67.847  1.00  0.00     0.121 A 
HETATM    6  S2  UNL     1      55.944  43.021  66.297  1.00  0.00    -0.045 SA
ENDROOT
BRANCH   1   7
HETATM    7  N2  UNL     1      53.914  42.500  64.338  1.00  0.00    -0.302 N 
HETATM    8  C6  UNL     1      54.457  41.837  63.235  1.00  0.00     0.323 C 
HETATM    9  N1  UNL     1      53.891  42.001  61.956  1.00  0.00    -0.334 N 
HETATM   10  O1  UNL     1      55.448  41.094  63.374  1.00  0.00    -0.247 OA
ATOM     11  H2  UNL     1      53.103  43.107  64.220  1.00  0.00     0.171 HD
BRANCH   9  12
HETATM   12  C3  UNL     1      54.481  41.291  60.842  1.00  0.00     0.127 C 
BRANCH  12  13
HETATM   13  C2  UNL     1      54.211  39.821  60.837  1.00  0.00     0.015 C 
HETATM   14  C1  UNL     1      53.401  39.374  59.653  1.00  0.00     0.006 C 
ENDBRANCH  12  13
ENDBRANCH   9  12
BRANCH   9  15
HETATM   15  C4  UNL     1      52.746  42.854  61.764  1.00  0.00     0.123 C 
HETATM   16  C5  UNL     1      52.204  42.738  60.350  1.00  0.00     0.026 C 
ENDBRANCH   9  15
ENDBRANCH   1   7
BRANCH   5  17
HETATM   17  S1  UNL     1      57.298  42.670  69.148  1.00  0.00    -0.077 SA
HETATM   18  C10 UNL     1      57.397  44.472  68.659  1.00  0.00     0.108 C 
HETATM   19  C11 UNL     1      56.721  42.969  70.894  1.00  0.00     0.108 C 
HETATM   20 CL1  UNL     1      59.161  42.562  68.609  1.00  0.00    -0.045 Cl
BRANCH  17  21
HETATM   21  O2  UNL     1      57.574  41.126  69.354  1.00  0.00    -0.342 OA
ATOM     22  H2  UNL     1      58.117  41.294  70.115  1.00  0.00     0.226 HD
ENDBRANCH  17  21
ENDBRANCH   5  17
TORSDOF 6
ENDMDL
MODEL 2
REMARK VINA RESULT: -6.480571175      1.122      1.949
REMARK  6 active torsions:
REMARK  status: ('A' for Active; 'I' for Inactive)
REMARK    1  A    between atoms: C2_2  and  C3_3 
REMARK    2  A    between atoms: C3_3  and  N1_4 
REMARK    3  A    between atoms: N1_4  and  C4_5 
REMARK       I    between atoms: N1_4  and  C6_7 
REMARK       I    between atoms: C6_7  and  N2_9 
REMARK    4  A    between atoms: N2_9  and  C7_11 
REMARK    5  A    between atoms: C9_15  and  S1_16 
REMARK    6  A    between atoms: S1_16  and  O2_19 
ROOT
HETATM    1  C7  UNL     1      55.405  40.968  65.912  1.00  0.00     0.096 A 
HETATM    2  C8  UNL     1      54.589  41.097  67.004  1.00  0.00     0.126 A 
HETATM    3  N3  UNL     1      55.125  41.461  68.133  1.00  0.00    -0.352 N 
ATOM      4  H3  UNL     1      54.529  41.561  68.954  1.00  0.00     0.166 HD
HETATM    5  C9  UNL     1      56.377  41.698  68.244  1.00  0.00     0.121 A 
HETATM    6  S2  UNL     1      56.921  41.403  66.654  1.00  0.00    -0.045 SA
ENDROOT
BRANCH   1   7
HETATM    7  N2  UNL     1      55.122  40.595  64.571  1.00  0.00    -0.302 N 
HETATM    8  C6  UNL     1      54.930  41.579  63.597  1.00  0.00     0.323 C 
HETATM    9  N1  UNL     1      54.648  41.217  62.266  1.00  0.00    -0.334 N 
HETATM   10  O1  UNL     1      55.006  42.785  63.900  1.00  0.00    -0.247 OA
ATOM     11  H2  UNL     1      55.059  39.608  64.319  1.00  0.00     0.171 HD
BRANCH   9  12
HETATM   12  C3  UNL     1      54.462  42.267  61.288  1.00  0.00     0.127 C 
BRANCH  12  13
HETATM   13  C2  UNL     1      53.176  43.016  61.426  1.00  0.00     0.015 C 
HETATM   14  C1  UNL     1      52.181  42.682  60.352  1.00  0.00     0.006 C 
ENDBRANCH  12  13
ENDBRANCH   9  12
BRANCH   9  15
HETATM   15  C4  UNL     1      54.553  39.830  61.886  1.00  0.00     0.123 C 
HETATM   16  C5  UNL     1      54.139  39.685  60.432  1.00  0.00     0.026 C 
ENDBRANCH   9  15
ENDBRANCH   1   7
BRANCH   5  17
HETATM   17  S1  UNL     1      57.623  42.229  69.639  1.00  0.00    -0.077 SA
HETATM   18  C10 UNL     1      57.492  44.037  69.176  1.00  0.00     0.108 C 
HETATM   19  C11 UNL     1      56.898  42.409  71.346  1.00  0.00     0.108 C 
HETATM   20 CL1  UNL     1      59.513  42.401  69.224  1.00  0.00    -0.045 Cl
BRANCH  17  21
HETATM   21  O2  UNL     1      58.105  40.737  69.847  1.00  0.00    -0.342 OA
ATOM     22  H2  UNL     1      57.728  40.706  70.718  1.00  0.00     0.226 HD
ENDBRANCH  17  21
ENDBRANCH   5  17
TORSDOF 6
ENDMDL
MODEL 3
REMARK VINA RESULT: -6.433217192      1.736      2.383
REMARK  6 active torsions:
REMARK  status: ('A' for Active; 'I' for Inactive)
REMARK    1  A    between atoms: C2_2  and  C3_3 
REMARK    2  A    between atoms: C3_3  and  N1_4 
REMARK    3  A    between atoms: N1_4  and  C4_5 
REMARK       I    between atoms: N1_4  and  C6_7 
REMARK       I    between atoms: C6_7  and  N2_9 
REMARK    4  A    between atoms: N2_9  and  C7_11 
REMARK    5  A    between atoms: C9_15  and  S1_16 
REMARK    6  A    between atoms: S1_16  and  O2_19 
ROOT
HETATM    1  C7  UNL     1      56.233  40.838  66.249  1.00  0.00     0.096 A 
HETATM    2  C8  UNL     1      55.824  40.003  67.254  1.00  0.00     0.126 A 
HETATM    3  N3  UNL     1      56.268  40.225  68.458  1.00  0.00    -0.352 N 
ATOM      4  H3  UNL     1      55.970  39.611  69.215  1.00  0.00     0.166 HD
HETATM    5  C9  UNL     1      57.066  41.190  68.719  1.00  0.00     0.121 A 
HETATM    6  S2  UNL     1      57.257  41.899  67.179  1.00  0.00    -0.045 SA
ENDROOT
BRANCH   1   7
HETATM    7  N2  UNL     1      55.929  40.852  64.862  1.00  0.00    -0.302 N 
HETATM    8  C6  UNL     1      54.891  41.656  64.382  1.00  0.00     0.323 C 
HETATM    9  N1  UNL     1      54.582  41.675  63.009  1.00  0.00    -0.334 N 
HETATM   10  O1  UNL     1      54.230  42.362  65.168  1.00  0.00    -0.247 OA
ATOM     11  H2  UNL     1      56.468  40.276  64.215  1.00  0.00     0.171 HD
BRANCH   9  12
HETATM   12  C3  UNL     1      53.504  42.526  62.554  1.00  0.00     0.127 C 
BRANCH  12  13
HETATM   13  C2  UNL     1      53.578  42.893  61.108  1.00  0.00     0.015 C 
HETATM   14  C1  UNL     1      52.337  42.532  60.343  1.00  0.00     0.006 C 
ENDBRANCH  12  13
ENDBRANCH   9  12
BRANCH   9  15
HETATM   15  C4  UNL     1      55.328  40.868  62.077  1.00  0.00     0.123 C 
HETATM   16  C5  UNL     1      54.627  39.548  61.806  1.00  0.00     0.026 C 
ENDBRANCH   9  15
ENDBRANCH   1   7
BRANCH   5  17
HETATM   17  S1  UNL     1      57.991  41.914  70.268  1.00  0.00    -0.077 SA
HETATM   18  C10 UNL     1      57.502  43.667  69.840  1.00  0.00     0.108 C 
HETATM   19  C11 UNL     1      57.056  41.835  71.878  1.00  0.00     0.108 C 
HETATM   20 CL1  UNL     1      59.825  42.527  70.092  1.00  0.00    -0.045 Cl
BRANCH  17  21
HETATM   21  O2  UNL     1      58.775  40.559  70.495  1.00  0.00    -0.342 OA
ATOM     22  H2  UNL     1      58.287  40.374  71.289  1.00  0.00     0.226 HD
ENDBRANCH  17  21
ENDBRANCH   5  17
TORSDOF 6
ENDMDL
MODEL 4
REMARK VINA RESULT: -6.428330163      1.336      1.567
REMARK  6 active torsions:
REMARK  status: ('A' for Active; 'I' for Inactive)
REMARK    1  A    between atoms: C2_2  and  C3_3 
REMARK    2  A    between atoms: C3_3  and  N1_4 
REMARK    3  A    between atoms: N1_4  and  C4_5 
REMARK       I    between atoms: N1_4  and  C6_7 
REMARK       I    between atoms: C6_7  and  N2_9 
REMARK    4  A    between atoms: N2_9  and  C7_11 
REMARK    5  A    between atoms: C9_15  and  S1_16 
REMARK    6  A    between atoms: S1_16  and  O2_19 
ROOT
HETATM    1  C7  UNL     1      54.613  42.455  65.689  1.00  0.00     0.096 A 
HETATM    2  C8  UNL     1      54.271  41.687  66.771  1.00  0.00     0.126 A 
HETATM    3  N3  UNL     1      55.002  41.775  67.844  1.00  0.00    -0.352 N 
ATOM      4  H3  UNL     1      54.757  41.209  68.656  1.00  0.00     0.166 HD
HETATM    5  C9  UNL     1      56.017  42.550  67.912  1.00  0.00     0.121 A 
HETATM    6  S2  UNL     1      56.009  43.256  66.358  1.00  0.00    -0.045 SA
ENDROOT
BRANCH   1   7
HETATM    7  N2  UNL     1      54.024  42.576  64.403  1.00  0.00    -0.302 N 
HETATM    8  C6  UNL     1      54.562  41.876  63.320  1.00  0.00     0.323 C 
HETATM    9  N1  UNL     1      53.985  41.992  62.041  1.00  0.00    -0.334 N 
HETATM   10  O1  UNL     1      55.559  41.144  63.477  1.00  0.00    -0.247 OA
ATOM     11  H2  UNL     1      53.209  43.174  64.270  1.00  0.00     0.171 HD
BRANCH   9  12
HETATM   12  C3  UNL     1      54.570  41.245  60.948  1.00  0.00     0.127 C 
BRANCH  12  13
HETATM   13  C2  UNL     1      54.226  39.791  60.942  1.00  0.00     0.015 C 
HETATM   14  C1  UNL     1      53.480  39.366  59.709  1.00  0.00     0.006 C 
ENDBRANCH  12  13
ENDBRANCH   9  12
BRANCH   9  15
HETATM   15  C4  UNL     1      52.834  42.831  61.827  1.00  0.00     0.123 C 
HETATM   16  C5  UNL     1      52.391  42.800  60.375  1.00  0.00     0.026 C 
ENDBRANCH   9  15
ENDBRANCH   1   7
BRANCH   5  17
HETATM   17  S1  UNL     1      57.386  43.020  69.211  1.00  0.00    -0.077 SA
HETATM   18  C10 UNL     1      57.054  41.489  70.232  1.00  0.00     0.108 C 
HETATM   19  C11 UNL     1      59.133  42.571  68.743  1.00  0.00     0.108 C 
HETATM   20 CL1  UNL     1      56.896  44.021  70.801  1.00  0.00    -0.045 Cl
BRANCH  17  21
HETATM   21  O2  UNL     1      57.470  44.501  68.661  1.00  0.00    -0.342 OA
ATOM     22  H2  UNL     1      57.012  44.841  69.421  1.00  0.00     0.226 HD
ENDBRANCH  17  21
ENDBRANCH   5  17
TORSDOF 6
ENDMDL
MODEL 5
REMARK VINA RESULT: -6.382784738      1.347      1.535
REMARK  6 active torsions:
REMARK  status: ('A' for Active; 'I' for Inactive)
REMARK    1  A    between atoms: C2_2  and  C3_3 
REMARK    2  A    between atoms: C3_3  and  N1_4 
REMARK    3  A    between atoms: N1_4  and  C4_5 
REMARK       I    between atoms: N1_4  and  C6_7 
REMARK       I    between atoms: C6_7  and  N2_9 
REMARK    4  A    between atoms: N2_9  and  C7_11 
REMARK    5  A    between atoms: C9_15  and  S1_16 
REMARK    6  A    between atoms: S1_16  and  O2_19 
ROOT
HETATM    1  C7  UNL     1      54.910  42.698  65.616  1.00  0.00     0.096 A 
HETATM    2  C8  UNL     1      55.842  43.536  66.166  1.00  0.00     0.126 A 
HETATM    3  N3  UNL     1      56.285  43.266  67.360  1.00  0.00    -0.352 N 
ATOM      4  H3  UNL     1      56.979  43.883  67.781  1.00  0.00     0.166 HD
HETATM    5  C9  UNL     1      55.874  42.252  68.022  1.00  0.00     0.121 A 
HETATM    6  S2  UNL     1      54.760  41.561  66.929  1.00  0.00    -0.045 SA
ENDROOT
BRANCH   1   7
HETATM    7  N2  UNL     1      54.250  42.727  64.359  1.00  0.00    -0.302 N 
HETATM    8  C6  UNL     1      54.739  41.962  63.296  1.00  0.00     0.323 C 
HETATM    9  N1  UNL     1      54.092  41.987  62.046  1.00  0.00    -0.334 N 
HETATM   10  O1  UNL     1      55.752  41.252  63.447  1.00  0.00    -0.247 OA
ATOM     11  H2  UNL     1      53.421  43.307  64.231  1.00  0.00     0.171 HD
BRANCH   9  12
HETATM   12  C3  UNL     1      54.627  41.174  60.974  1.00  0.00     0.127 C 
BRANCH  12  13
HETATM   13  C2  UNL     1      54.223  39.737  61.031  1.00  0.00     0.015 C 
HETATM   14  C1  UNL     1      53.494  39.279  59.800  1.00  0.00     0.006 C 
ENDBRANCH  12  13
ENDBRANCH   9  12
BRANCH   9  15
HETATM   15  C4  UNL     1      52.919  42.798  61.841  1.00  0.00     0.123 C 
HETATM   16  C5  UNL     1      52.448  42.731  60.398  1.00  0.00     0.026 C 
ENDBRANCH   9  15
ENDBRANCH   1   7
BRANCH   5  17
HETATM   17  S1  UNL     1      56.187  41.447  69.764  1.00  0.00    -0.077 SA
HETATM   18  C10 UNL     1      56.231  43.112  70.613  1.00  0.00     0.108 C 
HETATM   19  C11 UNL     1      54.673  40.814  70.646  1.00  0.00     0.108 C 
HETATM   20 CL1  UNL     1      58.007  41.224  70.406  1.00  0.00    -0.045 Cl
BRANCH  17  21
HETATM   21  O2  UNL     1      56.560  40.055  69.110  1.00  0.00    -0.342 OA
ATOM     22  H2  UNL     1      55.740  40.027  68.632  1.00  0.00     0.226 HD
ENDBRANCH  17  21
ENDBRANCH   5  17
TORSDOF 6
ENDMDL
