MODEL 1
REMARK VINA RESULT: -7.438241332      0.000      0.000
REMARK  6 active torsions:
REMARK  status: ('A' for Active; 'I' for Inactive)
REMARK    1  A    between atoms: C2_2  and  N1_3 
REMARK    2  A    between atoms: N1_3  and  C3_4 
REMARK    3  A    between atoms: N1_3  and  C7_14 
REMARK    4  A    between atoms: C3_4  and  C4_5 
REMARK    5  A    between atoms: C4_5  and  N2_7 
REMARK    6  A    between atoms: N2_7  and  N3_9 
ROOT
HETATM    1  N1  UNL     1      -3.589  12.775   7.519  1.00  0.00    -0.379 N 
ENDROOT
BRANCH   1   2
HETATM    2  C2  UNL     1      -3.565  13.557   6.261  1.00  0.00     0.118 C 
HETATM    3  C1  UNL     1      -3.102  12.784   5.087  1.00  0.00     0.026 C 
ENDBRANCH   1   2
BRANCH   1   4
HETATM    4  C3  UNL     1      -2.312  12.258   7.869  1.00  0.00     0.149 C 
BRANCH   4   5
HETATM    5  C4  UNL     1      -2.138  10.847   8.229  1.00  0.00     0.113 C 
HETATM    6  C5  UNL     1      -1.793   9.920   7.097  1.00  0.00     0.035 C 
BRANCH   5   7
HETATM    7  N2  UNL     1      -1.015  10.787   9.185  1.00  0.00    -0.328 N 
ATOM      8  H2  UNL     1      -0.855   9.930   9.715  1.00  0.00     0.180 HD
BRANCH   7   9
HETATM    9  N3  UNL     1      -0.172  11.872   9.379  1.00  0.00    -0.280 N 
HETATM   10  C6  UNL     1       0.910  12.098   8.733  1.00  0.00     0.215 C 
HETATM   11  N4  UNL     1       1.433  11.271   7.703  1.00  0.00    -0.065 NA
HETATM   12  N5  UNL     1       1.638  13.274   9.086  1.00  0.00    -0.065 NA
ATOM     13  H3  UNL     1      -0.437  12.546  10.097  1.00  0.00     0.189 HD
ENDBRANCH   7   9
ENDBRANCH   5   7
ENDBRANCH   4   5
ENDBRANCH   1   4
BRANCH   1  14
HETATM   14  C7  UNL     1      -4.819  12.711   8.162  1.00  0.00     0.036 A 
HETATM   15  C8  UNL     1      -5.974  12.387   7.496  1.00  0.00     0.030 A 
HETATM   16  C9  UNL     1      -7.215  12.354   8.085  1.00  0.00     0.002 A 
HETATM   17  C10 UNL     1      -7.330  12.658   9.414  1.00  0.00     0.001 A 
HETATM   18  C11 UNL     1      -6.206  12.989  10.123  1.00  0.00     0.009 A 
HETATM   19  C12 UNL     1      -4.986  13.009   9.499  1.00  0.00    -0.035 A 
HETATM   20  C13 UNL     1      -3.803  13.363  10.310  1.00  0.00     0.050 C 
ENDBRANCH   1  14
TORSDOF 6
ENDMDL
MODEL 2
REMARK VINA RESULT: -7.303962208      2.015      5.934
REMARK  6 active torsions:
REMARK  status: ('A' for Active; 'I' for Inactive)
REMARK    1  A    between atoms: C2_2  and  N1_3 
REMARK    2  A    between atoms: N1_3  and  C3_4 
REMARK    3  A    between atoms: N1_3  and  C7_14 
REMARK    4  A    between atoms: C3_4  and  C4_5 
REMARK    5  A    between atoms: C4_5  and  N2_7 
REMARK    6  A    between atoms: N2_7  and  N3_9 
ROOT
HETATM    1  N1  UNL     1      -2.210  12.627   7.096  1.00  0.00    -0.379 N 
ENDROOT
BRANCH   1   2
HETATM    2  C2  UNL     1      -2.347  12.905   5.647  1.00  0.00     0.118 C 
HETATM    3  C1  UNL     1      -3.550  13.695   5.304  1.00  0.00     0.026 C 
ENDBRANCH   1   2
BRANCH   1   4
HETATM    4  C3  UNL     1      -3.399  12.905   7.824  1.00  0.00     0.149 C 
BRANCH   4   5
HETATM    5  C4  UNL     1      -3.595  12.387   9.182  1.00  0.00     0.113 C 
HETATM    6  C5  UNL     1      -3.981  13.402  10.221  1.00  0.00     0.035 C 
BRANCH   5   7
HETATM    7  N2  UNL     1      -4.700  11.411   9.110  1.00  0.00    -0.328 N 
ATOM      8  H2  UNL     1      -4.519  10.477   8.740  1.00  0.00     0.180 HD
BRANCH   7   9
HETATM    9  N3  UNL     1      -5.981  11.736   9.533  1.00  0.00    -0.280 N 
HETATM   10  C6  UNL     1      -6.916  12.197   8.789  1.00  0.00     0.215 C 
HETATM   11  N4  UNL     1      -6.798  12.455   7.397  1.00  0.00    -0.065 NA
HETATM   12  N5  UNL     1      -8.167  12.471   9.420  1.00  0.00    -0.065 NA
ATOM     13  H3  UNL     1      -6.196  11.597  10.520  1.00  0.00     0.189 HD
ENDBRANCH   7   9
ENDBRANCH   5   7
ENDBRANCH   4   5
ENDBRANCH   1   4
BRANCH   1  14
HETATM   14  C7  UNL     1      -0.984  12.109   7.495  1.00  0.00     0.036 A 
HETATM   15  C8  UNL     1       0.062  12.915   7.868  1.00  0.00     0.030 A 
HETATM   16  C9  UNL     1       1.302  12.446   8.228  1.00  0.00     0.002 A 
HETATM   17  C10 UNL     1       1.531  11.098   8.221  1.00  0.00     0.001 A 
HETATM   18  C11 UNL     1       0.520  10.250   7.855  1.00  0.00     0.009 A 
HETATM   19  C12 UNL     1      -0.704  10.758   7.504  1.00  0.00    -0.035 A 
HETATM   20  C13 UNL     1      -1.765   9.802   7.126  1.00  0.00     0.050 C 
ENDBRANCH   1  14
TORSDOF 6
ENDMDL
MODEL 3
REMARK VINA RESULT: -7.207043780      2.257      5.501
REMARK  6 active torsions:
REMARK  status: ('A' for Active; 'I' for Inactive)
REMARK    1  A    between atoms: C2_2  and  N1_3 
REMARK    2  A    between atoms: N1_3  and  C3_4 
REMARK    3  A    between atoms: N1_3  and  C7_14 
REMARK    4  A    between atoms: C3_4  and  C4_5 
REMARK    5  A    between atoms: C4_5  and  N2_7 
REMARK    6  A    between atoms: N2_7  and  N3_9 
ROOT
HETATM    1  N1  UNL     1      -0.857  12.184   5.742  1.00  0.00    -0.379 N 
ENDROOT
BRANCH   1   2
HETATM    2  C2  UNL     1       0.232  12.139   4.738  1.00  0.00     0.118 C 
HETATM    3  C1  UNL     1      -0.140  12.724   3.430  1.00  0.00     0.026 C 
ENDBRANCH   1   2
BRANCH   1   4
HETATM    4  C3  UNL     1      -2.130  12.438   5.162  1.00  0.00     0.149 C 
BRANCH   4   5
HETATM    5  C4  UNL     1      -2.903  13.631   5.525  1.00  0.00     0.113 C 
HETATM    6  C5  UNL     1      -3.566  14.353   4.385  1.00  0.00     0.035 C 
BRANCH   5   7
HETATM    7  N2  UNL     1      -3.980  13.181   6.428  1.00  0.00    -0.328 N 
ATOM      8  H2  UNL     1      -4.870  12.876   6.032  1.00  0.00     0.180 HD
BRANCH   7   9
HETATM    9  N3  UNL     1      -3.808  13.164   7.805  1.00  0.00    -0.280 N 
HETATM   10  C6  UNL     1      -4.751  13.147   8.672  1.00  0.00     0.215 C 
HETATM   11  N4  UNL     1      -6.138  13.143   8.369  1.00  0.00    -0.065 NA
HETATM   12  N5  UNL     1      -4.362  13.134  10.046  1.00  0.00    -0.065 NA
ATOM     13  H3  UNL     1      -2.851  13.166   8.156  1.00  0.00     0.189 HD
ENDBRANCH   7   9
ENDBRANCH   5   7
ENDBRANCH   4   5
ENDBRANCH   1   4
BRANCH   1  14
HETATM   14  C7  UNL     1      -0.474  11.933   7.054  1.00  0.00     0.036 A 
HETATM   15  C8  UNL     1       0.368  12.771   7.741  1.00  0.00     0.030 A 
HETATM   16  C9  UNL     1       0.805  12.538   9.023  1.00  0.00     0.002 A 
HETATM   17  C10 UNL     1       0.388  11.408   9.672  1.00  0.00     0.001 A 
HETATM   18  C11 UNL     1      -0.453  10.539   9.030  1.00  0.00     0.009 A 
HETATM   19  C12 UNL     1      -0.867  10.809   7.750  1.00  0.00    -0.035 A 
HETATM   20  C13 UNL     1      -1.780   9.845   7.104  1.00  0.00     0.050 C 
ENDBRANCH   1  14
TORSDOF 6
ENDMDL
MODEL 4
REMARK VINA RESULT: -6.938156316      2.075      5.678
REMARK  6 active torsions:
REMARK  status: ('A' for Active; 'I' for Inactive)
REMARK    1  A    between atoms: C2_2  and  N1_3 
REMARK    2  A    between atoms: N1_3  and  C3_4 
REMARK    3  A    between atoms: N1_3  and  C7_14 
REMARK    4  A    between atoms: C3_4  and  C4_5 
REMARK    5  A    between atoms: C4_5  and  N2_7 
REMARK    6  A    between atoms: N2_7  and  N3_9 
ROOT
HETATM    1  N1  UNL     1      -2.477  12.632   7.221  1.00  0.00    -0.379 N 
ENDROOT
BRANCH   1   2
HETATM    2  C2  UNL     1      -2.542  13.174   5.843  1.00  0.00     0.118 C 
HETATM    3  C1  UNL     1      -3.894  13.115   5.243  1.00  0.00     0.026 C 
ENDBRANCH   1   2
BRANCH   1   4
HETATM    4  C3  UNL     1      -3.432  13.226   8.091  1.00  0.00     0.149 C 
BRANCH   4   5
HETATM    5  C4  UNL     1      -3.723  12.645   9.406  1.00  0.00     0.113 C 
HETATM    6  C5  UNL     1      -4.330  13.579  10.415  1.00  0.00     0.035 C 
BRANCH   5   7
HETATM    7  N2  UNL     1      -4.703  11.562   9.185  1.00  0.00    -0.328 N 
ATOM      8  H2  UNL     1      -4.391  10.683   8.772  1.00  0.00     0.180 HD
BRANCH   7   9
HETATM    9  N3  UNL     1      -6.039  11.716   9.526  1.00  0.00    -0.280 N 
HETATM   10  C6  UNL     1      -6.961  12.144   8.748  1.00  0.00     0.215 C 
HETATM   11  N4  UNL     1      -6.771  12.537   7.396  1.00  0.00    -0.065 NA
HETATM   12  N5  UNL     1      -8.277  12.230   9.294  1.00  0.00    -0.065 NA
ATOM     13  H3  UNL     1      -6.309  11.467  10.478  1.00  0.00     0.189 HD
ENDBRANCH   7   9
ENDBRANCH   5   7
ENDBRANCH   4   5
ENDBRANCH   1   4
BRANCH   1  14
HETATM   14  C7  UNL     1      -1.546  11.621   7.425  1.00  0.00     0.036 A 
HETATM   15  C8  UNL     1      -1.883  10.293   7.349  1.00  0.00     0.030 A 
HETATM   16  C9  UNL     1      -1.004   9.264   7.584  1.00  0.00     0.002 A 
HETATM   17  C10 UNL     1       0.290   9.558   7.917  1.00  0.00     0.001 A 
HETATM   18  C11 UNL     1       0.677  10.868   8.007  1.00  0.00     0.009 A 
HETATM   19  C12 UNL     1      -0.231  11.866   7.763  1.00  0.00    -0.035 A 
HETATM   20  C13 UNL     1       0.237  13.263   7.863  1.00  0.00     0.050 C 
ENDBRANCH   1  14
TORSDOF 6
ENDMDL
MODEL 5
REMARK VINA RESULT: -6.817383138      2.744      6.309
REMARK  6 active torsions:
REMARK  status: ('A' for Active; 'I' for Inactive)
REMARK    1  A    between atoms: C2_2  and  N1_3 
REMARK    2  A    between atoms: N1_3  and  C3_4 
REMARK    3  A    between atoms: N1_3  and  C7_14 
REMARK    4  A    between atoms: C3_4  and  C4_5 
REMARK    5  A    between atoms: C4_5  and  N2_7 
REMARK    6  A    between atoms: N2_7  and  N3_9 
ROOT
HETATM    1  N1  UNL     1      -2.380  12.590   7.848  1.00  0.00    -0.379 N 
ENDROOT
BRANCH   1   2
HETATM    2  C2  UNL     1      -3.093  12.661   9.145  1.00  0.00     0.118 C 
HETATM    3  C1  UNL     1      -4.361  11.898   9.171  1.00  0.00     0.026 C 
ENDBRANCH   1   2
BRANCH   1   4
HETATM    4  C3  UNL     1      -3.150  13.103   6.769  1.00  0.00     0.149 C 
BRANCH   4   5
HETATM    5  C4  UNL     1      -2.577  13.236   5.425  1.00  0.00     0.113 C 
HETATM    6  C5  UNL     1      -2.781  12.063   4.508  1.00  0.00     0.035 C 
BRANCH   5   7
HETATM    7  N2  UNL     1      -3.242  14.392   4.792  1.00  0.00    -0.328 N 
ATOM      8  H2  UNL     1      -3.078  15.328   5.164  1.00  0.00     0.180 HD
BRANCH   7   9
HETATM    9  N3  UNL     1      -4.086  14.233   3.702  1.00  0.00    -0.280 N 
HETATM   10  C6  UNL     1      -4.276  15.097   2.776  1.00  0.00     0.215 C 
HETATM   11  N4  UNL     1      -3.653  16.372   2.709  1.00  0.00    -0.065 NA
HETATM   12  N5  UNL     1      -5.190  14.740   1.739  1.00  0.00    -0.065 NA
ATOM     13  H3  UNL     1      -4.598  13.354   3.632  1.00  0.00     0.189 HD
ENDBRANCH   7   9
ENDBRANCH   5   7
ENDBRANCH   4   5
ENDBRANCH   1   4
BRANCH   1  14
HETATM   14  C7  UNL     1      -1.087  12.086   7.901  1.00  0.00     0.036 A 
HETATM   15  C8  UNL     1      -0.006  12.880   8.191  1.00  0.00     0.030 A 
HETATM   16  C9  UNL     1       1.293  12.432   8.212  1.00  0.00     0.002 A 
HETATM   17  C10 UNL     1       1.547  11.117   7.930  1.00  0.00     0.001 A 
HETATM   18  C11 UNL     1       0.502  10.283   7.633  1.00  0.00     0.009 A 
HETATM   19  C12 UNL     1      -0.780  10.770   7.623  1.00  0.00    -0.035 A 
HETATM   20  C13 UNL     1      -1.872   9.828   7.306  1.00  0.00     0.050 C 
ENDBRANCH   1  14
TORSDOF 6
ENDMDL
