MODEL 1
REMARK VINA RESULT: -7.574698088      0.000      0.000
REMARK  5 active torsions:
REMARK  status: ('A' for Active; 'I' for Inactive)
REMARK    1  A    between atoms: C2_2  and  C4_4 
REMARK    2  A    between atoms: C4_4  and  O1_5 
REMARK    3  A    between atoms: C4_4  and  C12_17 
REMARK    4  A    between atoms: O1_5  and  C5_6 
REMARK    5  A    between atoms: C8_9  and  N1_10 
ROOT
HETATM    1  C5  UNL     1      -2.036  12.965   7.910  1.00  0.00     0.070 A 
HETATM    2  C6  UNL     1      -2.940  13.174   6.899  1.00  0.00     0.039 A 
HETATM    3  C7  UNL     1      -4.288  13.018   7.060  1.00  0.00     0.032 A 
HETATM    4  C8  UNL     1      -4.852  12.629   8.285  1.00  0.00     0.034 A 
HETATM    5  C10 UNL     1      -3.935  12.414   9.328  1.00  0.00     0.032 A 
HETATM    6  C11 UNL     1      -2.609  12.580   9.130  1.00  0.00     0.039 A 
ENDROOT
BRANCH   1   7
HETATM    7  O1  UNL     1      -0.667  13.087   7.826  1.00  0.00    -0.337 OA
BRANCH   7   8
HETATM    8  C4  UNL     1       0.227  12.141   8.287  1.00  0.00     0.221 C 
BRANCH   8   9
HETATM    9  C2  UNL     1       0.487  10.984   7.328  1.00  0.00     0.016 C 
HETATM   10  C1  UNL     1       0.372  11.503   5.925  1.00  0.00     0.012 C 
HETATM   11  C3  UNL     1      -0.560   9.905   7.523  1.00  0.00     0.012 C 
ENDBRANCH   8   9
BRANCH   8  12
HETATM   12  C12 UNL     1       1.576  12.811   8.520  1.00  0.00     0.261 C 
HETATM   13  N4  UNL     1       1.600  14.257   8.448  1.00  0.00    -0.060 NA
HETATM   14  O2  UNL     1       2.583  12.152   8.754  1.00  0.00    -0.274 OA
ENDBRANCH   8  12
ENDBRANCH   7   8
ENDBRANCH   1   7
BRANCH   4  15
HETATM   15  N1  UNL     1      -6.201  12.485   8.424  1.00  0.00    -0.333 N 
HETATM   16  C9  UNL     1      -7.063  12.420   9.264  1.00  0.00     0.201 C 
HETATM   17  N2  UNL     1      -6.793  12.496  10.679  1.00  0.00    -0.066 NA
HETATM   18  N3  UNL     1      -8.451  12.285   8.847  1.00  0.00    -0.066 NA
ATOM     19  H1  UNL     1      -6.627  12.405   7.500  1.00  0.00     0.168 HD
ENDBRANCH   4  15
TORSDOF 5
ENDMDL
MODEL 2
REMARK VINA RESULT: -7.531990515      0.100      1.112
REMARK  5 active torsions:
REMARK  status: ('A' for Active; 'I' for Inactive)
REMARK    1  A    between atoms: C2_2  and  C4_4 
REMARK    2  A    between atoms: C4_4  and  O1_5 
REMARK    3  A    between atoms: C4_4  and  C12_17 
REMARK    4  A    between atoms: O1_5  and  C5_6 
REMARK    5  A    between atoms: C8_9  and  N1_10 
ROOT
HETATM    1  C5  UNL     1      -2.036  12.926   8.089  1.00  0.00     0.070 A 
HETATM    2  C6  UNL     1      -2.672  12.643   9.271  1.00  0.00     0.039 A 
HETATM    3  C7  UNL     1      -4.030  12.527   9.377  1.00  0.00     0.032 A 
HETATM    4  C8  UNL     1      -4.881  12.690   8.273  1.00  0.00     0.034 A 
HETATM    5  C10 UNL     1      -4.238  12.979   7.057  1.00  0.00     0.032 A 
HETATM    6  C11 UNL     1      -2.894  13.084   6.991  1.00  0.00     0.039 A 
ENDROOT
BRANCH   1   7
HETATM    7  O1  UNL     1      -0.679  13.072   7.901  1.00  0.00    -0.337 OA
BRANCH   7   8
HETATM    8  C4  UNL     1       0.266  12.154   8.317  1.00  0.00     0.221 C 
BRANCH   8   9
HETATM    9  C2  UNL     1       0.516  11.008   7.343  1.00  0.00     0.016 C 
HETATM   10  C1  UNL     1       0.387  11.541   5.947  1.00  0.00     0.012 C 
HETATM   11  C3  UNL     1      -0.528   9.926   7.537  1.00  0.00     0.012 C 
ENDBRANCH   8   9
BRANCH   8  12
HETATM   12  C12 UNL     1       1.602  12.868   8.488  1.00  0.00     0.261 C 
HETATM   13  N4  UNL     1       1.580  14.312   8.392  1.00  0.00    -0.060 NA
HETATM   14  O2  UNL     1       2.636  12.242   8.693  1.00  0.00    -0.274 OA
ENDBRANCH   8  12
ENDBRANCH   7   8
ENDBRANCH   1   7
BRANCH   4  15
HETATM   15  N1  UNL     1      -6.233  12.564   8.402  1.00  0.00    -0.333 N 
HETATM   16  C9  UNL     1      -7.097  12.468   9.235  1.00  0.00     0.201 C 
HETATM   17  N2  UNL     1      -6.829  12.459  10.653  1.00  0.00    -0.066 NA
HETATM   18  N3  UNL     1      -8.487  12.383   8.810  1.00  0.00    -0.066 NA
ATOM     19  H1  UNL     1      -6.658  12.543   7.474  1.00  0.00     0.168 HD
ENDBRANCH   4  15
TORSDOF 5
ENDMDL
MODEL 3
REMARK VINA RESULT: -6.621714051      1.238      1.656
REMARK  5 active torsions:
REMARK  status: ('A' for Active; 'I' for Inactive)
REMARK    1  A    between atoms: C2_2  and  C4_4 
REMARK    2  A    between atoms: C4_4  and  O1_5 
REMARK    3  A    between atoms: C4_4  and  C12_17 
REMARK    4  A    between atoms: O1_5  and  C5_6 
REMARK    5  A    between atoms: C8_9  and  N1_10 
ROOT
HETATM    1  C5  UNL     1      -2.468  12.510   9.233  1.00  0.00     0.070 A 
HETATM    2  C6  UNL     1      -3.146  11.441   8.704  1.00  0.00     0.039 A 
HETATM    3  C7  UNL     1      -4.503  11.301   8.791  1.00  0.00     0.032 A 
HETATM    4  C8  UNL     1      -5.310  12.252   9.433  1.00  0.00     0.034 A 
HETATM    5  C10 UNL     1      -4.626  13.352   9.978  1.00  0.00     0.032 A 
HETATM    6  C11 UNL     1      -3.284  13.456   9.871  1.00  0.00     0.039 A 
ENDROOT
BRANCH   1   7
HETATM    7  O1  UNL     1      -1.107  12.718   9.200  1.00  0.00    -0.337 OA
BRANCH   7   8
HETATM    8  C4  UNL     1      -0.180  11.744   8.884  1.00  0.00     0.221 C 
BRANCH   8   9
HETATM    9  C2  UNL     1      -0.439  11.017   7.569  1.00  0.00     0.016 C 
HETATM   10  C1  UNL     1      -0.190   9.553   7.784  1.00  0.00     0.012 C 
HETATM   11  C3  UNL     1       0.521  11.512   6.506  1.00  0.00     0.012 C 
ENDBRANCH   8   9
BRANCH   8  12
HETATM   12  C12 UNL     1       1.191  12.396   8.747  1.00  0.00     0.261 C 
HETATM   13  N4  UNL     1       1.206  13.824   8.506  1.00  0.00    -0.060 NA
HETATM   14  O2  UNL     1       2.221  11.737   8.836  1.00  0.00    -0.274 OA
ENDBRANCH   8  12
ENDBRANCH   7   8
ENDBRANCH   1   7
BRANCH   4  15
HETATM   15  N1  UNL     1      -6.663  12.094   9.503  1.00  0.00    -0.333 N 
HETATM   16  C9  UNL     1      -7.682  12.426   8.954  1.00  0.00     0.201 C 
HETATM   17  N2  UNL     1      -7.711  13.295   7.801  1.00  0.00    -0.066 NA
HETATM   18  N3  UNL     1      -8.954  11.915   9.446  1.00  0.00    -0.066 NA
ATOM     19  H1  UNL     1      -6.890  11.486  10.290  1.00  0.00     0.168 HD
ENDBRANCH   4  15
TORSDOF 5
ENDMDL
MODEL 4
REMARK VINA RESULT: -6.508481519      3.542      4.610
REMARK  5 active torsions:
REMARK  status: ('A' for Active; 'I' for Inactive)
REMARK    1  A    between atoms: C2_2  and  C4_4 
REMARK    2  A    between atoms: C4_4  and  O1_5 
REMARK    3  A    between atoms: C4_4  and  C12_17 
REMARK    4  A    between atoms: O1_5  and  C5_6 
REMARK    5  A    between atoms: C8_9  and  N1_10 
ROOT
HETATM    1  C5  UNL     1      -1.574  12.581   5.730  1.00  0.00     0.070 A 
HETATM    2  C6  UNL     1      -2.721  13.293   5.977  1.00  0.00     0.039 A 
HETATM    3  C7  UNL     1      -3.622  13.617   5.001  1.00  0.00     0.032 A 
HETATM    4  C8  UNL     1      -3.439  13.240   3.662  1.00  0.00     0.034 A 
HETATM    5  C10 UNL     1      -2.268  12.509   3.399  1.00  0.00     0.032 A 
HETATM    6  C11 UNL     1      -1.402  12.206   4.390  1.00  0.00     0.039 A 
ENDROOT
BRANCH   1   7
HETATM    7  O1  UNL     1      -0.613  12.227   6.650  1.00  0.00    -0.337 OA
BRANCH   7   8
HETATM    8  C4  UNL     1      -0.821  12.188   8.015  1.00  0.00     0.221 C 
BRANCH   8   9
HETATM    9  C2  UNL     1      -1.381  10.870   8.539  1.00  0.00     0.016 C 
HETATM   10  C1  UNL     1      -1.103   9.803   7.521  1.00  0.00     0.012 C 
HETATM   11  C3  UNL     1      -2.883  10.980   8.715  1.00  0.00     0.012 C 
ENDBRANCH   8   9
BRANCH   8  12
HETATM   12  C12 UNL     1       0.513  12.395   8.722  1.00  0.00     0.261 C 
HETATM   13  N4  UNL     1       1.197  13.643   8.459  1.00  0.00    -0.060 NA
HETATM   14  O2  UNL     1       0.976  11.541   9.471  1.00  0.00    -0.274 OA
ENDBRANCH   8  12
ENDBRANCH   7   8
ENDBRANCH   1   7
BRANCH   4  15
HETATM   15  N1  UNL     1      -4.355  13.569   2.707  1.00  0.00    -0.333 N 
HETATM   16  C9  UNL     1      -4.792  14.517   2.105  1.00  0.00     0.201 C 
HETATM   17  N2  UNL     1      -4.329  15.868   2.315  1.00  0.00    -0.066 NA
HETATM   18  N3  UNL     1      -5.819  14.303   1.095  1.00  0.00    -0.066 NA
ATOM     19  H1  UNL     1      -4.834  12.724   2.395  1.00  0.00     0.168 HD
ENDBRANCH   4  15
TORSDOF 5
ENDMDL
MODEL 5
REMARK VINA RESULT: -6.507520902      3.550      4.553
REMARK  5 active torsions:
REMARK  status: ('A' for Active; 'I' for Inactive)
REMARK    1  A    between atoms: C2_2  and  C4_4 
REMARK    2  A    between atoms: C4_4  and  O1_5 
REMARK    3  A    between atoms: C4_4  and  C12_17 
REMARK    4  A    between atoms: O1_5  and  C5_6 
REMARK    5  A    between atoms: C8_9  and  N1_10 
ROOT
HETATM    1  C5  UNL     1      -1.282  12.729   5.659  1.00  0.00     0.070 A 
HETATM    2  C6  UNL     1      -1.002  12.956   4.335  1.00  0.00     0.039 A 
HETATM    3  C7  UNL     1      -1.856  13.615   3.494  1.00  0.00     0.032 A 
HETATM    4  C8  UNL     1      -3.093  14.114   3.930  1.00  0.00     0.034 A 
HETATM    5  C10 UNL     1      -3.389  13.887   5.285  1.00  0.00     0.032 A 
HETATM    6  C11 UNL     1      -2.519  13.234   6.085  1.00  0.00     0.039 A 
ENDROOT
BRANCH   1   7
HETATM    7  O1  UNL     1      -0.486  12.064   6.564  1.00  0.00    -0.337 OA
BRANCH   7   8
HETATM    8  C4  UNL     1      -0.666  12.105   7.934  1.00  0.00     0.221 C 
BRANCH   8   9
HETATM    9  C2  UNL     1      -1.218  10.821   8.544  1.00  0.00     0.016 C 
HETATM   10  C1  UNL     1      -1.004   9.705   7.565  1.00  0.00     0.012 C 
HETATM   11  C3  UNL     1      -2.708  10.962   8.786  1.00  0.00     0.012 C 
ENDBRANCH   8   9
BRANCH   8  12
HETATM   12  C12 UNL     1       0.683  12.348   8.600  1.00  0.00     0.261 C 
HETATM   13  N4  UNL     1       1.217  13.690   8.507  1.00  0.00    -0.060 NA
HETATM   14  O2  UNL     1       1.278  11.446   9.180  1.00  0.00    -0.274 OA
ENDBRANCH   8  12
ENDBRANCH   7   8
ENDBRANCH   1   7
BRANCH   4  15
HETATM   15  N1  UNL     1      -3.925  14.774   3.074  1.00  0.00    -0.333 N 
HETATM   16  C9  UNL     1      -4.704  14.579   2.177  1.00  0.00     0.201 C 
HETATM   17  N2  UNL     1      -5.010  13.263   1.668  1.00  0.00    -0.066 NA
HETATM   18  N3  UNL     1      -5.400  15.711   1.582  1.00  0.00    -0.066 NA
ATOM     19  H1  UNL     1      -3.870  15.776   3.258  1.00  0.00     0.168 HD
ENDBRANCH   4  15
TORSDOF 5
ENDMDL
