MODEL 1
REMARK VINA RESULT: -7.025622546      0.000      0.000
REMARK  8 active torsions:
REMARK  status: ('A' for Active; 'I' for Inactive)
REMARK    1  A    between atoms: C2_2  and  C3_3 
REMARK    2  A    between atoms: C3_3  and  C4_4 
REMARK    3  A    between atoms: C4_4  and  O1_6 
REMARK    4  A    between atoms: C4_4  and  C6_8 
REMARK    5  A    between atoms: C6_8  and  O2_9 
REMARK    6  A    between atoms: C6_8  and  C7_11 
REMARK    7  A    between atoms: C7_11  and  O3_12 
REMARK    8  A    between atoms: C7_11  and  C8_14 
ROOT
HETATM    1  C7  UNL     1      -2.460  12.611   7.977  1.00  0.00     0.184 C 
ENDROOT
BRANCH   1   2
HETATM    2  C6  UNL     1      -1.703  11.435   8.504  1.00  0.00     0.185 C 
BRANCH   2   3
HETATM    3  C4  UNL     1      -1.285  10.430   7.437  1.00  0.00     0.083 C 
HETATM    4  C5  UNL     1       0.162  10.112   7.720  1.00  0.00     0.049 C 
BRANCH   3   5
HETATM    5  C3  UNL     1      -1.443  10.973   6.059  1.00  0.00     0.040 C 
BRANCH   5   6
HETATM    6  C2  UNL     1      -0.344  11.789   5.500  1.00  0.00    -0.002 C 
HETATM    7  C1  UNL     1      -0.635  12.835   4.508  1.00  0.00     0.005 C 
ENDBRANCH   5   6
ENDBRANCH   3   5
BRANCH   3   8
HETATM    8  O1  UNL     1      -2.016   9.245   7.576  1.00  0.00    -0.388 OA
ATOM      9  H1  UNL     1      -1.501   8.593   8.038  1.00  0.00     0.210 HD
ENDBRANCH   3   8
ENDBRANCH   2   3
BRANCH   2  10
HETATM   10  O2  UNL     1      -0.681  11.734   9.386  1.00  0.00    -0.390 OA
ATOM     11  H2  UNL     1      -0.860  12.508   9.906  1.00  0.00     0.210 HD
ENDBRANCH   2  10
ENDBRANCH   1   2
BRANCH   1  12
HETATM   12  O3  UNL     1      -1.761  13.812   8.034  1.00  0.00    -0.388 OA
ATOM     13  H3  UNL     1      -1.449  14.122   7.192  1.00  0.00     0.210 HD
ENDBRANCH   1  12
BRANCH   1  14
HETATM   14  C8  UNL     1      -3.771  12.716   8.673  1.00  0.00    -0.011 A 
HETATM   15  C9  UNL     1      -4.893  12.494   8.004  1.00  0.00     0.019 A 
HETATM   16  C10 UNL     1      -6.186  12.583   8.631  1.00  0.00    -0.046 A 
HETATM   17  C11 UNL     1      -7.464  12.335   7.895  1.00  0.00     0.049 C 
HETATM   18  C12 UNL     1      -6.241  12.900   9.925  1.00  0.00     0.094 A 
HETATM   19  N1  UNL     1      -5.038  13.140  10.644  1.00  0.00    -0.374 N 
HETATM   20  C13 UNL     1      -3.862  13.062  10.087  1.00  0.00     0.097 A 
ATOM     21  H1  UNL     1      -5.097  13.382  11.633  1.00  0.00     0.164 HD
ENDBRANCH   1  14
TORSDOF 8
ENDMDL
MODEL 2
REMARK VINA RESULT: -6.877704151      1.358      1.967
REMARK  8 active torsions:
REMARK  status: ('A' for Active; 'I' for Inactive)
REMARK    1  A    between atoms: C2_2  and  C3_3 
REMARK    2  A    between atoms: C3_3  and  C4_4 
REMARK    3  A    between atoms: C4_4  and  O1_6 
REMARK    4  A    between atoms: C4_4  and  C6_8 
REMARK    5  A    between atoms: C6_8  and  O2_9 
REMARK    6  A    between atoms: C6_8  and  C7_11 
REMARK    7  A    between atoms: C7_11  and  O3_12 
REMARK    8  A    between atoms: C7_11  and  C8_14 
ROOT
HETATM    1  C7  UNL     1      -3.345  12.858   7.006  1.00  0.00     0.184 C 
ENDROOT
BRANCH   1   2
HETATM    2  C6  UNL     1      -1.993  12.429   7.477  1.00  0.00     0.185 C 
BRANCH   2   3
HETATM    3  C4  UNL     1      -1.311  11.407   6.574  1.00  0.00     0.083 C 
HETATM    4  C5  UNL     1      -1.621  10.059   7.176  1.00  0.00     0.049 C 
BRANCH   3   5
HETATM    5  C3  UNL     1       0.161  11.621   6.494  1.00  0.00     0.040 C 
BRANCH   5   6
HETATM    6  C2  UNL     1       1.016  10.977   7.515  1.00  0.00    -0.002 C 
HETATM    7  C1  UNL     1       1.559  11.772   8.628  1.00  0.00     0.005 C 
ENDBRANCH   5   6
ENDBRANCH   3   5
BRANCH   3   8
HETATM    8  O1  UNL     1      -1.874  11.441   5.293  1.00  0.00    -0.388 OA
ATOM      9  H1  UNL     1      -2.764  11.108   5.317  1.00  0.00     0.210 HD
ENDBRANCH   3   8
ENDBRANCH   2   3
BRANCH   2  10
HETATM   10  O2  UNL     1      -1.146  13.452   7.861  1.00  0.00    -0.390 OA
ATOM     11  H2  UNL     1      -1.514  14.312   7.700  1.00  0.00     0.210 HD
ENDBRANCH   2  10
ENDBRANCH   1   2
BRANCH   1  12
HETATM   12  O3  UNL     1      -3.359  14.089   6.358  1.00  0.00    -0.388 OA
ATOM     13  H3  UNL     1      -3.784  14.783   6.849  1.00  0.00     0.210 HD
ENDBRANCH   1  12
BRANCH   1  14
HETATM   14  C8  UNL     1      -4.302  12.838   8.146  1.00  0.00    -0.011 A 
HETATM   15  C9  UNL     1      -5.598  12.685   7.915  1.00  0.00     0.019 A 
HETATM   16  C10 UNL     1      -6.565  12.658   8.982  1.00  0.00    -0.046 A 
HETATM   17  C11 UNL     1      -8.032  12.487   8.743  1.00  0.00     0.049 C 
HETATM   18  C12 UNL     1      -6.129  12.791  10.234  1.00  0.00     0.094 A 
HETATM   19  N1  UNL     1      -4.738  12.956  10.483  1.00  0.00    -0.374 N 
HETATM   20  C13 UNL     1      -3.854  12.982   9.526  1.00  0.00     0.097 A 
ATOM     21  H1  UNL     1      -4.421  13.057  11.447  1.00  0.00     0.164 HD
ENDBRANCH   1  14
TORSDOF 8
ENDMDL
MODEL 3
REMARK VINA RESULT: -6.731065264      1.154      2.043
REMARK  8 active torsions:
REMARK  status: ('A' for Active; 'I' for Inactive)
REMARK    1  A    between atoms: C2_2  and  C3_3 
REMARK    2  A    between atoms: C3_3  and  C4_4 
REMARK    3  A    between atoms: C4_4  and  O1_6 
REMARK    4  A    between atoms: C4_4  and  C6_8 
REMARK    5  A    between atoms: C6_8  and  O2_9 
REMARK    6  A    between atoms: C6_8  and  C7_11 
REMARK    7  A    between atoms: C7_11  and  O3_12 
REMARK    8  A    between atoms: C7_11  and  C8_14 
ROOT
HETATM    1  C7  UNL     1      -2.897  12.814   8.222  1.00  0.00     0.184 C 
ENDROOT
BRANCH   1   2
HETATM    2  C6  UNL     1      -2.607  11.487   7.600  1.00  0.00     0.185 C 
BRANCH   2   3
HETATM    3  C4  UNL     1      -1.461  11.504   6.594  1.00  0.00     0.083 C 
HETATM    4  C5  UNL     1      -2.090  11.207   5.254  1.00  0.00     0.049 C 
BRANCH   3   5
HETATM    5  C3  UNL     1      -0.413  10.497   6.917  1.00  0.00     0.040 C 
BRANCH   5   6
HETATM    6  C2  UNL     1       0.905  10.983   7.375  1.00  0.00    -0.002 C 
HETATM    7  C1  UNL     1       1.058  11.528   8.733  1.00  0.00     0.005 C 
ENDBRANCH   5   6
ENDBRANCH   3   5
BRANCH   3   8
HETATM    8  O1  UNL     1      -0.897  12.783   6.524  1.00  0.00    -0.388 OA
ATOM      9  H1  UNL     1      -1.392  13.390   7.064  1.00  0.00     0.210 HD
ENDBRANCH   3   8
ENDBRANCH   2   3
BRANCH   2  10
HETATM   10  O2  UNL     1      -2.529  10.423   8.479  1.00  0.00    -0.390 OA
ATOM     11  H2  UNL     1      -3.066  10.547   9.252  1.00  0.00     0.210 HD
ENDBRANCH   2  10
ENDBRANCH   1   2
BRANCH   1  12
HETATM   12  O3  UNL     1      -1.949  13.228   9.151  1.00  0.00    -0.388 OA
ATOM     13  H3  UNL     1      -2.317  13.605   9.943  1.00  0.00     0.210 HD
ENDBRANCH   1  12
BRANCH   1  14
HETATM   14  C8  UNL     1      -4.263  12.803   8.814  1.00  0.00    -0.011 A 
HETATM   15  C9  UNL     1      -5.317  12.616   8.035  1.00  0.00     0.019 A 
HETATM   16  C10 UNL     1      -6.659  12.597   8.558  1.00  0.00    -0.046 A 
HETATM   17  C11 UNL     1      -7.863  12.387   7.696  1.00  0.00     0.049 C 
HETATM   18  C12 UNL     1      -6.829  12.773   9.868  1.00  0.00     0.094 A 
HETATM   19  N1  UNL     1      -5.698  12.974  10.706  1.00  0.00    -0.374 N 
HETATM   20  C13 UNL     1      -4.479  12.994  10.243  1.00  0.00     0.097 A 
ATOM     21  H1  UNL     1      -5.845  13.108  11.706  1.00  0.00     0.164 HD
ENDBRANCH   1  14
TORSDOF 8
ENDMDL
MODEL 4
REMARK VINA RESULT: -6.503321656      2.684      6.047
REMARK  8 active torsions:
REMARK  status: ('A' for Active; 'I' for Inactive)
REMARK    1  A    between atoms: C2_2  and  C3_3 
REMARK    2  A    between atoms: C3_3  and  C4_4 
REMARK    3  A    between atoms: C4_4  and  O1_6 
REMARK    4  A    between atoms: C4_4  and  C6_8 
REMARK    5  A    between atoms: C6_8  and  O2_9 
REMARK    6  A    between atoms: C6_8  and  C7_11 
REMARK    7  A    between atoms: C7_11  and  O3_12 
REMARK    8  A    between atoms: C7_11  and  C8_14 
ROOT
HETATM    1  C7  UNL     1      -1.652  12.104   6.461  1.00  0.00     0.184 C 
ENDROOT
BRANCH   1   2
HETATM    2  C6  UNL     1      -2.917  12.767   6.900  1.00  0.00     0.185 C 
BRANCH   2   3
HETATM    3  C4  UNL     1      -3.229  12.600   8.384  1.00  0.00     0.083 C 
HETATM    4  C5  UNL     1      -3.115  11.121   8.661  1.00  0.00     0.049 C 
BRANCH   3   5
HETATM    5  C3  UNL     1      -4.589  13.096   8.732  1.00  0.00     0.040 C 
BRANCH   5   6
HETATM    6  C2  UNL     1      -5.052  12.942  10.127  1.00  0.00    -0.002 C 
HETATM    7  C1  UNL     1      -6.448  12.568  10.402  1.00  0.00     0.005 C 
ENDBRANCH   5   6
ENDBRANCH   3   5
BRANCH   3   8
HETATM    8  O1  UNL     1      -2.263  13.254   9.157  1.00  0.00    -0.388 OA
ATOM      9  H1  UNL     1      -1.734  12.619   9.627  1.00  0.00     0.210 HD
ENDBRANCH   3   8
ENDBRANCH   2   3
BRANCH   2  10
HETATM   10  O2  UNL     1      -3.090  14.067   6.461  1.00  0.00    -0.390 OA
ATOM     11  H2  UNL     1      -2.439  14.662   6.813  1.00  0.00     0.210 HD
ENDBRANCH   2  10
ENDBRANCH   1   2
BRANCH   1  12
HETATM   12  O3  UNL     1      -0.504  12.615   7.055  1.00  0.00    -0.388 OA
ATOM     13  H3  UNL     1       0.256  12.047   6.987  1.00  0.00     0.210 HD
ENDBRANCH   1  12
BRANCH   1  14
HETATM   14  C8  UNL     1      -1.554  12.145   4.976  1.00  0.00    -0.011 A 
HETATM   15  C9  UNL     1      -0.454  12.605   4.401  1.00  0.00     0.019 A 
HETATM   16  C10 UNL     1      -0.309  12.665   2.968  1.00  0.00    -0.046 A 
HETATM   17  C11 UNL     1       0.925  13.181   2.298  1.00  0.00     0.049 C 
HETATM   18  C12 UNL     1      -1.321  12.240   2.213  1.00  0.00     0.094 A 
HETATM   19  N1  UNL     1      -2.503  11.746   2.829  1.00  0.00    -0.374 N 
HETATM   20  C13 UNL     1      -2.646  11.687   4.123  1.00  0.00     0.097 A 
ATOM     21  H1  UNL     1      -3.269  11.425   2.236  1.00  0.00     0.164 HD
ENDBRANCH   1  14
TORSDOF 8
ENDMDL
MODEL 5
REMARK VINA RESULT: -6.353703782      2.863      5.043
REMARK  8 active torsions:
REMARK  status: ('A' for Active; 'I' for Inactive)
REMARK    1  A    between atoms: C2_2  and  C3_3 
REMARK    2  A    between atoms: C3_3  and  C4_4 
REMARK    3  A    between atoms: C4_4  and  O1_6 
REMARK    4  A    between atoms: C4_4  and  C6_8 
REMARK    5  A    between atoms: C6_8  and  O2_9 
REMARK    6  A    between atoms: C6_8  and  C7_11 
REMARK    7  A    between atoms: C7_11  and  O3_12 
REMARK    8  A    between atoms: C7_11  and  C8_14 
ROOT
HETATM    1  C7  UNL     1       0.322  11.565   6.418  1.00  0.00     0.184 C 
ENDROOT
BRANCH   1   2
HETATM    2  C6  UNL     1       0.128  12.366   7.664  1.00  0.00     0.185 C 
BRANCH   2   3
HETATM    3  C4  UNL     1      -0.621  11.631   8.770  1.00  0.00     0.083 C 
HETATM    4  C5  UNL     1      -0.797  10.217   8.274  1.00  0.00     0.049 C 
BRANCH   3   5
HETATM    5  C3  UNL     1      -1.942  12.252   9.064  1.00  0.00     0.040 C 
BRANCH   5   6
HETATM    6  C2  UNL     1      -3.163  11.486   8.734  1.00  0.00    -0.002 C 
HETATM    7  C1  UNL     1      -4.479  11.972   9.176  1.00  0.00     0.005 C 
ENDBRANCH   5   6
ENDBRANCH   3   5
BRANCH   3   8
HETATM    8  O1  UNL     1       0.158  11.581   9.931  1.00  0.00    -0.388 OA
ATOM      9  H1  UNL     1       0.935  12.120   9.829  1.00  0.00     0.210 HD
ENDBRANCH   3   8
ENDBRANCH   2   3
BRANCH   2  10
HETATM   10  O2  UNL     1       1.251  13.026   8.127  1.00  0.00    -0.390 OA
ATOM     11  H2  UNL     1       1.283  13.076   9.075  1.00  0.00     0.210 HD
ENDBRANCH   2  10
ENDBRANCH   1   2
BRANCH   1  12
HETATM   12  O3  UNL     1       1.653  11.310   6.105  1.00  0.00    -0.388 OA
ATOM     13  H3  UNL     1       2.169  10.985   6.834  1.00  0.00     0.210 HD
ENDBRANCH   1  12
BRANCH   1  14
HETATM   14  C8  UNL     1      -0.381  12.224   5.283  1.00  0.00    -0.011 A 
HETATM   15  C9  UNL     1      -1.645  12.596   5.419  1.00  0.00     0.019 A 
HETATM   16  C10 UNL     1      -2.371  13.237   4.352  1.00  0.00    -0.046 A 
HETATM   17  C11 UNL     1      -3.797  13.666   4.484  1.00  0.00     0.049 C 
HETATM   18  C12 UNL     1      -1.738  13.456   3.200  1.00  0.00     0.094 A 
HETATM   19  N1  UNL     1      -0.381  13.056   3.053  1.00  0.00    -0.374 N 
HETATM   20  C13 UNL     1       0.285  12.475   4.011  1.00  0.00     0.097 A 
ATOM     21  H1  UNL     1       0.089  13.230   2.164  1.00  0.00     0.164 HD
ENDBRANCH   1  14
TORSDOF 8
ENDMDL
