MODEL 1
REMARK VINA RESULT: -7.371061789      0.000      0.000
REMARK  8 active torsions:
REMARK  status: ('A' for Active; 'I' for Inactive)
REMARK    1  A    between atoms: C4_4  and  C5_5 
REMARK    2  A    between atoms: C5_5  and  N1_6 
REMARK    3  A    between atoms: C5_5  and  C13_21 
REMARK    4  A    between atoms: N1_6  and  C6_8 
REMARK    5  A    between atoms: C6_8  and  O1_9 
REMARK    6  A    between atoms: C6_8  and  C7_11 
REMARK    7  A    between atoms: C7_11  and  N2_12 
REMARK    8  A    between atoms: C7_11  and  C8_16 
ROOT
HETATM    1  C1  UNL     1       1.470  12.996   1.686  1.00  0.00     0.027 C 
HETATM    2  C2  UNL     1       0.877  12.770   2.716  1.00  0.00    -0.026 C 
HETATM    3  C3  UNL     1       0.186  12.496   3.905  1.00  0.00    -0.014 C 
HETATM    4  C4  UNL     1      -0.386  12.247   4.953  1.00  0.00    -0.067 C 
ENDROOT
BRANCH   4   5
HETATM    5  C5  UNL     1      -1.055  11.949   6.260  1.00  0.00     0.163 C 
BRANCH   5   6
HETATM    6  N1  UNL     1      -2.431  11.982   6.074  1.00  0.00    -0.380 N 
ATOM      7  H1  UNL     1      -2.886  11.311   5.456  1.00  0.00     0.157 HD
BRANCH   6   8
HETATM    8  C6  UNL     1      -3.194  12.962   6.756  1.00  0.00     0.245 C 
BRANCH   8   9
HETATM    9  O1  UNL     1      -4.304  13.290   5.942  1.00  0.00    -0.375 OA
ATOM     10  H1  UNL     1      -5.047  13.445   6.513  1.00  0.00     0.212 HD
ENDBRANCH   8   9
BRANCH   8  11
HETATM   11  C7  UNL     1      -3.651  12.658   8.124  1.00  0.00     0.235 C 
BRANCH  11  12
HETATM   12  N2  UNL     1      -2.659  12.904   9.139  1.00  0.00    -0.070 N 
ATOM     13  H23 UNL     1      -1.893  13.464   8.763  1.00  0.00     0.274 HD
ATOM     14  H22 UNL     1      -3.017  13.552   9.841  1.00  0.00     0.274 HD
ATOM     15  H21 UNL     1      -2.302  12.058   9.581  1.00  0.00     0.274 HD
ENDBRANCH  11  12
BRANCH  11  16
HETATM   16  C8  UNL     1      -4.924  13.400   8.458  1.00  0.00     0.020 C 
HETATM   17  C9  UNL     1      -6.133  12.558   8.084  1.00  0.00     0.007 C 
HETATM   18  C10 UNL     1      -6.886  12.223   9.334  1.00  0.00     0.000 C 
HETATM   19  C11 UNL     1      -5.968  12.565  10.500  1.00  0.00     0.000 C 
HETATM   20  C12 UNL     1      -5.079  13.655   9.935  1.00  0.00     0.007 C 
ENDBRANCH  11  16
ENDBRANCH   8  11
ENDBRANCH   6   8
ENDBRANCH   5   6
BRANCH   5  21
HETATM   21  C13 UNL     1      -0.420  10.713   6.811  1.00  0.00     0.012 C 
HETATM   22  C14 UNL     1      -1.325   9.789   7.545  1.00  0.00     0.012 C 
HETATM   23  C15 UNL     1       0.901  10.954   7.504  1.00  0.00     0.012 C 
ENDBRANCH   5  21
ENDBRANCH   4   5
TORSDOF 8
ENDMDL
MODEL 2
REMARK VINA RESULT: -7.334889842      2.130      5.395
REMARK  8 active torsions:
REMARK  status: ('A' for Active; 'I' for Inactive)
REMARK    1  A    between atoms: C4_4  and  C5_5 
REMARK    2  A    between atoms: C5_5  and  N1_6 
REMARK    3  A    between atoms: C5_5  and  C13_21 
REMARK    4  A    between atoms: N1_6  and  C6_8 
REMARK    5  A    between atoms: C6_8  and  O1_9 
REMARK    6  A    between atoms: C6_8  and  C7_11 
REMARK    7  A    between atoms: C7_11  and  N2_12 
REMARK    8  A    between atoms: C7_11  and  C8_16 
ROOT
HETATM    1  C1  UNL     1      -3.428  14.473   3.387  1.00  0.00     0.027 C 
HETATM    2  C2  UNL     1      -3.475  14.083   4.530  1.00  0.00    -0.026 C 
HETATM    3  C3  UNL     1      -3.539  13.639   5.860  1.00  0.00    -0.014 C 
HETATM    4  C4  UNL     1      -3.617  13.228   7.005  1.00  0.00    -0.067 C 
ENDROOT
BRANCH   4   5
HETATM    5  C5  UNL     1      -3.717  12.687   8.398  1.00  0.00     0.163 C 
BRANCH   5   6
HETATM    6  N1  UNL     1      -2.530  12.955   9.068  1.00  0.00    -0.380 N 
ATOM      7  H1  UNL     1      -2.498  13.663   9.801  1.00  0.00     0.157 HD
BRANCH   6   8
HETATM    8  C6  UNL     1      -1.364  12.232   8.717  1.00  0.00     0.245 C 
BRANCH   8   9
HETATM    9  O1  UNL     1      -0.335  12.610   9.611  1.00  0.00    -0.375 OA
ATOM     10  H1  UNL     1      -0.044  11.829  10.068  1.00  0.00     0.212 HD
ENDBRANCH   8   9
BRANCH   8  11
HETATM   11  C7  UNL     1      -1.452  10.762   8.652  1.00  0.00     0.235 C 
BRANCH  11  12
HETATM   12  N2  UNL     1      -2.797  10.254   8.737  1.00  0.00    -0.070 N 
ATOM     13  H23 UNL     1      -3.070  10.122   9.711  1.00  0.00     0.274 HD
ATOM     14  H22 UNL     1      -3.469  10.972   8.466  1.00  0.00     0.274 HD
ATOM     15  H21 UNL     1      -2.950   9.399   8.203  1.00  0.00     0.274 HD
ENDBRANCH  11  12
BRANCH  11  16
HETATM   16  C8  UNL     1      -0.776  10.223   7.412  1.00  0.00     0.020 C 
HETATM   17  C9  UNL     1      -1.083  11.115   6.221  1.00  0.00     0.007 C 
HETATM   18  C10 UNL     1       0.196  11.731   5.742  1.00  0.00     0.000 C 
HETATM   19  C11 UNL     1       1.229  11.491   6.834  1.00  0.00     0.000 C 
HETATM   20  C12 UNL     1       0.727  10.234   7.518  1.00  0.00     0.007 C 
ENDBRANCH  11  16
ENDBRANCH   8  11
ENDBRANCH   6   8
ENDBRANCH   5   6
BRANCH   5  21
HETATM   21  C13 UNL     1      -5.007  13.177   8.972  1.00  0.00     0.012 C 
HETATM   22  C14 UNL     1      -5.068  13.267  10.455  1.00  0.00     0.012 C 
HETATM   23  C15 UNL     1      -6.235  12.557   8.346  1.00  0.00     0.012 C 
ENDBRANCH   5  21
ENDBRANCH   4   5
TORSDOF 8
ENDMDL
MODEL 3
REMARK VINA RESULT: -7.327903484      2.131      2.442
REMARK  8 active torsions:
REMARK  status: ('A' for Active; 'I' for Inactive)
REMARK    1  A    between atoms: C4_4  and  C5_5 
REMARK    2  A    between atoms: C5_5  and  N1_6 
REMARK    3  A    between atoms: C5_5  and  C13_21 
REMARK    4  A    between atoms: N1_6  and  C6_8 
REMARK    5  A    between atoms: C6_8  and  O1_9 
REMARK    6  A    between atoms: C6_8  and  C7_11 
REMARK    7  A    between atoms: C7_11  and  N2_12 
REMARK    8  A    between atoms: C7_11  and  C8_16 
ROOT
HETATM    1  C1  UNL     1      -3.375  11.785   2.059  1.00  0.00     0.027 C 
HETATM    2  C2  UNL     1      -2.901  11.740   3.170  1.00  0.00    -0.026 C 
HETATM    3  C3  UNL     1      -2.355  11.701   4.462  1.00  0.00    -0.014 C 
HETATM    4  C4  UNL     1      -1.910  11.655   5.597  1.00  0.00    -0.067 C 
ENDROOT
BRANCH   4   5
HETATM    5  C5  UNL     1      -1.386  11.567   6.997  1.00  0.00     0.163 C 
BRANCH   5   6
HETATM    6  N1  UNL     1      -2.445  11.295   7.854  1.00  0.00    -0.380 N 
ATOM      7  H1  UNL     1      -2.897  10.381   7.844  1.00  0.00     0.157 HD
BRANCH   6   8
HETATM    8  C6  UNL     1      -2.887  12.306   8.742  1.00  0.00     0.245 C 
BRANCH   8   9
HETATM    9  O1  UNL     1      -1.923  13.341   8.735  1.00  0.00    -0.375 OA
ATOM     10  H1  UNL     1      -2.385  14.169   8.676  1.00  0.00     0.212 HD
ENDBRANCH   8   9
BRANCH   8  11
HETATM   11  C7  UNL     1      -4.231  12.874   8.532  1.00  0.00     0.235 C 
BRANCH  11  12
HETATM   12  N2  UNL     1      -4.541  13.144   7.152  1.00  0.00    -0.070 N 
ATOM     13  H23 UNL     1      -3.882  13.817   6.762  1.00  0.00     0.274 HD
ATOM     14  H22 UNL     1      -4.325  12.334   6.571  1.00  0.00     0.274 HD
ATOM     15  H21 UNL     1      -5.501  13.451   6.997  1.00  0.00     0.274 HD
ENDBRANCH  11  12
BRANCH  11  16
HETATM   16  C8  UNL     1      -5.302  11.997   9.139  1.00  0.00     0.020 C 
HETATM   17  C9  UNL     1      -5.851  12.641  10.401  1.00  0.00     0.007 C 
HETATM   18  C10 UNL     1      -7.296  12.968  10.181  1.00  0.00     0.000 C 
HETATM   19  C11 UNL     1      -7.547  12.840   8.686  1.00  0.00     0.000 C 
HETATM   20  C12 UNL     1      -6.501  11.837   8.241  1.00  0.00     0.007 C 
ENDBRANCH  11  16
ENDBRANCH   8  11
ENDBRANCH   6   8
ENDBRANCH   5   6
BRANCH   5  21
HETATM   21  C13 UNL     1      -0.209  10.645   6.972  1.00  0.00     0.012 C 
HETATM   22  C14 UNL     1      -0.215   9.555   7.984  1.00  0.00     0.012 C 
HETATM   23  C15 UNL     1       1.122  11.347   6.838  1.00  0.00     0.012 C 
ENDBRANCH   5  21
ENDBRANCH   4   5
TORSDOF 8
ENDMDL
MODEL 4
REMARK VINA RESULT: -7.231121573      1.477      1.874
REMARK  8 active torsions:
REMARK  status: ('A' for Active; 'I' for Inactive)
REMARK    1  A    between atoms: C4_4  and  C5_5 
REMARK    2  A    between atoms: C5_5  and  N1_6 
REMARK    3  A    between atoms: C5_5  and  C13_21 
REMARK    4  A    between atoms: N1_6  and  C6_8 
REMARK    5  A    between atoms: C6_8  and  O1_9 
REMARK    6  A    between atoms: C6_8  and  C7_11 
REMARK    7  A    between atoms: C7_11  and  N2_12 
REMARK    8  A    between atoms: C7_11  and  C8_16 
ROOT
HETATM    1  C1  UNL     1      -0.265  12.888   1.938  1.00  0.00     0.027 C 
HETATM    2  C2  UNL     1      -0.398  12.717   3.128  1.00  0.00    -0.026 C 
HETATM    3  C3  UNL     1      -0.564  12.521   4.507  1.00  0.00    -0.014 C 
HETATM    4  C4  UNL     1      -0.709  12.316   5.700  1.00  0.00    -0.067 C 
ENDROOT
BRANCH   4   5
HETATM    5  C5  UNL     1      -0.867  12.032   7.162  1.00  0.00     0.163 C 
BRANCH   5   6
HETATM    6  N1  UNL     1      -2.182  11.657   7.406  1.00  0.00    -0.380 N 
ATOM      7  H1  UNL     1      -2.634  10.950   6.826  1.00  0.00     0.157 HD
BRANCH   6   8
HETATM    8  C6  UNL     1      -2.886  12.271   8.469  1.00  0.00     0.245 C 
BRANCH   8   9
HETATM    9  O1  UNL     1      -2.056  13.280   9.013  1.00  0.00    -0.375 OA
ATOM     10  H1  UNL     1      -2.318  14.109   8.631  1.00  0.00     0.212 HD
ENDBRANCH   8   9
BRANCH   8  11
HETATM   11  C7  UNL     1      -4.224  12.823   8.189  1.00  0.00     0.235 C 
BRANCH  11  12
HETATM   12  N2  UNL     1      -4.487  13.032   6.789  1.00  0.00    -0.070 N 
ATOM     13  H23 UNL     1      -3.755  12.607   6.220  1.00  0.00     0.274 HD
ATOM     14  H22 UNL     1      -5.285  12.472   6.487  1.00  0.00     0.274 HD
ATOM     15  H21 UNL     1      -4.618  14.010   6.535  1.00  0.00     0.274 HD
ENDBRANCH  11  12
BRANCH  11  16
HETATM   16  C8  UNL     1      -5.312  11.968   8.797  1.00  0.00     0.020 C 
HETATM   17  C9  UNL     1      -5.627  12.446  10.204  1.00  0.00     0.007 C 
HETATM   18  C10 UNL     1      -7.039  12.945  10.234  1.00  0.00     0.000 C 
HETATM   19  C11 UNL     1      -7.479  13.091   8.784  1.00  0.00     0.000 C 
HETATM   20  C12 UNL     1      -6.620  12.077   8.055  1.00  0.00     0.007 C 
ENDBRANCH  11  16
ENDBRANCH   8  11
ENDBRANCH   6   8
ENDBRANCH   5   6
BRANCH   5  21
HETATM   21  C13 UNL     1       0.242  11.109   7.556  1.00  0.00     0.012 C 
HETATM   22  C14 UNL     1      -0.161   9.722   7.910  1.00  0.00     0.012 C 
HETATM   23  C15 UNL     1       1.242  11.719   8.510  1.00  0.00     0.012 C 
ENDBRANCH   5  21
ENDBRANCH   4   5
TORSDOF 8
ENDMDL
MODEL 5
REMARK VINA RESULT: -7.177959923      1.732      2.514
REMARK  8 active torsions:
REMARK  status: ('A' for Active; 'I' for Inactive)
REMARK    1  A    between atoms: C4_4  and  C5_5 
REMARK    2  A    between atoms: C5_5  and  N1_6 
REMARK    3  A    between atoms: C5_5  and  C13_21 
REMARK    4  A    between atoms: N1_6  and  C6_8 
REMARK    5  A    between atoms: C6_8  and  O1_9 
REMARK    6  A    between atoms: C6_8  and  C7_11 
REMARK    7  A    between atoms: C7_11  and  N2_12 
REMARK    8  A    between atoms: C7_11  and  C8_16 
ROOT
HETATM    1  C1  UNL     1       1.749  13.232   1.928  1.00  0.00     0.027 C 
HETATM    2  C2  UNL     1       0.867  12.916   2.693  1.00  0.00    -0.026 C 
HETATM    3  C3  UNL     1      -0.160  12.562   3.581  1.00  0.00    -0.014 C 
HETATM    4  C4  UNL     1      -1.072  12.246   4.325  1.00  0.00    -0.067 C 
ENDROOT
BRANCH   4   5
HETATM    5  C5  UNL     1      -2.203  11.829   5.214  1.00  0.00     0.163 C 
BRANCH   5   6
HETATM    6  N1  UNL     1      -1.777  11.885   6.535  1.00  0.00    -0.380 N 
ATOM      7  H1  UNL     1      -0.866  12.280   6.768  1.00  0.00     0.157 HD
BRANCH   6   8
HETATM    8  C6  UNL     1      -2.625  11.386   7.553  1.00  0.00     0.245 C 
BRANCH   8   9
HETATM    9  O1  UNL     1      -2.281  10.031   7.777  1.00  0.00    -0.375 OA
ATOM     10  H1  UNL     1      -3.065   9.508   7.652  1.00  0.00     0.212 HD
ENDBRANCH   8   9
BRANCH   8  11
HETATM   11  C7  UNL     1      -2.667  12.108   8.838  1.00  0.00     0.235 C 
BRANCH  11  12
HETATM   12  N2  UNL     1      -1.412  12.706   9.212  1.00  0.00    -0.070 N 
ATOM     13  H23 UNL     1      -0.955  12.155   9.938  1.00  0.00     0.274 HD
ATOM     14  H22 UNL     1      -0.728  12.604   8.462  1.00  0.00     0.274 HD
ATOM     15  H21 UNL     1      -1.489  13.682   9.497  1.00  0.00     0.274 HD
ENDBRANCH  11  12
BRANCH  11  16
HETATM   16  C8  UNL     1      -3.759  13.153   8.846  1.00  0.00     0.020 C 
HETATM   17  C9  UNL     1      -4.905  12.719   7.947  1.00  0.00     0.007 C 
HETATM   18  C10 UNL     1      -6.125  12.516   8.792  1.00  0.00     0.000 C 
HETATM   19  C11 UNL     1      -5.652  12.494  10.239  1.00  0.00     0.000 C 
HETATM   20  C12 UNL     1      -4.387  13.328  10.205  1.00  0.00     0.007 C 
ENDBRANCH  11  16
ENDBRANCH   8  11
ENDBRANCH   6   8
ENDBRANCH   5   6
BRANCH   5  21
HETATM   21  C13 UNL     1      -3.406  12.614   4.799  1.00  0.00     0.012 C 
HETATM   22  C14 UNL     1      -4.061  12.181   3.536  1.00  0.00     0.012 C 
HETATM   23  C15 UNL     1      -3.237  14.110   4.918  1.00  0.00     0.012 C 
ENDBRANCH   5  21
ENDBRANCH   4   5
TORSDOF 8
ENDMDL
