MODEL 1
REMARK VINA RESULT: -7.251567231      0.000      0.000
REMARK  7 active torsions:
REMARK  status: ('A' for Active; 'I' for Inactive)
REMARK    1  A    between atoms: C2_2  and  C3_3 
REMARK    2  A    between atoms: C3_3  and  C4_4 
REMARK    3  A    between atoms: C7_8  and  C8_9 
REMARK    4  A    between atoms: C8_9  and  N1_10 
REMARK    5  A    between atoms: C9_11  and  O1_12 
REMARK    6  A    between atoms: N2_15  and  C11_16 
REMARK    7  A    between atoms: C11_16  and  C12_17 
ROOT
HETATM    1  N1  UNL     1      27.153  50.241  -1.601  1.00  0.00    -0.274 N 
HETATM    2  C9  UNL     1      27.313  49.406  -2.698  1.00  0.00     0.162 A 
HETATM    3  C10 UNL     1      26.483  48.344  -2.550  1.00  0.00     0.151 A 
HETATM    4  N2  UNL     1      25.807  48.473  -1.405  1.00  0.00    -0.305 N 
HETATM    5  C16 UNL     1      26.233  49.628  -0.853  1.00  0.00     0.331 A 
HETATM    6  O2  UNL     1      25.759  50.021   0.270  1.00  0.00    -0.246 OA
ENDROOT
BRANCH   1   7
HETATM    7  C8  UNL     1      27.916  51.443  -1.481  1.00  0.00     0.175 C 
BRANCH   7   8
HETATM    8  C7  UNL     1      27.220  52.751  -1.641  1.00  0.00    -0.026 A 
HETATM    9  C4  UNL     1      27.108  53.729  -0.721  1.00  0.00    -0.043 A 
HETATM   10  C5  UNL     1      26.359  54.841  -1.071  1.00  0.00     0.057 A 
HETATM   11  S1  UNL     1      25.843  54.495  -2.649  1.00  0.00    -0.113 SA
HETATM   12  C6  UNL     1      26.572  52.970  -2.843  1.00  0.00     0.058 A 
BRANCH   9  13
HETATM   13  C3  UNL     1      27.764  53.759   0.646  1.00  0.00     0.039 C 
BRANCH  13  14
HETATM   14  C2  UNL     1      26.818  53.393   1.738  1.00  0.00     0.000 C 
HETATM   15  C1  UNL     1      27.330  52.237   2.567  1.00  0.00     0.005 C 
ENDBRANCH  13  14
ENDBRANCH   9  13
ENDBRANCH   7   8
ENDBRANCH   1   7
BRANCH   2  16
HETATM   16  O1  UNL     1      28.199  49.630  -3.778  1.00  0.00    -0.345 OA
ATOM     17  H1  UNL     1      28.853  49.017  -4.091  1.00  0.00     0.219 HD
ENDBRANCH   2  16
BRANCH   4  18
HETATM   18  C11 UNL     1      24.865  47.487  -0.940  1.00  0.00     0.141 C 
BRANCH  18  19
HETATM   19  C12 UNL     1      25.477  46.369  -0.147  1.00  0.00    -0.035 C 
HETATM   20  C13 UNL     1      24.410  45.807   0.787  1.00  0.00     0.016 C 
HETATM   21  C14 UNL     1      26.653  46.800   0.696  1.00  0.00     0.016 C 
HETATM   22  C15 UNL     1      25.866  45.222  -1.071  1.00  0.00     0.016 C 
ENDBRANCH  18  19
ENDBRANCH   4  18
TORSDOF 7
ENDMDL
MODEL 2
REMARK VINA RESULT: -6.790941562      2.873      5.490
REMARK  7 active torsions:
REMARK  status: ('A' for Active; 'I' for Inactive)
REMARK    1  A    between atoms: C2_2  and  C3_3 
REMARK    2  A    between atoms: C3_3  and  C4_4 
REMARK    3  A    between atoms: C7_8  and  C8_9 
REMARK    4  A    between atoms: C8_9  and  N1_10 
REMARK    5  A    between atoms: C9_11  and  O1_12 
REMARK    6  A    between atoms: N2_15  and  C11_16 
REMARK    7  A    between atoms: C11_16  and  C12_17 
ROOT
HETATM    1  N1  UNL     1      27.568  52.066   0.959  1.00  0.00    -0.274 N 
HETATM    2  C9  UNL     1      27.522  53.315   0.354  1.00  0.00     0.162 A 
HETATM    3  C10 UNL     1      27.039  53.162  -0.904  1.00  0.00     0.151 A 
HETATM    4  N2  UNL     1      26.780  51.868  -1.120  1.00  0.00    -0.305 N 
HETATM    5  C16 UNL     1      27.109  51.231   0.024  1.00  0.00     0.331 A 
HETATM    6  O2  UNL     1      26.970  49.962   0.118  1.00  0.00    -0.246 OA
ENDROOT
BRANCH   1   7
HETATM    7  C8  UNL     1      28.048  51.920   2.295  1.00  0.00     0.175 C 
BRANCH   7   8
HETATM    8  C7  UNL     1      27.074  51.999   3.420  1.00  0.00    -0.026 A 
HETATM    9  C4  UNL     1      26.358  50.985   3.947  1.00  0.00    -0.043 A 
HETATM   10  C5  UNL     1      25.461  51.304   4.954  1.00  0.00     0.057 A 
HETATM   11  S1  UNL     1      25.640  52.981   5.133  1.00  0.00    -0.113 SA
HETATM   12  C6  UNL     1      26.831  53.253   3.949  1.00  0.00     0.058 A 
BRANCH   9  13
HETATM   13  C3  UNL     1      26.475  49.517   3.584  1.00  0.00     0.039 C 
BRANCH  13  14
HETATM   14  C2  UNL     1      25.160  48.916   3.224  1.00  0.00     0.000 C 
HETATM   15  C1  UNL     1      25.320  47.598   2.500  1.00  0.00     0.005 C 
ENDBRANCH  13  14
ENDBRANCH   9  13
ENDBRANCH   7   8
ENDBRANCH   1   7
BRANCH   2  16
HETATM   16  O1  UNL     1      27.921  54.532   0.953  1.00  0.00    -0.345 OA
ATOM     17  H1  UNL     1      27.747  54.787   1.851  1.00  0.00     0.219 HD
ENDBRANCH   2  16
BRANCH   4  18
HETATM   18  C11 UNL     1      26.285  51.371  -2.378  1.00  0.00     0.141 C 
BRANCH  18  19
HETATM   19  C12 UNL     1      27.350  51.110  -3.403  1.00  0.00    -0.035 C 
HETATM   20  C13 UNL     1      27.010  49.809  -4.124  1.00  0.00     0.016 C 
HETATM   21  C14 UNL     1      28.734  50.969  -2.816  1.00  0.00     0.016 C 
HETATM   22  C15 UNL     1      27.325  52.195  -4.472  1.00  0.00     0.016 C 
ENDBRANCH  18  19
ENDBRANCH   4  18
TORSDOF 7
ENDMDL
MODEL 3
REMARK VINA RESULT: -6.732086194      1.592      2.105
REMARK  7 active torsions:
REMARK  status: ('A' for Active; 'I' for Inactive)
REMARK    1  A    between atoms: C2_2  and  C3_3 
REMARK    2  A    between atoms: C3_3  and  C4_4 
REMARK    3  A    between atoms: C7_8  and  C8_9 
REMARK    4  A    between atoms: C8_9  and  N1_10 
REMARK    5  A    between atoms: C9_11  and  O1_12 
REMARK    6  A    between atoms: N2_15  and  C11_16 
REMARK    7  A    between atoms: C11_16  and  C12_17 
ROOT
HETATM    1  N1  UNL     1      26.574  50.896  -3.251  1.00  0.00    -0.274 N 
HETATM    2  C9  UNL     1      25.248  50.586  -3.523  1.00  0.00     0.162 A 
HETATM    3  C10 UNL     1      24.961  49.396  -2.940  1.00  0.00     0.151 A 
HETATM    4  N2  UNL     1      26.050  48.940  -2.313  1.00  0.00    -0.305 N 
HETATM    5  C16 UNL     1      27.008  49.868  -2.519  1.00  0.00     0.331 A 
HETATM    6  O2  UNL     1      28.181  49.702  -2.033  1.00  0.00    -0.246 OA
ENDROOT
BRANCH   1   7
HETATM    7  C8  UNL     1      27.159  52.098  -3.752  1.00  0.00     0.175 C 
BRANCH   7   8
HETATM    8  C7  UNL     1      26.685  53.404  -3.214  1.00  0.00    -0.026 A 
HETATM    9  C4  UNL     1      26.729  53.819  -1.932  1.00  0.00    -0.043 A 
HETATM   10  C5  UNL     1      26.171  55.055  -1.650  1.00  0.00     0.057 A 
HETATM   11  S1  UNL     1      25.612  55.595  -3.157  1.00  0.00    -0.113 SA
HETATM   12  C6  UNL     1      26.085  54.268  -4.111  1.00  0.00     0.058 A 
BRANCH   9  13
HETATM   13  C3  UNL     1      27.377  53.088  -0.771  1.00  0.00     0.039 C 
BRANCH  13  14
HETATM   14  C2  UNL     1      27.421  53.917   0.467  1.00  0.00     0.000 C 
HETATM   15  C1  UNL     1      26.890  53.168   1.668  1.00  0.00     0.005 C 
ENDBRANCH  13  14
ENDBRANCH   9  13
ENDBRANCH   7   8
ENDBRANCH   1   7
BRANCH   2  16
HETATM   16  O1  UNL     1      24.359  51.379  -4.285  1.00  0.00    -0.345 OA
ATOM     17  H1  UNL     1      23.591  51.825  -3.948  1.00  0.00     0.219 HD
ENDBRANCH   2  16
BRANCH   4  18
HETATM   18  C11 UNL     1      26.081  47.677  -1.622  1.00  0.00     0.141 C 
BRANCH  18  19
HETATM   19  C12 UNL     1      25.926  47.781  -0.133  1.00  0.00    -0.035 C 
HETATM   20  C13 UNL     1      25.020  46.645   0.333  1.00  0.00     0.016 C 
HETATM   21  C14 UNL     1      25.310  49.082   0.321  1.00  0.00     0.016 C 
HETATM   22  C15 UNL     1      27.267  47.549   0.552  1.00  0.00     0.016 C 
ENDBRANCH  18  19
ENDBRANCH   4  18
TORSDOF 7
ENDMDL
MODEL 4
REMARK VINA RESULT: -6.681974023      1.583      2.042
REMARK  7 active torsions:
REMARK  status: ('A' for Active; 'I' for Inactive)
REMARK    1  A    between atoms: C2_2  and  C3_3 
REMARK    2  A    between atoms: C3_3  and  C4_4 
REMARK    3  A    between atoms: C7_8  and  C8_9 
REMARK    4  A    between atoms: C8_9  and  N1_10 
REMARK    5  A    between atoms: C9_11  and  O1_12 
REMARK    6  A    between atoms: N2_15  and  C11_16 
REMARK    7  A    between atoms: C11_16  and  C12_17 
ROOT
HETATM    1  N1  UNL     1      26.989  50.607  -2.218  1.00  0.00    -0.274 N 
HETATM    2  C9  UNL     1      27.924  49.919  -2.980  1.00  0.00     0.162 A 
HETATM    3  C10 UNL     1      27.266  49.013  -3.745  1.00  0.00     0.151 A 
HETATM    4  N2  UNL     1      25.956  49.098  -3.496  1.00  0.00    -0.305 N 
HETATM    5  C16 UNL     1      25.819  50.070  -2.570  1.00  0.00     0.331 A 
HETATM    6  O2  UNL     1      24.659  50.380  -2.126  1.00  0.00    -0.246 OA
ENDROOT
BRANCH   1   7
HETATM    7  C8  UNL     1      27.400  51.624  -1.304  1.00  0.00     0.175 C 
BRANCH   7   8
HETATM    8  C7  UNL     1      26.951  53.026  -1.543  1.00  0.00    -0.026 A 
HETATM    9  C4  UNL     1      27.017  54.058  -0.678  1.00  0.00    -0.043 A 
HETATM   10  C5  UNL     1      26.480  55.265  -1.096  1.00  0.00     0.057 A 
HETATM   11  S1  UNL     1      25.909  54.930  -2.657  1.00  0.00    -0.113 SA
HETATM   12  C6  UNL     1      26.351  53.290  -2.760  1.00  0.00     0.058 A 
BRANCH   9  13
HETATM   13  C3  UNL     1      27.670  54.045   0.691  1.00  0.00     0.039 C 
BRANCH  13  14
HETATM   14  C2  UNL     1      26.751  53.547   1.753  1.00  0.00     0.000 C 
HETATM   15  C1  UNL     1      27.338  52.374   2.505  1.00  0.00     0.005 C 
ENDBRANCH  13  14
ENDBRANCH   9  13
ENDBRANCH   7   8
ENDBRANCH   1   7
BRANCH   2  16
HETATM   16  O1  UNL     1      29.322  50.130  -2.951  1.00  0.00    -0.345 OA
ATOM     17  H1  UNL     1      29.952  49.591  -2.489  1.00  0.00     0.219 HD
ENDBRANCH   2  16
BRANCH   4  18
HETATM   18  C11 UNL     1      24.984  48.241  -4.127  1.00  0.00     0.141 C 
BRANCH  18  19
HETATM   19  C12 UNL     1      24.809  46.908  -3.461  1.00  0.00    -0.035 C 
HETATM   20  C13 UNL     1      23.492  46.305  -3.941  1.00  0.00     0.016 C 
HETATM   21  C14 UNL     1      24.762  46.986  -1.954  1.00  0.00     0.016 C 
HETATM   22  C15 UNL     1      25.897  45.945  -3.919  1.00  0.00     0.016 C 
ENDBRANCH  18  19
ENDBRANCH   4  18
TORSDOF 7
ENDMDL
MODEL 5
REMARK VINA RESULT: -6.643920281      1.408      2.432
REMARK  7 active torsions:
REMARK  status: ('A' for Active; 'I' for Inactive)
REMARK    1  A    between atoms: C2_2  and  C3_3 
REMARK    2  A    between atoms: C3_3  and  C4_4 
REMARK    3  A    between atoms: C7_8  and  C8_9 
REMARK    4  A    between atoms: C8_9  and  N1_10 
REMARK    5  A    between atoms: C9_11  and  O1_12 
REMARK    6  A    between atoms: N2_15  and  C11_16 
REMARK    7  A    between atoms: C11_16  and  C12_17 
ROOT
HETATM    1  N1  UNL     1      26.880  50.348  -1.930  1.00  0.00    -0.274 N 
HETATM    2  C9  UNL     1      26.456  49.663  -0.799  1.00  0.00     0.162 A 
HETATM    3  C10 UNL     1      25.637  48.657  -1.193  1.00  0.00     0.151 A 
HETATM    4  N2  UNL     1      25.526  48.678  -2.525  1.00  0.00    -0.305 N 
HETATM    5  C16 UNL     1      26.288  49.711  -2.942  1.00  0.00     0.331 A 
HETATM    6  O2  UNL     1      26.377  49.985  -4.189  1.00  0.00    -0.246 OA
ENDROOT
BRANCH   1   7
HETATM    7  C8  UNL     1      27.752  51.474  -1.816  1.00  0.00     0.175 C 
BRANCH   7   8
HETATM    8  C7  UNL     1      27.157  52.840  -1.789  1.00  0.00    -0.026 A 
HETATM    9  C4  UNL     1      27.099  53.680  -0.736  1.00  0.00    -0.043 A 
HETATM   10  C5  UNL     1      26.440  54.884  -0.926  1.00  0.00     0.057 A 
HETATM   11  S1  UNL     1      25.930  54.810  -2.542  1.00  0.00    -0.113 SA
HETATM   12  C6  UNL     1      26.548  53.279  -2.950  1.00  0.00     0.058 A 
BRANCH   9  13
HETATM   13  C3  UNL     1      27.731  53.462   0.625  1.00  0.00     0.039 C 
BRANCH  13  14
HETATM   14  C2  UNL     1      26.769  53.690   1.740  1.00  0.00     0.000 C 
HETATM   15  C1  UNL     1      26.912  52.655   2.833  1.00  0.00     0.005 C 
ENDBRANCH  13  14
ENDBRANCH   9  13
ENDBRANCH   7   8
ENDBRANCH   1   7
BRANCH   2  16
HETATM   16  O1  UNL     1      26.815  49.975   0.533  1.00  0.00    -0.345 OA
ATOM     17  H1  UNL     1      26.225  49.981   1.276  1.00  0.00     0.219 HD
ENDBRANCH   2  16
BRANCH   4  18
HETATM   18  C11 UNL     1      24.696  47.753  -3.254  1.00  0.00     0.141 C 
BRANCH  18  19
HETATM   19  C12 UNL     1      25.355  46.440  -3.562  1.00  0.00    -0.035 C 
HETATM   20  C13 UNL     1      24.381  45.600  -4.384  1.00  0.00     0.016 C 
HETATM   21  C14 UNL     1      25.730  45.648  -2.333  1.00  0.00     0.016 C 
HETATM   22  C15 UNL     1      26.569  46.659  -4.456  1.00  0.00     0.016 C 
ENDBRANCH  18  19
ENDBRANCH   4  18
TORSDOF 7
ENDMDL
