MODEL 1
REMARK VINA RESULT: -8.371582960      0.000      0.000
REMARK  6 active torsions:
REMARK  status: ('A' for Active; 'I' for Inactive)
REMARK    1  A    between atoms: C4_4  and  C5_5 
REMARK    2  A    between atoms: C6_6  and  C7_7 
REMARK    3  A    between atoms: C7_7  and  C10_10 
REMARK    4  A    between atoms: C12_12  and  N1_13 
REMARK    5  A    between atoms: C14_17  and  N2_18 
REMARK    6  A    between atoms: C15_21  and  O5_22 
ROOT
HETATM    1  C10 UNL     1      26.783  51.089  -0.222  1.00  0.00    -0.008 A 
HETATM    2  C11 UNL     1      26.768  51.949   0.852  1.00  0.00     0.047 A 
HETATM    3  C12 UNL     1      26.541  51.529   2.163  1.00  0.00     0.106 A 
HETATM    4  C13 UNL     1      26.320  50.192   2.399  1.00  0.00     0.075 A 
HETATM    5  C14 UNL     1      26.329  49.290   1.320  1.00  0.00     0.138 A 
HETATM    6  C15 UNL     1      26.557  49.740   0.046  1.00  0.00     0.106 A 
ENDROOT
BRANCH   1   7
HETATM    7  C7  UNL     1      27.028  51.596  -1.570  1.00  0.00     0.000 C 
HETATM    8  C8  UNL     1      25.947  51.101  -2.501  1.00  0.00     0.024 C 
HETATM    9  C9  UNL     1      28.343  51.156  -2.164  1.00  0.00     0.024 C 
BRANCH   7  10
HETATM   10  C6  UNL     1      27.008  53.081  -1.646  1.00  0.00    -0.013 C 
HETATM   11  C5  UNL     1      26.136  53.673  -2.412  1.00  0.00    -0.003 C 
BRANCH  11  12
HETATM   12  C4  UNL     1      26.052  55.130  -2.540  1.00  0.00     0.002 C 
HETATM   13  C2  UNL     1      25.732  55.698  -3.677  1.00  0.00    -0.088 C 
HETATM   14  C1  UNL     1      25.661  57.186  -3.751  1.00  0.00     0.043 C 
HETATM   15  C3  UNL     1      25.447  54.859  -4.865  1.00  0.00     0.043 C 
ENDBRANCH  11  12
ENDBRANCH   7  10
ENDBRANCH   1   7
BRANCH   6  16
HETATM   16  O5  UNL     1      26.572  48.906  -1.015  1.00  0.00    -0.358 OA
ATOM     17  H5  UNL     1      26.785  47.997  -0.836  1.00  0.00     0.217 HD
ENDBRANCH   6  16
BRANCH   3  18
HETATM   18  N1  UNL     1      26.535  52.454   3.242  1.00  0.00    -0.116 N 
HETATM   19  O1  UNL     1      26.206  52.111   4.392  1.00  0.00    -0.532 OA
HETATM   20  O2  UNL     1      26.894  53.761   3.038  1.00  0.00    -0.532 OA
ENDBRANCH   3  18
BRANCH   5  21
HETATM   21  N2  UNL     1      26.089  47.942   1.681  1.00  0.00    -0.113 N 
HETATM   22  O3  UNL     1      25.447  47.656   2.732  1.00  0.00    -0.532 OA
HETATM   23  O4  UNL     1      26.518  46.875   0.939  1.00  0.00    -0.532 OA
ENDBRANCH   5  21
TORSDOF 6
ENDMDL
MODEL 2
REMARK VINA RESULT: -8.132077458      1.119      1.485
REMARK  6 active torsions:
REMARK  status: ('A' for Active; 'I' for Inactive)
REMARK    1  A    between atoms: C4_4  and  C5_5 
REMARK    2  A    between atoms: C6_6  and  C7_7 
REMARK    3  A    between atoms: C7_7  and  C10_10 
REMARK    4  A    between atoms: C12_12  and  N1_13 
REMARK    5  A    between atoms: C14_17  and  N2_18 
REMARK    6  A    between atoms: C15_21  and  O5_22 
ROOT
HETATM    1  C10 UNL     1      26.914  50.830  -0.533  1.00  0.00    -0.008 A 
HETATM    2  C11 UNL     1      27.125  52.045   0.077  1.00  0.00     0.047 A 
HETATM    3  C12 UNL     1      26.988  52.244   1.452  1.00  0.00     0.106 A 
HETATM    4  C13 UNL     1      26.625  51.176   2.239  1.00  0.00     0.075 A 
HETATM    5  C14 UNL     1      26.404  49.922   1.643  1.00  0.00     0.138 A 
HETATM    6  C15 UNL     1      26.548  49.766   0.289  1.00  0.00     0.106 A 
ENDROOT
BRANCH   1   7
HETATM    7  C7  UNL     1      27.075  50.693  -1.978  1.00  0.00     0.000 C 
HETATM    8  C8  UNL     1      25.934  49.878  -2.539  1.00  0.00     0.024 C 
HETATM    9  C9  UNL     1      28.347  49.994  -2.392  1.00  0.00     0.024 C 
BRANCH   7  10
HETATM   10  C6  UNL     1      27.059  51.996  -2.692  1.00  0.00    -0.013 C 
HETATM   11  C5  UNL     1      25.923  52.503  -3.080  1.00  0.00    -0.003 C 
BRANCH  11  12
HETATM   12  C4  UNL     1      25.823  53.781  -3.789  1.00  0.00     0.002 C 
HETATM   13  C2  UNL     1      25.905  54.923  -3.152  1.00  0.00    -0.088 C 
HETATM   14  C1  UNL     1      25.797  56.195  -3.924  1.00  0.00     0.043 C 
HETATM   15  C3  UNL     1      26.103  54.935  -1.683  1.00  0.00     0.043 C 
ENDBRANCH  11  12
ENDBRANCH   7  10
ENDBRANCH   1   7
BRANCH   6  16
HETATM   16  O5  UNL     1      26.343  48.579  -0.320  1.00  0.00    -0.358 OA
ATOM     17  H5  UNL     1      27.015  47.919  -0.197  1.00  0.00     0.217 HD
ENDBRANCH   6  16
BRANCH   3  18
HETATM   18  N1  UNL     1      27.215  53.518   2.038  1.00  0.00    -0.116 N 
HETATM   19  O1  UNL     1      26.784  53.800   3.170  1.00  0.00    -0.532 OA
HETATM   20  O2  UNL     1      27.923  54.477   1.361  1.00  0.00    -0.532 OA
ENDBRANCH   3  18
BRANCH   5  21
HETATM   21  N2  UNL     1      26.034  48.898   2.549  1.00  0.00    -0.113 N 
HETATM   22  O3  UNL     1      26.029  49.107   3.796  1.00  0.00    -0.532 OA
HETATM   23  O4  UNL     1      25.662  47.642   2.156  1.00  0.00    -0.532 OA
ENDBRANCH   5  21
TORSDOF 6
ENDMDL
MODEL 3
REMARK VINA RESULT: -8.110120739      2.520      5.618
REMARK  6 active torsions:
REMARK  status: ('A' for Active; 'I' for Inactive)
REMARK    1  A    between atoms: C4_4  and  C5_5 
REMARK    2  A    between atoms: C6_6  and  C7_7 
REMARK    3  A    between atoms: C7_7  and  C10_10 
REMARK    4  A    between atoms: C12_12  and  N1_13 
REMARK    5  A    between atoms: C14_17  and  N2_18 
REMARK    6  A    between atoms: C15_21  and  O5_22 
ROOT
HETATM    1  C10 UNL     1      27.000  50.788  -0.565  1.00  0.00    -0.008 A 
HETATM    2  C11 UNL     1      26.634  49.803   0.324  1.00  0.00     0.047 A 
HETATM    3  C12 UNL     1      26.450  50.035   1.688  1.00  0.00     0.106 A 
HETATM    4  C13 UNL     1      26.644  51.308   2.172  1.00  0.00     0.075 A 
HETATM    5  C14 UNL     1      27.018  52.335   1.287  1.00  0.00     0.138 A 
HETATM    6  C15 UNL     1      27.188  52.067  -0.047  1.00  0.00     0.106 A 
ENDROOT
BRANCH   1   7
HETATM    7  C7  UNL     1      27.175  50.474  -1.980  1.00  0.00     0.000 C 
HETATM    8  C8  UNL     1      28.445  51.116  -2.487  1.00  0.00     0.024 C 
HETATM    9  C9  UNL     1      26.058  50.974  -2.864  1.00  0.00     0.024 C 
BRANCH   7  10
HETATM   10  C6  UNL     1      27.300  49.017  -2.244  1.00  0.00    -0.013 C 
HETATM   11  C5  UNL     1      26.400  48.416  -2.970  1.00  0.00    -0.003 C 
BRANCH  11  12
HETATM   12  C4  UNL     1      26.453  46.983  -3.274  1.00  0.00     0.002 C 
HETATM   13  C2  UNL     1      25.829  46.104  -2.530  1.00  0.00    -0.088 C 
HETATM   14  C1  UNL     1      25.917  44.658  -2.887  1.00  0.00     0.043 C 
HETATM   15  C3  UNL     1      25.050  46.555  -1.353  1.00  0.00     0.043 C 
ENDBRANCH  11  12
ENDBRANCH   7  10
ENDBRANCH   1   7
BRANCH   6  16
HETATM   16  O5  UNL     1      27.548  53.025  -0.928  1.00  0.00    -0.358 OA
ATOM     17  H5  UNL     1      28.358  53.487  -0.743  1.00  0.00     0.217 HD
ENDBRANCH   6  16
BRANCH   3  18
HETATM   18  N1  UNL     1      26.073  48.987   2.570  1.00  0.00    -0.116 N 
HETATM   19  O1  UNL     1      25.712  47.876   2.143  1.00  0.00    -0.532 OA
HETATM   20  O2  UNL     1      26.098  49.179   3.927  1.00  0.00    -0.532 OA
ENDBRANCH   3  18
BRANCH   5  21
HETATM   21  N2  UNL     1      27.190  53.601   1.896  1.00  0.00    -0.113 N 
HETATM   22  O3  UNL     1      26.736  53.832   3.053  1.00  0.00    -0.532 OA
HETATM   23  O4  UNL     1      27.844  54.643   1.297  1.00  0.00    -0.532 OA
ENDBRANCH   5  21
TORSDOF 6
ENDMDL
MODEL 4
REMARK VINA RESULT: -8.014478458      0.599      3.332
REMARK  6 active torsions:
REMARK  status: ('A' for Active; 'I' for Inactive)
REMARK    1  A    between atoms: C4_4  and  C5_5 
REMARK    2  A    between atoms: C6_6  and  C7_7 
REMARK    3  A    between atoms: C7_7  and  C10_10 
REMARK    4  A    between atoms: C12_12  and  N1_13 
REMARK    5  A    between atoms: C14_17  and  N2_18 
REMARK    6  A    between atoms: C15_21  and  O5_22 
ROOT
HETATM    1  C10 UNL     1      26.793  51.076  -0.188  1.00  0.00    -0.008 A 
HETATM    2  C11 UNL     1      26.536  49.742   0.028  1.00  0.00     0.047 A 
HETATM    3  C12 UNL     1      26.304  49.204   1.295  1.00  0.00     0.106 A 
HETATM    4  C13 UNL     1      26.334  50.045   2.384  1.00  0.00     0.075 A 
HETATM    5  C14 UNL     1      26.595  51.413   2.192  1.00  0.00     0.138 A 
HETATM    6  C15 UNL     1      26.817  51.904   0.932  1.00  0.00     0.106 A 
ENDROOT
BRANCH   1   7
HETATM    7  C7  UNL     1      27.026  51.572  -1.542  1.00  0.00     0.000 C 
HETATM    8  C8  UNL     1      25.989  50.996  -2.477  1.00  0.00     0.024 C 
HETATM    9  C9  UNL     1      28.373  51.197  -2.112  1.00  0.00     0.024 C 
BRANCH   7  10
HETATM   10  C6  UNL     1      26.921  53.051  -1.648  1.00  0.00    -0.013 C 
HETATM   11  C5  UNL     1      26.141  53.577  -2.550  1.00  0.00    -0.003 C 
BRANCH  11  12
HETATM   12  C4  UNL     1      25.983  55.024  -2.717  1.00  0.00     0.002 C 
HETATM   13  C2  UNL     1      25.645  55.545  -3.870  1.00  0.00    -0.088 C 
HETATM   14  C1  UNL     1      25.498  57.025  -3.983  1.00  0.00     0.043 C 
HETATM   15  C3  UNL     1      25.415  54.663  -5.038  1.00  0.00     0.043 C 
ENDBRANCH  11  12
ENDBRANCH   7  10
ENDBRANCH   1   7
BRANCH   6  16
HETATM   16  O5  UNL     1      27.072  53.211   0.708  1.00  0.00    -0.358 OA
ATOM     17  H5  UNL     1      27.742  53.407   0.063  1.00  0.00     0.217 HD
ENDBRANCH   6  16
BRANCH   3  18
HETATM   18  N1  UNL     1      26.042  47.819   1.471  1.00  0.00    -0.116 N 
HETATM   19  O1  UNL     1      26.446  46.971   0.655  1.00  0.00    -0.532 OA
HETATM   20  O2  UNL     1      25.329  47.381   2.556  1.00  0.00    -0.532 OA
ENDBRANCH   3  18
BRANCH   5  21
HETATM   21  N2  UNL     1      26.603  52.181   3.382  1.00  0.00    -0.113 N 
HETATM   22  O3  UNL     1      26.046  51.754   4.433  1.00  0.00    -0.532 OA
HETATM   23  O4  UNL     1      27.200  53.407   3.483  1.00  0.00    -0.532 OA
ENDBRANCH   5  21
TORSDOF 6
ENDMDL
MODEL 5
REMARK VINA RESULT: -7.927922598      2.835      6.004
REMARK  6 active torsions:
REMARK  status: ('A' for Active; 'I' for Inactive)
REMARK    1  A    between atoms: C4_4  and  C5_5 
REMARK    2  A    between atoms: C6_6  and  C7_7 
REMARK    3  A    between atoms: C7_7  and  C10_10 
REMARK    4  A    between atoms: C12_12  and  N1_13 
REMARK    5  A    between atoms: C14_17  and  N2_18 
REMARK    6  A    between atoms: C15_21  and  O5_22 
ROOT
HETATM    1  C10 UNL     1      27.222  51.632  -1.646  1.00  0.00    -0.008 A 
HETATM    2  C11 UNL     1      27.384  51.726  -0.283  1.00  0.00     0.047 A 
HETATM    3  C12 UNL     1      27.174  52.906   0.432  1.00  0.00     0.106 A 
HETATM    4  C13 UNL     1      26.787  54.033  -0.256  1.00  0.00     0.075 A 
HETATM    5  C14 UNL     1      26.614  53.966  -1.650  1.00  0.00     0.138 A 
HETATM    6  C15 UNL     1      26.829  52.788  -2.316  1.00  0.00     0.106 A 
ENDROOT
BRANCH   1   7
HETATM    7  C7  UNL     1      27.458  50.363  -2.331  1.00  0.00     0.000 C 
HETATM    8  C8  UNL     1      28.852  50.354  -2.912  1.00  0.00     0.024 C 
HETATM    9  C9  UNL     1      26.512  50.096  -3.476  1.00  0.00     0.024 C 
BRANCH   7  10
HETATM   10  C6  UNL     1      27.366  49.187  -1.426  1.00  0.00    -0.013 C 
HETATM   11  C5  UNL     1      26.199  48.678  -1.150  1.00  0.00    -0.003 C 
BRANCH  11  12
HETATM   12  C4  UNL     1      26.025  47.521  -0.269  1.00  0.00     0.002 C 
HETATM   13  C2  UNL     1      25.771  47.667   1.008  1.00  0.00    -0.088 C 
HETATM   14  C1  UNL     1      25.604  46.453   1.859  1.00  0.00     0.043 C 
HETATM   15  C3  UNL     1      25.654  49.027   1.585  1.00  0.00     0.043 C 
ENDBRANCH  11  12
ENDBRANCH   7  10
ENDBRANCH   1   7
BRANCH   6  16
HETATM   16  O5  UNL     1      26.674  52.684  -3.654  1.00  0.00    -0.358 OA
ATOM     17  H5  UNL     1      26.782  51.817  -4.026  1.00  0.00     0.217 HD
ENDBRANCH   6  16
BRANCH   3  18
HETATM   18  N1  UNL     1      27.354  52.957   1.840  1.00  0.00    -0.116 N 
HETATM   19  O1  UNL     1      27.960  52.060   2.452  1.00  0.00    -0.532 OA
HETATM   20  O2  UNL     1      26.857  54.009   2.565  1.00  0.00    -0.532 OA
ENDBRANCH   3  18
BRANCH   5  21
HETATM   21  N2  UNL     1      26.217  55.186  -2.251  1.00  0.00    -0.113 N 
HETATM   22  O3  UNL     1      26.330  56.281  -1.631  1.00  0.00    -0.532 OA
HETATM   23  O4  UNL     1      25.697  55.269  -3.514  1.00  0.00    -0.532 OA
ENDBRANCH   5  21
TORSDOF 6
ENDMDL
