MODEL 1
REMARK VINA RESULT: -7.271695269      0.000      0.000
REMARK  5 active torsions:
REMARK  status: ('A' for Active; 'I' for Inactive)
REMARK    1  A    between atoms: O1_2  and  C2_3 
REMARK    2  A    between atoms: C4_5  and  O2_6 
REMARK    3  A    between atoms: C6_8  and  C7_9 
REMARK    4  A    between atoms: N2_14  and  C10_16 
REMARK    5  A    between atoms: C15_22  and  O4_23 
ROOT
HETATM    1  C2  UNL     1      26.924  52.841   1.664  1.00  0.00     0.104 A 
HETATM    2  C3  UNL     1      26.835  51.486   1.890  1.00  0.00     0.077 A 
HETATM    3  C4  UNL     1      26.932  50.561   0.860  1.00  0.00     0.084 A 
HETATM    4  C6  UNL     1      27.123  51.043  -0.404  1.00  0.00     0.035 A 
HETATM    5  C14 UNL     1      27.218  52.393  -0.659  1.00  0.00     0.057 A 
HETATM    6  C15 UNL     1      27.117  53.283   0.375  1.00  0.00     0.102 A 
ENDROOT
BRANCH   4   7
HETATM    7  C7  UNL     1      27.230  50.087  -1.510  1.00  0.00     0.107 A 
HETATM    8  C8  UNL     1      28.080  50.212  -2.605  1.00  0.00     0.130 A 
HETATM    9  N1  UNL     1      27.842  49.114  -3.359  1.00  0.00    -0.329 N 
HETATM   10  C9  UNL     1      26.903  48.352  -2.767  1.00  0.00     0.225 A 
ATOM     11  H1  UNL     1      28.306  48.896  -4.241  1.00  0.00     0.168 HD
HETATM   12  N2  UNL     1      26.465  47.248  -3.238  1.00  0.00    -0.348 N 
HETATM   13  O3  UNL     1      26.561  48.969  -1.661  1.00  0.00    -0.277 OA
ATOM     14  H2  UNL     1      26.865  46.936  -4.123  1.00  0.00     0.163 HD
BRANCH  12  15
HETATM   15  C10 UNL     1      25.477  46.410  -2.654  1.00  0.00     0.022 C 
HETATM   16  C11 UNL     1      25.709  44.992  -3.157  1.00  0.00     0.037 C 
HETATM   17  C12 UNL     1      25.526  46.354  -1.149  1.00  0.00     0.037 C 
HETATM   18  C13 UNL     1      24.109  46.911  -3.064  1.00  0.00     0.037 C 
ENDBRANCH  12  15
ENDBRANCH   4   7
BRANCH   3  19
HETATM   19  O2  UNL     1      26.834  49.194   1.138  1.00  0.00    -0.355 OA
HETATM   20  C5  UNL     1      25.798  48.694   1.950  1.00  0.00     0.210 C 
ENDBRANCH   3  19
BRANCH   6  21
HETATM   21  O4  UNL     1      27.208  54.644   0.146  1.00  0.00    -0.353 OA
HETATM   22  C16 UNL     1      26.498  55.237  -0.913  1.00  0.00     0.210 C 
ENDBRANCH   6  21
BRANCH   1  23
HETATM   23  O1  UNL     1      26.828  53.777   2.684  1.00  0.00    -0.353 OA
HETATM   24  C1  UNL     1      26.804  53.293   4.014  1.00  0.00     0.210 C 
ENDBRANCH   1  23
TORSDOF 5
ENDMDL
MODEL 2
REMARK VINA RESULT: -7.250204971      2.935      4.575
REMARK  5 active torsions:
REMARK  status: ('A' for Active; 'I' for Inactive)
REMARK    1  A    between atoms: O1_2  and  C2_3 
REMARK    2  A    between atoms: C4_5  and  O2_6 
REMARK    3  A    between atoms: C6_8  and  C7_9 
REMARK    4  A    between atoms: N2_14  and  C10_16 
REMARK    5  A    between atoms: C15_22  and  O4_23 
ROOT
HETATM    1  C2  UNL     1      25.682  55.267  -3.523  1.00  0.00     0.104 A 
HETATM    2  C3  UNL     1      26.090  54.973  -2.241  1.00  0.00     0.077 A 
HETATM    3  C4  UNL     1      26.609  53.732  -1.902  1.00  0.00     0.084 A 
HETATM    4  C6  UNL     1      26.706  52.797  -2.893  1.00  0.00     0.035 A 
HETATM    5  C14 UNL     1      26.306  53.064  -4.184  1.00  0.00     0.057 A 
HETATM    6  C15 UNL     1      25.797  54.295  -4.491  1.00  0.00     0.102 A 
ENDROOT
BRANCH   4   7
HETATM    7  C7  UNL     1      27.252  51.478  -2.562  1.00  0.00     0.107 A 
HETATM    8  C8  UNL     1      28.479  50.981  -2.992  1.00  0.00     0.130 A 
HETATM    9  N1  UNL     1      28.565  49.745  -2.449  1.00  0.00    -0.329 N 
HETATM   10  C9  UNL     1      27.459  49.488  -1.726  1.00  0.00     0.225 A 
ATOM     11  H1  UNL     1      29.349  49.104  -2.570  1.00  0.00     0.168 HD
HETATM   12  N2  UNL     1      27.245  48.400  -1.091  1.00  0.00    -0.348 N 
HETATM   13  O3  UNL     1      26.696  50.552  -1.818  1.00  0.00    -0.277 OA
ATOM     14  H2  UNL     1      27.972  47.687  -1.146  1.00  0.00     0.163 HD
BRANCH  12  15
HETATM   15  C10 UNL     1      26.097  48.083  -0.316  1.00  0.00     0.022 C 
HETATM   16  C11 UNL     1      26.496  47.018   0.697  1.00  0.00     0.037 C 
HETATM   17  C12 UNL     1      25.540  49.244   0.466  1.00  0.00     0.037 C 
HETATM   18  C13 UNL     1      25.013  47.571  -1.239  1.00  0.00     0.037 C 
ENDBRANCH  12  15
ENDBRANCH   4   7
BRANCH   3  19
HETATM   19  O2  UNL     1      27.010  53.479  -0.587  1.00  0.00    -0.355 OA
HETATM   20  C5  UNL     1      27.261  54.537   0.309  1.00  0.00     0.210 C 
ENDBRANCH   3  19
BRANCH   6  21
HETATM   21  O4  UNL     1      25.388  54.589  -5.780  1.00  0.00    -0.353 OA
HETATM   22  C16 UNL     1      24.495  53.738  -6.455  1.00  0.00     0.210 C 
ENDBRANCH   6  21
BRANCH   1  23
HETATM   23  O1  UNL     1      25.159  56.503  -3.877  1.00  0.00    -0.353 OA
HETATM   24  C1  UNL     1      25.979  57.640  -3.673  1.00  0.00     0.210 C 
ENDBRANCH   1  23
TORSDOF 5
ENDMDL
MODEL 3
REMARK VINA RESULT: -7.075869984      2.576      4.998
REMARK  5 active torsions:
REMARK  status: ('A' for Active; 'I' for Inactive)
REMARK    1  A    between atoms: O1_2  and  C2_3 
REMARK    2  A    between atoms: C4_5  and  O2_6 
REMARK    3  A    between atoms: C6_8  and  C7_9 
REMARK    4  A    between atoms: N2_14  and  C10_16 
REMARK    5  A    between atoms: C15_22  and  O4_23 
ROOT
HETATM    1  C2  UNL     1      26.406  50.917   2.617  1.00  0.00     0.104 A 
HETATM    2  C3  UNL     1      26.980  52.067   2.124  1.00  0.00     0.077 A 
HETATM    3  C4  UNL     1      27.288  52.216   0.780  1.00  0.00     0.084 A 
HETATM    4  C6  UNL     1      26.999  51.173  -0.053  1.00  0.00     0.035 A 
HETATM    5  C14 UNL     1      26.424  50.011   0.412  1.00  0.00     0.057 A 
HETATM    6  C15 UNL     1      26.132  49.890   1.742  1.00  0.00     0.102 A 
ENDROOT
BRANCH   4   7
HETATM    7  C7  UNL     1      27.314  51.305  -1.479  1.00  0.00     0.107 A 
HETATM    8  C8  UNL     1      28.230  50.526  -2.178  1.00  0.00     0.130 A 
HETATM    9  N1  UNL     1      28.193  50.996  -3.447  1.00  0.00    -0.329 N 
HETATM   10  C9  UNL     1      27.306  52.006  -3.530  1.00  0.00     0.225 A 
ATOM     11  H1  UNL     1      28.751  50.639  -4.222  1.00  0.00     0.168 HD
HETATM   12  N2  UNL     1      27.047  52.655  -4.600  1.00  0.00    -0.348 N 
HETATM   13  O3  UNL     1      26.800  52.161  -2.329  1.00  0.00    -0.277 OA
ATOM     14  H2  UNL     1      27.554  52.375  -5.439  1.00  0.00     0.163 HD
BRANCH  12  15
HETATM   15  C10 UNL     1      26.123  53.725  -4.738  1.00  0.00     0.022 C 
HETATM   16  C11 UNL     1      24.767  53.130  -5.095  1.00  0.00     0.037 C 
HETATM   17  C12 UNL     1      25.928  54.538  -3.486  1.00  0.00     0.037 C 
HETATM   18  C13 UNL     1      26.610  54.651  -5.832  1.00  0.00     0.037 C 
ENDBRANCH  12  15
ENDBRANCH   4   7
BRANCH   3  19
HETATM   19  O2  UNL     1      27.872  53.403   0.325  1.00  0.00    -0.355 OA
HETATM   20  C5  UNL     1      27.107  54.577   0.185  1.00  0.00     0.210 C 
ENDBRANCH   3  19
BRANCH   6  21
HETATM   21  O4  UNL     1      25.554  48.733   2.235  1.00  0.00    -0.353 OA
HETATM   22  C16 UNL     1      25.766  47.501   1.592  1.00  0.00     0.210 C 
ENDBRANCH   6  21
BRANCH   1  23
HETATM   23  O1  UNL     1      26.093  50.752   3.959  1.00  0.00    -0.353 OA
HETATM   24  C1  UNL     1      25.854  51.922   4.721  1.00  0.00     0.210 C 
ENDBRANCH   1  23
TORSDOF 5
ENDMDL
MODEL 4
REMARK VINA RESULT: -6.964643609      3.608      6.141
REMARK  5 active torsions:
REMARK  status: ('A' for Active; 'I' for Inactive)
REMARK    1  A    between atoms: O1_2  and  C2_3 
REMARK    2  A    between atoms: C4_5  and  O2_6 
REMARK    3  A    between atoms: C6_8  and  C7_9 
REMARK    4  A    between atoms: N2_14  and  C10_16 
REMARK    5  A    between atoms: C15_22  and  O4_23 
ROOT
HETATM    1  C2  UNL     1      26.472  53.223  -4.642  1.00  0.00     0.104 A 
HETATM    2  C3  UNL     1      27.150  52.231  -3.971  1.00  0.00     0.077 A 
HETATM    3  C4  UNL     1      27.333  52.267  -2.596  1.00  0.00     0.084 A 
HETATM    4  C6  UNL     1      26.812  53.333  -1.918  1.00  0.00     0.035 A 
HETATM    5  C14 UNL     1      26.128  54.339  -2.564  1.00  0.00     0.057 A 
HETATM    6  C15 UNL     1      25.963  54.278  -3.921  1.00  0.00     0.102 A 
ENDROOT
BRANCH   4   7
HETATM    7  C7  UNL     1      26.990  53.395  -0.465  1.00  0.00     0.107 A 
HETATM    8  C8  UNL     1      27.337  54.533   0.257  1.00  0.00     0.130 A 
HETATM    9  N1  UNL     1      27.387  54.127   1.547  1.00  0.00    -0.329 N 
HETATM   10  C9  UNL     1      27.090  52.816   1.621  1.00  0.00     0.225 A 
ATOM     11  H1  UNL     1      27.616  54.723   2.342  1.00  0.00     0.168 HD
HETATM   12  N2  UNL     1      27.054  52.142   2.707  1.00  0.00    -0.348 N 
HETATM   13  O3  UNL     1      26.857  52.413   0.394  1.00  0.00    -0.277 OA
ATOM     14  H2  UNL     1      27.269  52.647   3.567  1.00  0.00     0.163 HD
BRANCH  12  15
HETATM   15  C10 UNL     1      26.746  50.761   2.837  1.00  0.00     0.022 C 
HETATM   16  C11 UNL     1      25.955  50.577   4.125  1.00  0.00     0.037 C 
HETATM   17  C12 UNL     1      25.900  50.209   1.721  1.00  0.00     0.037 C 
HETATM   18  C13 UNL     1      28.039  49.976   2.882  1.00  0.00     0.037 C 
ENDBRANCH  12  15
ENDBRANCH   4   7
BRANCH   3  19
HETATM   19  O2  UNL     1      28.029  51.236  -1.957  1.00  0.00    -0.355 OA
HETATM   20  C5  UNL     1      28.691  50.241  -2.701  1.00  0.00     0.210 C 
ENDBRANCH   3  19
BRANCH   6  21
HETATM   21  O4  UNL     1      25.281  55.277  -4.594  1.00  0.00    -0.353 OA
HETATM   22  C16 UNL     1      25.438  56.623  -4.220  1.00  0.00     0.210 C 
ENDBRANCH   6  21
BRANCH   1  23
HETATM   23  O1  UNL     1      26.282  53.200  -6.017  1.00  0.00    -0.353 OA
HETATM   24  C1  UNL     1      26.085  51.938  -6.628  1.00  0.00     0.210 C 
ENDBRANCH   1  23
TORSDOF 5
ENDMDL
MODEL 5
REMARK VINA RESULT: -6.907562038      2.983      5.124
REMARK  5 active torsions:
REMARK  status: ('A' for Active; 'I' for Inactive)
REMARK    1  A    between atoms: O1_2  and  C2_3 
REMARK    2  A    between atoms: C4_5  and  O2_6 
REMARK    3  A    between atoms: C6_8  and  C7_9 
REMARK    4  A    between atoms: N2_14  and  C10_16 
REMARK    5  A    between atoms: C15_22  and  O4_23 
ROOT
HETATM    1  C2  UNL     1      27.387  51.768   1.417  1.00  0.00     0.104 A 
HETATM    2  C3  UNL     1      27.406  52.809   0.516  1.00  0.00     0.077 A 
HETATM    3  C4  UNL     1      26.981  52.653  -0.796  1.00  0.00     0.084 A 
HETATM    4  C6  UNL     1      26.536  51.418  -1.172  1.00  0.00     0.035 A 
HETATM    5  C14 UNL     1      26.505  50.359  -0.292  1.00  0.00     0.057 A 
HETATM    6  C15 UNL     1      26.930  50.540   0.996  1.00  0.00     0.102 A 
ENDROOT
BRANCH   4   7
HETATM    7  C7  UNL     1      26.081  51.226  -2.552  1.00  0.00     0.107 A 
HETATM    8  C8  UNL     1      25.554  50.048  -3.072  1.00  0.00     0.130 A 
HETATM    9  N1  UNL     1      25.276  50.330  -4.366  1.00  0.00    -0.329 N 
HETATM   10  C9  UNL     1      25.609  51.607  -4.633  1.00  0.00     0.225 A 
ATOM     11  H1  UNL     1      24.874  49.675  -5.036  1.00  0.00     0.168 HD
HETATM   12  N2  UNL     1      25.465  52.169  -5.772  1.00  0.00    -0.348 N 
HETATM   13  O3  UNL     1      26.088  52.111  -3.520  1.00  0.00    -0.277 OA
ATOM     14  H2  UNL     1      25.068  51.598  -6.518  1.00  0.00     0.163 HD
BRANCH  12  15
HETATM   15  C10 UNL     1      25.800  53.510  -6.103  1.00  0.00     0.022 C 
HETATM   16  C11 UNL     1      25.192  53.822  -7.464  1.00  0.00     0.037 C 
HETATM   17  C12 UNL     1      25.266  54.536  -5.139  1.00  0.00     0.037 C 
HETATM   18  C13 UNL     1      27.308  53.639  -6.144  1.00  0.00     0.037 C 
ENDBRANCH  12  15
ENDBRANCH   4   7
BRANCH   3  19
HETATM   19  O2  UNL     1      27.020  53.739  -1.676  1.00  0.00    -0.355 OA
HETATM   20  C5  UNL     1      26.344  54.937  -1.375  1.00  0.00     0.210 C 
ENDBRANCH   3  19
BRANCH   6  21
HETATM   21  O4  UNL     1      26.909  49.492   1.900  1.00  0.00    -0.353 OA
HETATM   22  C16 UNL     1      25.693  49.056   2.456  1.00  0.00     0.210 C 
ENDBRANCH   6  21
BRANCH   1  23
HETATM   23  O1  UNL     1      27.809  51.908   2.731  1.00  0.00    -0.353 OA
HETATM   24  C1  UNL     1      27.003  52.689   3.595  1.00  0.00     0.210 C 
ENDBRANCH   1  23
TORSDOF 5
ENDMDL
