MODEL 1
REMARK VINA RESULT: -7.491042969      0.000      0.000
REMARK  2 active torsions:
REMARK  status: ('A' for Active; 'I' for Inactive)
REMARK    1  A    between atoms: C14_14  and  O1_15 
REMARK    2  A    between atoms: C15_17  and  O2_18 
ROOT
HETATM    1  C1  UNL     1      11.810  -2.834   9.860  1.00  0.00     0.016 C 
HETATM    2  C2  UNL     1      12.492  -2.947  11.240  1.00  0.00    -0.036 C 
HETATM    3  C3  UNL     1      12.313  -1.622  11.938  1.00  0.00     0.010 C 
HETATM    4  C4  UNL     1      11.263  -2.268  12.811  1.00  0.00     0.006 C 
HETATM    5  C5  UNL     1      11.647  -3.622  12.231  1.00  0.00    -0.006 C 
HETATM    6  C6  UNL     1      12.314  -4.507  13.213  1.00  0.00     0.006 C 
HETATM    7  C7  UNL     1      13.642  -5.037  12.850  1.00  0.00     0.013 C 
HETATM    8  C8  UNL     1      14.575  -4.059  12.178  1.00  0.00    -0.006 C 
HETATM    9  C9  UNL     1      15.004  -3.084  13.241  1.00  0.00     0.019 C 
HETATM   10  C10 UNL     1      13.858  -3.442  11.031  1.00  0.00     0.005 C 
HETATM   11  C11 UNL     1      14.700  -2.325  10.433  1.00  0.00     0.007 C 
HETATM   12  C12 UNL     1      16.084  -2.770  10.149  1.00  0.00     0.011 C 
HETATM   13  C13 UNL     1      16.427  -4.162  10.483  1.00  0.00     0.055 A 
HETATM   14  C14 UNL     1      17.150  -4.375  11.835  1.00  0.00     0.160 A 
HETATM   15  C15 UNL     1      15.781  -4.777  11.651  1.00  0.00     0.098 A 
ENDROOT
BRANCH  14  16
HETATM   16  O1  UNL     1      17.605  -3.214  12.433  1.00  0.00    -0.392 OA
ATOM     17  H1  UNL     1      17.196  -2.418  12.114  1.00  0.00     0.210 HD
ENDBRANCH  14  16
BRANCH  15  18
HETATM   18  O2  UNL     1      15.575  -6.177  11.507  1.00  0.00    -0.386 OA
ATOM     19  H2  UNL     1      14.662  -6.407  11.380  1.00  0.00     0.210 HD
ENDBRANCH  15  18
TORSDOF 2
ENDMDL
MODEL 2
REMARK VINA RESULT: -6.996582091      1.935      3.877
REMARK  2 active torsions:
REMARK  status: ('A' for Active; 'I' for Inactive)
REMARK    1  A    between atoms: C14_14  and  O1_15 
REMARK    2  A    between atoms: C15_17  and  O2_18 
ROOT
HETATM    1  C1  UNL     1      10.763  -2.662  13.311  1.00  0.00     0.016 C 
HETATM    2  C2  UNL     1      12.055  -3.244  12.699  1.00  0.00    -0.036 C 
HETATM    3  C3  UNL     1      11.670  -3.941  11.419  1.00  0.00     0.010 C 
HETATM    4  C4  UNL     1      12.264  -2.782  10.654  1.00  0.00     0.006 C 
HETATM    5  C5  UNL     1      12.828  -2.240  11.960  1.00  0.00    -0.006 C 
HETATM    6  C6  UNL     1      14.305  -2.320  12.032  1.00  0.00     0.006 C 
HETATM    7  C7  UNL     1      14.885  -3.040  13.182  1.00  0.00     0.013 C 
HETATM    8  C8  UNL     1      14.186  -4.318  13.574  1.00  0.00    -0.006 C 
HETATM    9  C9  UNL     1      14.500  -5.322  12.497  1.00  0.00     0.019 C 
HETATM   10  C10 UNL     1      12.737  -4.026  13.738  1.00  0.00     0.005 C 
HETATM   11  C11 UNL     1      11.969  -5.320  13.962  1.00  0.00     0.007 C 
HETATM   12  C12 UNL     1      12.574  -6.142  15.036  1.00  0.00     0.011 C 
HETATM   13  C13 UNL     1      13.782  -5.612  15.690  1.00  0.00     0.055 A 
HETATM   14  C14 UNL     1      15.131  -6.165  15.169  1.00  0.00     0.160 A 
HETATM   15  C15 UNL     1      14.718  -4.816  14.884  1.00  0.00     0.098 A 
ENDROOT
BRANCH  14  16
HETATM   16  O1  UNL     1      15.020  -7.264  14.338  1.00  0.00    -0.392 OA
ATOM     17  H1  UNL     1      15.340  -7.125  13.454  1.00  0.00     0.210 HD
ENDBRANCH  14  16
BRANCH  15  18
HETATM   18  O2  UNL     1      15.386  -3.807  15.632  1.00  0.00    -0.386 OA
ATOM     19  H2  UNL     1      15.940  -3.253  15.095  1.00  0.00     0.210 HD
ENDBRANCH  15  18
TORSDOF 2
ENDMDL
MODEL 3
REMARK VINA RESULT: -6.694201237      2.211      4.616
REMARK  2 active torsions:
REMARK  status: ('A' for Active; 'I' for Inactive)
REMARK    1  A    between atoms: C14_14  and  O1_15 
REMARK    2  A    between atoms: C15_17  and  O2_18 
ROOT
HETATM    1  C1  UNL     1      16.206  -5.578  11.078  1.00  0.00     0.016 C 
HETATM    2  C2  UNL     1      15.734  -4.135  11.349  1.00  0.00    -0.036 C 
HETATM    3  C3  UNL     1      16.665  -3.545  12.378  1.00  0.00     0.010 C 
HETATM    4  C4  UNL     1      17.311  -2.739  11.275  1.00  0.00     0.006 C 
HETATM    5  C5  UNL     1      16.205  -3.189  10.331  1.00  0.00    -0.006 C 
HETATM    6  C6  UNL     1      15.293  -2.092   9.938  1.00  0.00     0.006 C 
HETATM    7  C7  UNL     1      13.852  -2.288  10.194  1.00  0.00     0.013 C 
HETATM    8  C8  UNL     1      13.505  -2.926  11.516  1.00  0.00    -0.006 C 
HETATM    9  C9  UNL     1      13.783  -1.892  12.574  1.00  0.00     0.019 C 
HETATM   10  C10 UNL     1      14.299  -4.176  11.654  1.00  0.00     0.005 C 
HETATM   11  C11 UNL     1      14.110  -4.760  13.047  1.00  0.00     0.007 C 
HETATM   12  C12 UNL     1      12.677  -4.878  13.405  1.00  0.00     0.011 C 
HETATM   13  C13 UNL     1      11.693  -4.422  12.409  1.00  0.00     0.055 A 
HETATM   14  C14 UNL     1      11.131  -2.995  12.617  1.00  0.00     0.160 A 
HETATM   15  C15 UNL     1      12.050  -3.286  11.547  1.00  0.00     0.098 A 
ENDROOT
BRANCH  14  16
HETATM   16  O1  UNL     1      11.431  -2.431  13.843  1.00  0.00    -0.392 OA
ATOM     17  H1  UNL     1      11.502  -1.484  13.836  1.00  0.00     0.210 HD
ENDBRANCH  14  16
BRANCH  15  18
HETATM   18  O2  UNL     1      11.467  -3.358  10.252  1.00  0.00    -0.386 OA
ATOM     19  H2  UNL     1      12.053  -3.727   9.602  1.00  0.00     0.210 HD
ENDBRANCH  15  18
TORSDOF 2
ENDMDL
MODEL 4
REMARK VINA RESULT: -6.644241935      1.601      2.614
REMARK  2 active torsions:
REMARK  status: ('A' for Active; 'I' for Inactive)
REMARK    1  A    between atoms: C14_14  and  O1_15 
REMARK    2  A    between atoms: C15_17  and  O2_18 
ROOT
HETATM    1  C1  UNL     1      11.733  -4.486  12.774  1.00  0.00     0.016 C 
HETATM    2  C2  UNL     1      13.035  -5.098  13.331  1.00  0.00    -0.036 C 
HETATM    3  C3  UNL     1      13.126  -4.709  14.785  1.00  0.00     0.010 C 
HETATM    4  C4  UNL     1      12.737  -6.123  15.148  1.00  0.00     0.006 C 
HETATM    5  C5  UNL     1      12.884  -6.514  13.684  1.00  0.00    -0.006 C 
HETATM    6  C6  UNL     1      14.035  -7.411  13.435  1.00  0.00     0.006 C 
HETATM    7  C7  UNL     1      15.027  -6.972  12.434  1.00  0.00     0.013 C 
HETATM    8  C8  UNL     1      15.392  -5.508  12.473  1.00  0.00    -0.006 C 
HETATM    9  C9  UNL     1      16.220  -5.310  13.714  1.00  0.00     0.019 C 
HETATM   10  C10 UNL     1      14.135  -4.713  12.439  1.00  0.00     0.005 C 
HETATM   11  C11 UNL     1      14.448  -3.239  12.652  1.00  0.00     0.007 C 
HETATM   12  C12 UNL     1      15.520  -2.767  11.746  1.00  0.00     0.011 C 
HETATM   13  C13 UNL     1      16.106  -3.753  10.823  1.00  0.00     0.055 A 
HETATM   14  C14 UNL     1      17.438  -4.398  11.278  1.00  0.00     0.160 A 
HETATM   15  C15 UNL     1      16.210  -5.149  11.270  1.00  0.00     0.098 A 
ENDROOT
BRANCH  14  16
HETATM   16  O1  UNL     1      18.033  -3.785  12.365  1.00  0.00    -0.392 OA
ATOM     17  H1  UNL     1      17.889  -2.847  12.417  1.00  0.00     0.210 HD
ENDBRANCH  14  16
BRANCH  15  18
HETATM   18  O2  UNL     1      16.083  -6.089  10.210  1.00  0.00    -0.386 OA
ATOM     19  H2  UNL     1      15.220  -6.087   9.815  1.00  0.00     0.210 HD
ENDBRANCH  15  18
TORSDOF 2
ENDMDL
MODEL 5
REMARK VINA RESULT: -6.619896447      1.972      4.282
REMARK  2 active torsions:
REMARK  status: ('A' for Active; 'I' for Inactive)
REMARK    1  A    between atoms: C14_14  and  O1_15 
REMARK    2  A    between atoms: C15_17  and  O2_18 
ROOT
HETATM    1  C1  UNL     1      14.811  -1.514  10.489  1.00  0.00     0.016 C 
HETATM    2  C2  UNL     1      15.233  -2.834  11.168  1.00  0.00    -0.036 C 
HETATM    3  C3  UNL     1      15.532  -3.826  10.072  1.00  0.00     0.010 C 
HETATM    4  C4  UNL     1      17.004  -3.635  10.355  1.00  0.00     0.006 C 
HETATM    5  C5  UNL     1      16.638  -2.825  11.590  1.00  0.00    -0.006 C 
HETATM    6  C6  UNL     1      16.979  -3.511  12.857  1.00  0.00     0.006 C 
HETATM    7  C7  UNL     1      15.887  -3.711  13.830  1.00  0.00     0.013 C 
HETATM    8  C8  UNL     1      14.561  -4.133  13.246  1.00  0.00    -0.006 C 
HETATM    9  C9  UNL     1      14.728  -5.560  12.797  1.00  0.00     0.019 C 
HETATM   10  C10 UNL     1      14.207  -3.183  12.158  1.00  0.00     0.005 C 
HETATM   11  C11 UNL     1      12.964  -3.670  11.427  1.00  0.00     0.007 C 
HETATM   12  C12 UNL     1      11.865  -3.995  12.366  1.00  0.00     0.011 C 
HETATM   13  C13 UNL     1      12.131  -3.817  13.803  1.00  0.00     0.055 A 
HETATM   14  C14 UNL     1      12.526  -5.095  14.582  1.00  0.00     0.160 A 
HETATM   15  C15 UNL     1      13.493  -4.067  14.296  1.00  0.00     0.098 A 
ENDROOT
BRANCH  14  16
HETATM   16  O1  UNL     1      12.334  -6.274  13.888  1.00  0.00    -0.392 OA
ATOM     17  H1  UNL     1      13.134  -6.710  13.618  1.00  0.00     0.210 HD
ENDBRANCH  14  16
BRANCH  15  18
HETATM   18  O2  UNL     1      13.850  -3.247  15.402  1.00  0.00    -0.386 OA
ATOM     19  H2  UNL     1      13.842  -2.320  15.194  1.00  0.00     0.210 HD
ENDBRANCH  15  18
TORSDOF 2
ENDMDL
