MODEL 1
REMARK VINA RESULT: -6.911089904      0.000      0.000
REMARK  3 active torsions:
REMARK  status: ('A' for Active; 'I' for Inactive)
REMARK    1  A    between atoms: C2_2  and  C4_4 
REMARK    2  A    between atoms: C6_6  and  O1_7 
REMARK    3  A    between atoms: C10_12  and  O2_13 
ROOT
HETATM    1  C4  UNL     1      13.132  -2.859  12.115  1.00  0.00    -0.000 C 
HETATM    2  C5  UNL     1      11.993  -3.849  11.992  1.00  0.00     0.037 C 
HETATM    3  C6  UNL     1      11.803  -4.691  13.218  1.00  0.00     0.118 C 
HETATM    4  C7  UNL     1      13.180  -4.832  13.881  1.00  0.00     0.037 C 
HETATM    5  C8  UNL     1      14.151  -4.943  12.710  1.00  0.00    -0.001 C 
HETATM    6  C9  UNL     1      15.348  -5.730  13.067  1.00  0.00     0.037 C 
HETATM    7  C10 UNL     1      16.442  -5.000  13.751  1.00  0.00     0.118 C 
HETATM    8  C11 UNL     1      16.109  -3.614  14.193  1.00  0.00     0.032 C 
HETATM    9  C12 UNL     1      15.359  -2.785  13.215  1.00  0.00     0.012 C 
HETATM   10  C13 UNL     1      14.469  -3.538  12.257  1.00  0.00    -0.036 C 
HETATM   11  C14 UNL     1      15.244  -3.650  10.963  1.00  0.00     0.016 C 
ENDROOT
BRANCH   1  12
HETATM   12  C2  UNL     1      13.016  -1.926  10.935  1.00  0.00    -0.018 C 
HETATM   13  C1  UNL     1      11.953  -2.462   9.954  1.00  0.00     0.010 C 
HETATM   14  C3  UNL     1      12.534  -0.542  11.303  1.00  0.00     0.010 C 
ENDBRANCH   1  12
BRANCH   3  15
HETATM   15  O1  UNL     1      10.858  -4.222  14.087  1.00  0.00    -0.396 OA
ATOM     16  H1  UNL     1      11.206  -3.893  14.908  1.00  0.00     0.210 HD
ENDBRANCH   3  15
BRANCH   7  17
HETATM   17  O2  UNL     1      16.855  -5.755  14.851  1.00  0.00    -0.396 OA
ATOM     18  H2  UNL     1      16.549  -6.646  14.735  1.00  0.00     0.210 HD
ENDBRANCH   7  17
TORSDOF 3
ENDMDL
MODEL 2
REMARK VINA RESULT: -6.771865623      2.080      2.962
REMARK  3 active torsions:
REMARK  status: ('A' for Active; 'I' for Inactive)
REMARK    1  A    between atoms: C2_2  and  C4_4 
REMARK    2  A    between atoms: C6_6  and  O1_7 
REMARK    3  A    between atoms: C10_12  and  O2_13 
ROOT
HETATM    1  C4  UNL     1      15.687  -2.311  10.796  1.00  0.00    -0.000 C 
HETATM    2  C5  UNL     1      14.279  -2.169  10.260  1.00  0.00     0.037 C 
HETATM    3  C6  UNL     1      13.231  -2.173  11.334  1.00  0.00     0.118 C 
HETATM    4  C7  UNL     1      13.777  -3.024  12.488  1.00  0.00     0.037 C 
HETATM    5  C8  UNL     1      14.531  -4.156  11.796  1.00  0.00    -0.001 C 
HETATM    6  C9  UNL     1      14.540  -5.384  12.614  1.00  0.00     0.037 C 
HETATM    7  C10 UNL     1      15.591  -5.480  13.655  1.00  0.00     0.118 C 
HETATM    8  C11 UNL     1      16.371  -4.229  13.896  1.00  0.00     0.032 C 
HETATM    9  C12 UNL     1      16.798  -3.489  12.681  1.00  0.00     0.012 C 
HETATM   10  C13 UNL     1      15.912  -3.640  11.469  1.00  0.00    -0.036 C 
HETATM   11  C14 UNL     1      16.578  -4.672  10.588  1.00  0.00     0.016 C 
ENDROOT
BRANCH   1  12
HETATM   12  C2  UNL     1      16.615  -2.019   9.643  1.00  0.00    -0.018 C 
HETATM   13  C1  UNL     1      16.020  -0.892   8.774  1.00  0.00     0.010 C 
HETATM   14  C3  UNL     1      17.967  -1.497  10.073  1.00  0.00     0.010 C 
ENDBRANCH   1  12
BRANCH   3  15
HETATM   15  O1  UNL     1      12.840  -0.930  11.749  1.00  0.00    -0.396 OA
ATOM     16  H1  UNL     1      11.915  -0.747  11.628  1.00  0.00     0.210 HD
ENDBRANCH   3  15
BRANCH   7  17
HETATM   17  O2  UNL     1      14.995  -5.896  14.847  1.00  0.00    -0.396 OA
ATOM     18  H2  UNL     1      14.937  -5.149  15.430  1.00  0.00     0.210 HD
ENDBRANCH   7  17
TORSDOF 3
ENDMDL
MODEL 3
REMARK VINA RESULT: -6.713010757      1.843      2.875
REMARK  3 active torsions:
REMARK  status: ('A' for Active; 'I' for Inactive)
REMARK    1  A    between atoms: C2_2  and  C4_4 
REMARK    2  A    between atoms: C6_6  and  O1_7 
REMARK    3  A    between atoms: C10_12  and  O2_13 
ROOT
HETATM    1  C4  UNL     1      14.773  -3.472  11.980  1.00  0.00    -0.000 C 
HETATM    2  C5  UNL     1      13.522  -3.169  11.183  1.00  0.00     0.037 C 
HETATM    3  C6  UNL     1      12.321  -2.898  12.042  1.00  0.00     0.118 C 
HETATM    4  C7  UNL     1      12.509  -3.699  13.337  1.00  0.00     0.037 C 
HETATM    5  C8  UNL     1      13.164  -5.000  12.883  1.00  0.00    -0.001 C 
HETATM    6  C9  UNL     1      12.823  -6.123  13.779  1.00  0.00     0.037 C 
HETATM    7  C10 UNL     1      13.649  -6.271  15.000  1.00  0.00     0.118 C 
HETATM    8  C11 UNL     1      14.579  -5.139  15.287  1.00  0.00     0.032 C 
HETATM    9  C12 UNL     1      15.328  -4.605  14.121  1.00  0.00     0.012 C 
HETATM   10  C13 UNL     1      14.648  -4.742  12.780  1.00  0.00    -0.036 C 
HETATM   11  C14 UNL     1      15.268  -5.952  12.117  1.00  0.00     0.016 C 
ENDROOT
BRANCH   1  12
HETATM   12  C2  UNL     1      15.919  -3.450  11.000  1.00  0.00    -0.018 C 
HETATM   13  C1  UNL     1      15.572  -2.520   9.818  1.00  0.00     0.010 C 
HETATM   14  C3  UNL     1      17.194  -2.877  11.574  1.00  0.00     0.010 C 
ENDBRANCH   1  12
BRANCH   3  15
HETATM   15  O1  UNL     1      12.085  -1.573  12.283  1.00  0.00    -0.396 OA
ATOM     16  H1  UNL     1      11.755  -1.385  13.155  1.00  0.00     0.210 HD
ENDBRANCH   3  15
BRANCH   7  17
HETATM   17  O2  UNL     1      12.797  -6.463  16.089  1.00  0.00    -0.396 OA
ATOM     18  H2  UNL     1      12.223  -7.195  15.895  1.00  0.00     0.210 HD
ENDBRANCH   7  17
TORSDOF 3
ENDMDL
MODEL 4
REMARK VINA RESULT: -6.627180282      3.383      5.184
REMARK  3 active torsions:
REMARK  status: ('A' for Active; 'I' for Inactive)
REMARK    1  A    between atoms: C2_2  and  C4_4 
REMARK    2  A    between atoms: C6_6  and  O1_7 
REMARK    3  A    between atoms: C10_12  and  O2_13 
ROOT
HETATM    1  C4  UNL     1      17.272  -1.984  10.180  1.00  0.00    -0.000 C 
HETATM    2  C5  UNL     1      16.736  -1.412   8.886  1.00  0.00     0.037 C 
HETATM    3  C6  UNL     1      15.512  -0.563   9.072  1.00  0.00     0.118 C 
HETATM    4  C7  UNL     1      14.775  -1.108  10.302  1.00  0.00     0.037 C 
HETATM    5  C8  UNL     1      14.962  -2.619  10.214  1.00  0.00    -0.001 C 
HETATM    6  C9  UNL     1      13.840  -3.345  10.842  1.00  0.00     0.037 C 
HETATM    7  C10 UNL     1      13.915  -3.540  12.310  1.00  0.00     0.118 C 
HETATM    8  C11 UNL     1      15.003  -2.787  13.002  1.00  0.00     0.032 C 
HETATM    9  C12 UNL     1      16.327  -2.799  12.330  1.00  0.00     0.012 C 
HETATM   10  C13 UNL     1      16.304  -2.940  10.827  1.00  0.00    -0.036 C 
HETATM   11  C14 UNL     1      16.591  -4.397  10.538  1.00  0.00     0.016 C 
ENDROOT
BRANCH   1  12
HETATM   12  C2  UNL     1      18.625  -2.569   9.861  1.00  0.00    -0.018 C 
HETATM   13  C1  UNL     1      19.294  -1.745   8.741  1.00  0.00     0.010 C 
HETATM   14  C3  UNL     1      19.598  -2.506  11.016  1.00  0.00     0.010 C 
ENDBRANCH   1  12
BRANCH   3  15
HETATM   15  O1  UNL     1      15.762   0.777   9.171  1.00  0.00    -0.396 OA
ATOM     16  H1  UNL     1      15.341   1.203   9.910  1.00  0.00     0.210 HD
ENDBRANCH   3  15
BRANCH   7  17
HETATM   17  O2  UNL     1      12.681  -3.194  12.864  1.00  0.00    -0.396 OA
ATOM     18  H2  UNL     1      12.745  -3.271  13.808  1.00  0.00     0.210 HD
ENDBRANCH   7  17
TORSDOF 3
ENDMDL
MODEL 5
REMARK VINA RESULT: -6.532520995      2.181      3.627
REMARK  3 active torsions:
REMARK  status: ('A' for Active; 'I' for Inactive)
REMARK    1  A    between atoms: C2_2  and  C4_4 
REMARK    2  A    between atoms: C6_6  and  O1_7 
REMARK    3  A    between atoms: C10_12  and  O2_13 
ROOT
HETATM    1  C4  UNL     1      13.355  -4.066  12.389  1.00  0.00    -0.000 C 
HETATM    2  C5  UNL     1      12.933  -2.626  12.192  1.00  0.00     0.037 C 
HETATM    3  C6  UNL     1      13.418  -2.035  10.901  1.00  0.00     0.118 C 
HETATM    4  C7  UNL     1      14.732  -2.746  10.551  1.00  0.00     0.037 C 
HETATM    5  C8  UNL     1      15.418  -2.952  11.898  1.00  0.00    -0.001 C 
HETATM    6  C9  UNL     1      16.888  -2.976  11.762  1.00  0.00     0.037 C 
HETATM    7  C10 UNL     1      17.499  -4.273  11.385  1.00  0.00     0.118 C 
HETATM    8  C11 UNL     1      16.537  -5.338  10.973  1.00  0.00     0.032 C 
HETATM    9  C12 UNL     1      15.321  -5.473  11.814  1.00  0.00     0.012 C 
HETATM   10  C13 UNL     1      14.850  -4.215  12.501  1.00  0.00    -0.036 C 
HETATM   11  C14 UNL     1      15.356  -4.298  13.923  1.00  0.00     0.016 C 
ENDROOT
BRANCH   1  12
HETATM   12  C2  UNL     1      12.576  -4.582  13.573  1.00  0.00    -0.018 C 
HETATM   13  C1  UNL     1      11.248  -3.805  13.696  1.00  0.00     0.010 C 
HETATM   14  C3  UNL     1      12.160  -6.029  13.439  1.00  0.00     0.010 C 
ENDBRANCH   1  12
BRANCH   3  15
HETATM   15  O1  UNL     1      12.513  -2.089   9.878  1.00  0.00    -0.396 OA
ATOM     16  H1  UNL     1      12.348  -1.255   9.453  1.00  0.00     0.210 HD
ENDBRANCH   3  15
BRANCH   7  17
HETATM   17  O2  UNL     1      18.415  -4.047  10.357  1.00  0.00    -0.396 OA
ATOM     18  H2  UNL     1      18.458  -4.826   9.817  1.00  0.00     0.210 HD
ENDBRANCH   7  17
TORSDOF 3
ENDMDL
