MODEL 1
REMARK VINA RESULT: -6.175286905      0.000      0.000
REMARK  3 active torsions:
REMARK  status: ('A' for Active; 'I' for Inactive)
REMARK    1  A    between atoms: C2_2  and  C4_4 
REMARK    2  A    between atoms: C11_11  and  O1_13 
REMARK    3  A    between atoms: C13_15  and  O2_16 
ROOT
HETATM    1  C4  UNL     1      15.784  -4.132  13.021  1.00  0.00    -0.064 C 
HETATM    2  C5  UNL     1      14.838  -3.245  12.196  1.00  0.00     0.036 C 
HETATM    3  C6  UNL     1      13.407  -3.614  12.268  1.00  0.00     0.009 C 
HETATM    4  C7  UNL     1      13.063  -4.625  13.318  1.00  0.00    -0.013 C 
HETATM    5  C8  UNL     1      11.584  -4.452  13.641  1.00  0.00     0.010 C 
HETATM    6  C9  UNL     1      13.823  -4.375  14.576  1.00  0.00     0.007 C 
HETATM    7  C10 UNL     1      13.611  -5.543  15.504  1.00  0.00     0.046 C 
HETATM    8  C11 UNL     1      14.954  -6.218  15.666  1.00  0.00     0.081 C 
HETATM    9  C12 UNL     1      15.140  -6.780  17.058  1.00  0.00     0.049 C 
HETATM   10  C13 UNL     1      15.864  -5.006  15.449  1.00  0.00     0.165 C 
HETATM   11  C14 UNL     1      15.315  -4.177  14.386  1.00  0.00     0.013 C 
HETATM   12  C15 UNL     1      15.509  -2.701  14.889  1.00  0.00     0.023 C 
ENDROOT
BRANCH   1  13
HETATM   13  C2  UNL     1      16.326  -5.246  12.265  1.00  0.00    -0.068 C 
HETATM   14  C1  UNL     1      17.602  -5.326  11.969  1.00  0.00     0.018 C 
HETATM   15  C3  UNL     1      15.518  -6.436  11.798  1.00  0.00     0.047 C 
ENDBRANCH   1  13
BRANCH  10  16
HETATM   16  O2  UNL     1      17.185  -5.252  15.558  1.00  0.00    -0.391 OA
ATOM     17  H2  UNL     1      17.698  -5.064  14.780  1.00  0.00     0.210 HD
ENDBRANCH  10  16
BRANCH   8  18
HETATM   18  O1  UNL     1      15.051  -7.209  14.761  1.00  0.00    -0.388 OA
ATOM     19  H1  UNL     1      15.928  -7.202  14.394  1.00  0.00     0.210 HD
ENDBRANCH   8  18
TORSDOF 3
ENDMDL
MODEL 2
REMARK VINA RESULT: -6.152978813      1.753      3.389
REMARK  3 active torsions:
REMARK  status: ('A' for Active; 'I' for Inactive)
REMARK    1  A    between atoms: C2_2  and  C4_4 
REMARK    2  A    between atoms: C11_11  and  O1_13 
REMARK    3  A    between atoms: C13_15  and  O2_16 
ROOT
HETATM    1  C4  UNL     1      15.612  -5.049  13.600  1.00  0.00    -0.064 C 
HETATM    2  C5  UNL     1      16.813  -4.587  12.759  1.00  0.00     0.036 C 
HETATM    3  C6  UNL     1      16.473  -3.991  11.448  1.00  0.00     0.009 C 
HETATM    4  C7  UNL     1      15.019  -3.698  11.242  1.00  0.00    -0.013 C 
HETATM    5  C8  UNL     1      14.925  -2.614  10.175  1.00  0.00     0.010 C 
HETATM    6  C9  UNL     1      14.398  -3.152  12.483  1.00  0.00     0.007 C 
HETATM    7  C10 UNL     1      12.905  -3.094  12.287  1.00  0.00     0.046 C 
HETATM    8  C11 UNL     1      12.299  -4.073  13.267  1.00  0.00     0.081 C 
HETATM    9  C12 UNL     1      10.970  -3.590  13.801  1.00  0.00     0.049 C 
HETATM   10  C13 UNL     1      13.371  -4.017  14.359  1.00  0.00     0.165 C 
HETATM   11  C14 UNL     1      14.686  -3.950  13.741  1.00  0.00     0.013 C 
HETATM   12  C15 UNL     1      15.482  -2.907  14.606  1.00  0.00     0.023 C 
ENDROOT
BRANCH   1  13
HETATM   13  C2  UNL     1      15.263  -6.440  13.379  1.00  0.00    -0.068 C 
HETATM   14  C1  UNL     1      15.193  -6.952  12.172  1.00  0.00     0.018 C 
HETATM   15  C3  UNL     1      15.009  -7.443  14.481  1.00  0.00     0.047 C 
ENDBRANCH   1  13
BRANCH  10  16
HETATM   16  O2  UNL     1      13.126  -4.781  15.444  1.00  0.00    -0.391 OA
ATOM     17  H2  UNL     1      13.283  -4.359  16.280  1.00  0.00     0.210 HD
ENDBRANCH  10  16
BRANCH   8  18
HETATM   18  O1  UNL     1      12.136  -5.257  12.648  1.00  0.00    -0.388 OA
ATOM     19  H1  UNL     1      12.991  -5.648  12.507  1.00  0.00     0.210 HD
ENDBRANCH   8  18
TORSDOF 3
ENDMDL
MODEL 3
REMARK VINA RESULT: -6.092203496      2.288      4.384
REMARK  3 active torsions:
REMARK  status: ('A' for Active; 'I' for Inactive)
REMARK    1  A    between atoms: C2_2  and  C4_4 
REMARK    2  A    between atoms: C11_11  and  O1_13 
REMARK    3  A    between atoms: C13_15  and  O2_16 
ROOT
HETATM    1  C4  UNL     1      14.977  -3.584  10.604  1.00  0.00    -0.064 C 
HETATM    2  C5  UNL     1      16.021  -3.318   9.509  1.00  0.00     0.036 C 
HETATM    3  C6  UNL     1      17.252  -2.634   9.964  1.00  0.00     0.009 C 
HETATM    4  C7  UNL     1      17.408  -2.529  11.450  1.00  0.00    -0.013 C 
HETATM    5  C8  UNL     1      18.895  -2.360  11.735  1.00  0.00     0.010 C 
HETATM    6  C9  UNL     1      16.968  -3.783  12.127  1.00  0.00     0.007 C 
HETATM    7  C10 UNL     1      16.931  -3.538  13.613  1.00  0.00     0.046 C 
HETATM    8  C11 UNL     1      15.484  -3.644  14.036  1.00  0.00     0.081 C 
HETATM    9  C12 UNL     1      15.340  -4.246  15.416  1.00  0.00     0.049 C 
HETATM   10  C13 UNL     1      14.990  -4.623  12.967  1.00  0.00     0.165 C 
HETATM   11  C14 UNL     1      15.608  -4.295  11.692  1.00  0.00     0.013 C 
HETATM   12  C15 UNL     1      15.977  -5.684  11.057  1.00  0.00     0.023 C 
ENDROOT
BRANCH   1  13
HETATM   13  C2  UNL     1      13.998  -2.520  10.730  1.00  0.00    -0.068 C 
HETATM   14  C1  UNL     1      14.227  -1.313  10.270  1.00  0.00     0.018 C 
HETATM   15  C3  UNL     1      12.622  -2.691  11.333  1.00  0.00     0.047 C 
ENDBRANCH   1  13
BRANCH  10  16
HETATM   16  O2  UNL     1      13.692  -4.975  13.067  1.00  0.00    -0.391 OA
ATOM     17  H2  UNL     1      13.109  -4.553  12.446  1.00  0.00     0.210 HD
ENDBRANCH  10  16
BRANCH   8  18
HETATM   18  O1  UNL     1      14.938  -2.414  14.019  1.00  0.00    -0.388 OA
ATOM     19  H1  UNL     1      13.991  -2.500  14.034  1.00  0.00     0.210 HD
ENDBRANCH   8  18
TORSDOF 3
ENDMDL
MODEL 4
REMARK VINA RESULT: -6.060354083      1.821      4.400
REMARK  3 active torsions:
REMARK  status: ('A' for Active; 'I' for Inactive)
REMARK    1  A    between atoms: C2_2  and  C4_4 
REMARK    2  A    between atoms: C11_11  and  O1_13 
REMARK    3  A    between atoms: C13_15  and  O2_16 
ROOT
HETATM    1  C4  UNL     1      15.325  -5.005  13.180  1.00  0.00    -0.064 C 
HETATM    2  C5  UNL     1      13.839  -4.769  12.866  1.00  0.00     0.036 C 
HETATM    3  C6  UNL     1      13.550  -3.565  12.056  1.00  0.00     0.009 C 
HETATM    4  C7  UNL     1      14.749  -2.901  11.454  1.00  0.00    -0.013 C 
HETATM    5  C8  UNL     1      14.265  -2.103  10.249  1.00  0.00     0.010 C 
HETATM    6  C9  UNL     1      15.728  -3.908  10.954  1.00  0.00     0.007 C 
HETATM    7  C10 UNL     1      17.000  -3.193  10.574  1.00  0.00     0.046 C 
HETATM    8  C11 UNL     1      18.070  -3.675  11.526  1.00  0.00     0.081 C 
HETATM    9  C12 UNL     1      19.423  -3.767  10.857  1.00  0.00     0.049 C 
HETATM   10  C13 UNL     1      17.520  -5.073  11.823  1.00  0.00     0.165 C 
HETATM   11  C14 UNL     1      16.072  -5.005  11.944  1.00  0.00     0.013 C 
HETATM   12  C15 UNL     1      15.548  -6.285  11.198  1.00  0.00     0.023 C 
ENDROOT
BRANCH   1  13
HETATM   13  C2  UNL     1      15.745  -4.408  14.434  1.00  0.00    -0.068 C 
HETATM   14  C1  UNL     1      16.302  -5.119  15.386  1.00  0.00     0.018 C 
HETATM   15  C3  UNL     1      15.648  -2.933  14.753  1.00  0.00     0.047 C 
ENDBRANCH   1  13
BRANCH  10  16
HETATM   16  O2  UNL     1      18.275  -5.824  12.652  1.00  0.00    -0.391 OA
ATOM     17  H2  UNL     1      17.794  -6.301  13.317  1.00  0.00     0.210 HD
ENDBRANCH  10  16
BRANCH   8  18
HETATM   18  O1  UNL     1      18.136  -2.825  12.568  1.00  0.00    -0.388 OA
ATOM     19  H1  UNL     1      18.932  -2.310  12.491  1.00  0.00     0.210 HD
ENDBRANCH   8  18
TORSDOF 3
ENDMDL
MODEL 5
REMARK VINA RESULT: -5.904750976      1.616      3.866
REMARK  3 active torsions:
REMARK  status: ('A' for Active; 'I' for Inactive)
REMARK    1  A    between atoms: C2_2  and  C4_4 
REMARK    2  A    between atoms: C11_11  and  O1_13 
REMARK    3  A    between atoms: C13_15  and  O2_16 
ROOT
HETATM    1  C4  UNL     1      15.672  -7.049  14.753  1.00  0.00    -0.064 C 
HETATM    2  C5  UNL     1      14.282  -7.565  15.157  1.00  0.00     0.036 C 
HETATM    3  C6  UNL     1      13.232  -6.528  15.266  1.00  0.00     0.009 C 
HETATM    4  C7  UNL     1      13.610  -5.182  14.729  1.00  0.00    -0.013 C 
HETATM    5  C8  UNL     1      12.316  -4.454  14.387  1.00  0.00     0.010 C 
HETATM    6  C9  UNL     1      14.394  -5.307  13.467  1.00  0.00     0.007 C 
HETATM    7  C10 UNL     1      14.936  -3.949  13.103  1.00  0.00     0.046 C 
HETATM    8  C11 UNL     1      16.441  -4.038  13.209  1.00  0.00     0.081 C 
HETATM    9  C12 UNL     1      17.134  -3.189  12.167  1.00  0.00     0.049 C 
HETATM   10  C13 UNL     1      16.619  -5.527  12.895  1.00  0.00     0.165 C 
HETATM   11  C14 UNL     1      15.553  -6.284  13.534  1.00  0.00     0.013 C 
HETATM   12  C15 UNL     1      15.129  -7.356  12.467  1.00  0.00     0.023 C 
ENDROOT
BRANCH   1  13
HETATM   13  C2  UNL     1      16.512  -6.723  15.890  1.00  0.00    -0.068 C 
HETATM   14  C1  UNL     1      17.749  -7.150  15.981  1.00  0.00     0.018 C 
HETATM   15  C3  UNL     1      16.091  -5.830  17.035  1.00  0.00     0.047 C 
ENDBRANCH   1  13
BRANCH  10  16
HETATM   16  O2  UNL     1      17.896  -5.961  12.875  1.00  0.00    -0.391 OA
ATOM     17  H2  UNL     1      18.349  -5.924  13.710  1.00  0.00     0.210 HD
ENDBRANCH  10  16
BRANCH   8  18
HETATM   18  O1  UNL     1      16.812  -3.638  14.440  1.00  0.00    -0.388 OA
ATOM     19  H1  UNL     1      16.619  -4.334  15.058  1.00  0.00     0.210 HD
ENDBRANCH   8  18
TORSDOF 3
ENDMDL
