MODEL 1
REMARK VINA RESULT: -6.896287905      0.000      0.000
REMARK  3 active torsions:
REMARK  status: ('A' for Active; 'I' for Inactive)
REMARK    1  A    between atoms: C8_8  and  O1_9 
REMARK    2  A    between atoms: C8_8  and  C9_11 
REMARK    3  A    between atoms: C9_11  and  O2_12 
ROOT
HETATM    1  C1  UNL     1      14.539  -4.939  12.869  1.00  0.00     0.015 C 
HETATM    2  C2  UNL     1      14.732  -3.430  12.950  1.00  0.00    -0.043 C 
HETATM    3  C3  UNL     1      15.023  -3.194  14.448  1.00  0.00     0.015 C 
HETATM    4  C4  UNL     1      16.006  -3.100  12.252  1.00  0.00     0.022 C 
HETATM    5  C5  UNL     1      15.897  -2.833  10.796  1.00  0.00    -0.006 C 
HETATM    6  C6  UNL     1      16.185  -4.027   9.888  1.00  0.00     0.016 C 
HETATM    7  C7  UNL     1      17.658  -3.709   9.941  1.00  0.00     0.042 C 
HETATM    8  C8  UNL     1      17.246  -2.292  10.326  1.00  0.00     0.086 C 
HETATM    9  C10 UNL     1      14.717  -2.052  10.372  1.00  0.00     0.022 C 
HETATM   10  C11 UNL     1      13.519  -2.078  11.196  1.00  0.00    -0.039 C 
HETATM   11  C12 UNL     1      12.757  -0.748  11.119  1.00  0.00     0.015 C 
HETATM   12  C13 UNL     1      12.534  -3.194  10.814  1.00  0.00     0.010 C 
HETATM   13  C14 UNL     1      12.300  -3.490  12.301  1.00  0.00     0.007 C 
HETATM   14  C15 UNL     1      13.557  -2.645  12.553  1.00  0.00     0.001 C 
ENDROOT
BRANCH   8  15
HETATM   15  O1  UNL     1      18.073  -1.823  11.316  1.00  0.00    -0.387 OA
ATOM     16  H1  UNL     1      18.567  -2.485  11.785  1.00  0.00     0.210 HD
ENDBRANCH   8  15
BRANCH   8  17
HETATM   17  C9  UNL     1      17.174  -1.333   9.177  1.00  0.00     0.202 C 
BRANCH  17  18
HETATM   18  O2  UNL     1      17.918  -0.194   9.553  1.00  0.00    -0.398 OA
ATOM     19  H2  UNL     1      18.241   0.198   8.750  1.00  0.00     0.209 HD
ENDBRANCH  17  18
ENDBRANCH   8  17
TORSDOF 3
ENDMDL
MODEL 2
REMARK VINA RESULT: -6.548634633      0.980      1.117
REMARK  3 active torsions:
REMARK  status: ('A' for Active; 'I' for Inactive)
REMARK    1  A    between atoms: C8_8  and  O1_9 
REMARK    2  A    between atoms: C8_8  and  C9_11 
REMARK    3  A    between atoms: C9_11  and  O2_12 
ROOT
HETATM    1  C1  UNL     1      13.478  -5.441  12.967  1.00  0.00     0.015 C 
HETATM    2  C2  UNL     1      13.898  -4.001  13.232  1.00  0.00    -0.043 C 
HETATM    3  C3  UNL     1      13.879  -3.908  14.772  1.00  0.00     0.015 C 
HETATM    4  C4  UNL     1      15.334  -3.875  12.854  1.00  0.00     0.022 C 
HETATM    5  C5  UNL     1      15.602  -3.510  11.440  1.00  0.00    -0.006 C 
HETATM    6  C6  UNL     1      15.883  -4.685  10.503  1.00  0.00     0.016 C 
HETATM    7  C7  UNL     1      17.338  -4.648  10.897  1.00  0.00     0.042 C 
HETATM    8  C8  UNL     1      17.094  -3.203  11.320  1.00  0.00     0.086 C 
HETATM    9  C10 UNL     1      14.697  -2.502  10.853  1.00  0.00     0.022 C 
HETATM   10  C11 UNL     1      13.357  -2.352  11.397  1.00  0.00    -0.039 C 
HETATM   11  C12 UNL     1      12.867  -0.902  11.289  1.00  0.00     0.015 C 
HETATM   12  C13 UNL     1      12.310  -3.243  10.711  1.00  0.00     0.010 C 
HETATM   13  C14 UNL     1      11.701  -3.573  12.079  1.00  0.00     0.007 C 
HETATM   14  C15 UNL     1      12.992  -2.991  12.671  1.00  0.00     0.001 C 
ENDROOT
BRANCH   8  15
HETATM   15  O1  UNL     1      17.743  -2.951  12.503  1.00  0.00    -0.387 OA
ATOM     16  H1  UNL     1      18.285  -3.659  12.831  1.00  0.00     0.210 HD
ENDBRANCH   8  15
BRANCH   8  17
HETATM   17  C9  UNL     1      17.445  -2.184  10.280  1.00  0.00     0.202 C 
BRANCH  17  18
HETATM   18  O2  UNL     1      18.512  -1.423  10.801  1.00  0.00    -0.398 OA
ATOM     19  H2  UNL     1      18.483  -0.578  10.367  1.00  0.00     0.209 HD
ENDBRANCH  17  18
ENDBRANCH   8  17
TORSDOF 3
ENDMDL
MODEL 3
REMARK VINA RESULT: -6.533529057      2.043      3.784
REMARK  3 active torsions:
REMARK  status: ('A' for Active; 'I' for Inactive)
REMARK    1  A    between atoms: C8_8  and  O1_9 
REMARK    2  A    between atoms: C8_8  and  C9_11 
REMARK    3  A    between atoms: C9_11  and  O2_12 
ROOT
HETATM    1  C1  UNL     1      12.522  -1.508  11.908  1.00  0.00     0.015 C 
HETATM    2  C2  UNL     1      12.569  -2.923  11.347  1.00  0.00    -0.043 C 
HETATM    3  C3  UNL     1      11.893  -2.775   9.966  1.00  0.00     0.015 C 
HETATM    4  C4  UNL     1      13.994  -3.242  11.048  1.00  0.00     0.022 C 
HETATM    5  C5  UNL     1      14.770  -3.844  12.161  1.00  0.00    -0.006 C 
HETATM    6  C6  UNL     1      15.591  -2.861  12.993  1.00  0.00     0.016 C 
HETATM    7  C7  UNL     1      16.724  -2.974  12.004  1.00  0.00     0.042 C 
HETATM    8  C8  UNL     1      16.109  -4.306  11.589  1.00  0.00     0.086 C 
HETATM    9  C10 UNL     1      14.051  -4.841  12.980  1.00  0.00     0.022 C 
HETATM   10  C11 UNL     1      12.601  -4.777  13.061  1.00  0.00    -0.039 C 
HETATM   11  C12 UNL     1      11.987  -6.174  13.228  1.00  0.00     0.015 C 
HETATM   12  C13 UNL     1      12.086  -3.908  14.218  1.00  0.00     0.010 C 
HETATM   13  C14 UNL     1      11.018  -3.314  13.291  1.00  0.00     0.007 C 
HETATM   14  C15 UNL     1      11.838  -3.917  12.143  1.00  0.00     0.001 C 
ENDROOT
BRANCH   8  15
HETATM   15  O1  UNL     1      16.157  -4.432  10.223  1.00  0.00    -0.387 OA
ATOM     16  H1  UNL     1      17.010  -4.645   9.862  1.00  0.00     0.210 HD
ENDBRANCH   8  15
BRANCH   8  17
HETATM   17  C9  UNL     1      16.704  -5.502  12.267  1.00  0.00     0.202 C 
BRANCH  17  18
HETATM   18  O2  UNL     1      17.871  -5.837  11.548  1.00  0.00    -0.398 OA
ATOM     19  H2  UNL     1      18.556  -5.980  12.191  1.00  0.00     0.209 HD
ENDBRANCH  17  18
ENDBRANCH   8  17
TORSDOF 3
ENDMDL
MODEL 4
REMARK VINA RESULT: -6.334276759      2.837      4.867
REMARK  3 active torsions:
REMARK  status: ('A' for Active; 'I' for Inactive)
REMARK    1  A    between atoms: C8_8  and  O1_9 
REMARK    2  A    between atoms: C8_8  and  C9_11 
REMARK    3  A    between atoms: C9_11  and  O2_12 
ROOT
HETATM    1  C1  UNL     1      16.744  -2.853  11.527  1.00  0.00     0.015 C 
HETATM    2  C2  UNL     1      15.674  -3.917  11.315  1.00  0.00    -0.043 C 
HETATM    3  C3  UNL     1      16.331  -4.876  10.300  1.00  0.00     0.015 C 
HETATM    4  C4  UNL     1      15.565  -4.703  12.576  1.00  0.00     0.022 C 
HETATM    5  C5  UNL     1      14.604  -4.185  13.582  1.00  0.00    -0.006 C 
HETATM    6  C6  UNL     1      15.208  -3.299  14.669  1.00  0.00     0.016 C 
HETATM    7  C7  UNL     1      15.550  -4.526  15.476  1.00  0.00     0.042 C 
HETATM    8  C8  UNL     1      14.469  -5.243  14.675  1.00  0.00     0.086 C 
HETATM    9  C10 UNL     1      13.332  -3.661  13.044  1.00  0.00     0.022 C 
HETATM   10  C11 UNL     1      13.294  -3.159  11.680  1.00  0.00    -0.039 C 
HETATM   11  C12 UNL     1      11.920  -3.392  11.036  1.00  0.00     0.015 C 
HETATM   12  C13 UNL     1      13.605  -1.658  11.567  1.00  0.00     0.010 C 
HETATM   13  C14 UNL     1      14.471  -1.935  10.333  1.00  0.00     0.007 C 
HETATM   14  C15 UNL     1      14.414  -3.408  10.761  1.00  0.00     0.001 C 
ENDROOT
BRANCH   8  15
HETATM   15  O1  UNL     1      14.900  -6.501  14.338  1.00  0.00    -0.387 OA
ATOM     16  H1  UNL     1      14.233  -7.178  14.340  1.00  0.00     0.210 HD
ENDBRANCH   8  15
BRANCH   8  17
HETATM   17  C9  UNL     1      13.129  -5.290  15.344  1.00  0.00     0.202 C 
BRANCH  17  18
HETATM   18  O2  UNL     1      12.961  -6.605  15.826  1.00  0.00    -0.398 OA
ATOM     19  H2  UNL     1      12.049  -6.831  15.691  1.00  0.00     0.209 HD
ENDBRANCH  17  18
ENDBRANCH   8  17
TORSDOF 3
ENDMDL
MODEL 5
REMARK VINA RESULT: -6.176130856      2.648      4.676
REMARK  3 active torsions:
REMARK  status: ('A' for Active; 'I' for Inactive)
REMARK    1  A    between atoms: C8_8  and  O1_9 
REMARK    2  A    between atoms: C8_8  and  C9_11 
REMARK    3  A    between atoms: C9_11  and  O2_12 
ROOT
HETATM    1  C1  UNL     1      15.599  -4.683  11.010  1.00  0.00     0.015 C 
HETATM    2  C2  UNL     1      15.375  -3.867  12.277  1.00  0.00    -0.043 C 
HETATM    3  C3  UNL     1      16.703  -3.096  12.435  1.00  0.00     0.015 C 
HETATM    4  C4  UNL     1      14.357  -2.824  11.966  1.00  0.00     0.022 C 
HETATM    5  C5  UNL     1      12.941  -3.217  12.178  1.00  0.00    -0.006 C 
HETATM    6  C6  UNL     1      12.209  -3.719  10.934  1.00  0.00     0.016 C 
HETATM    7  C7  UNL     1      11.867  -2.298  10.565  1.00  0.00     0.042 C 
HETATM    8  C8  UNL     1      12.089  -1.958  12.035  1.00  0.00     0.086 C 
HETATM    9  C10 UNL     1      12.674  -4.033  13.380  1.00  0.00     0.022 C 
HETATM   10  C11 UNL     1      13.742  -4.848  13.933  1.00  0.00    -0.039 C 
HETATM   11  C12 UNL     1      13.617  -4.976  15.458  1.00  0.00     0.015 C 
HETATM   12  C13 UNL     1      13.794  -6.271  13.356  1.00  0.00     0.010 C 
HETATM   13  C14 UNL     1      15.322  -6.178  13.273  1.00  0.00     0.007 C 
HETATM   14  C15 UNL     1      15.130  -4.669  13.481  1.00  0.00     0.001 C 
ENDROOT
BRANCH   8  15
HETATM   15  O1  UNL     1      12.767  -0.769  12.137  1.00  0.00    -0.387 OA
ATOM     16  H1  UNL     1      12.555  -0.241  12.897  1.00  0.00     0.210 HD
ENDBRANCH   8  15
BRANCH   8  17
HETATM   17  C9  UNL     1      10.841  -1.945  12.864  1.00  0.00     0.202 C 
BRANCH  17  18
HETATM   18  O2  UNL     1      10.696  -0.631  13.358  1.00  0.00    -0.398 OA
ATOM     19  H2  UNL     1      10.043  -0.206  12.813  1.00  0.00     0.209 HD
ENDBRANCH  17  18
ENDBRANCH   8  17
TORSDOF 3
ENDMDL
