MODEL 1
REMARK VINA RESULT: -7.235935235      0.000      0.000
REMARK  3 active torsions:
REMARK  status: ('A' for Active; 'I' for Inactive)
REMARK    1  A    between atoms: C2_2  and  C3_3 
REMARK    2  A    between atoms: C5_5  and  O1_6 
REMARK    3  A    between atoms: C13_15  and  O2_16 
ROOT
HETATM    1  C3  UNL     1      14.529  -3.797  12.574  1.00  0.00    -0.031 C 
HETATM    2  C4  UNL     1      15.334  -3.324  13.836  1.00  0.00     0.041 C 
HETATM    3  C5  UNL     1      14.631  -3.727  15.086  1.00  0.00     0.119 C 
HETATM    4  C6  UNL     1      14.277  -5.168  15.198  1.00  0.00     0.036 C 
HETATM    5  C7  UNL     1      13.690  -5.754  13.943  1.00  0.00    -0.011 C 
HETATM    6  C8  UNL     1      12.215  -5.557  13.867  1.00  0.00     0.005 C 
HETATM    7  C9  UNL     1      11.857  -5.103  12.469  1.00  0.00     0.010 C 
HETATM    8  C10 UNL     1      11.986  -3.641  12.413  1.00  0.00    -0.035 C 
HETATM    9  C11 UNL     1      10.947  -3.028  13.373  1.00  0.00     0.016 C 
HETATM   10  C12 UNL     1      11.718  -3.040  11.051  1.00  0.00     0.041 C 
HETATM   11  C13 UNL     1      12.941  -2.153  11.347  1.00  0.00     0.124 C 
HETATM   12  C14 UNL     1      13.322  -3.026  12.509  1.00  0.00     0.031 C 
HETATM   13  C15 UNL     1      14.463  -5.288  12.767  1.00  0.00     0.014 C 
ENDROOT
BRANCH   1  14
HETATM   14  C2  UNL     1      15.596  -3.637  11.513  1.00  0.00     0.005 C 
HETATM   15  C1  UNL     1      16.120  -4.870  10.890  1.00  0.00     0.006 C 
ENDBRANCH   1  14
BRANCH   3  16
HETATM   16  O1  UNL     1      15.496  -3.422  16.147  1.00  0.00    -0.396 OA
ATOM     17  H1  UNL     1      14.947  -3.162  16.878  1.00  0.00     0.210 HD
ENDBRANCH   3  16
BRANCH  11  18
HETATM   18  O2  UNL     1      12.413  -0.884  11.703  1.00  0.00    -0.395 OA
ATOM     19  H2  UNL     1      13.169  -0.334  11.876  1.00  0.00     0.210 HD
ENDBRANCH  11  18
TORSDOF 3
ENDMDL
MODEL 2
REMARK VINA RESULT: -6.992298555      1.132      1.356
REMARK  3 active torsions:
REMARK  status: ('A' for Active; 'I' for Inactive)
REMARK    1  A    between atoms: C2_2  and  C3_3 
REMARK    2  A    between atoms: C5_5  and  O1_6 
REMARK    3  A    between atoms: C13_15  and  O2_16 
ROOT
HETATM    1  C3  UNL     1      14.702  -3.524  11.804  1.00  0.00    -0.031 C 
HETATM    2  C4  UNL     1      15.700  -3.070  12.928  1.00  0.00     0.041 C 
HETATM    3  C5  UNL     1      14.981  -2.870  14.216  1.00  0.00     0.119 C 
HETATM    4  C6  UNL     1      14.151  -4.015  14.683  1.00  0.00     0.036 C 
HETATM    5  C7  UNL     1      13.317  -4.647  13.602  1.00  0.00    -0.011 C 
HETATM    6  C8  UNL     1      12.003  -3.964  13.433  1.00  0.00     0.005 C 
HETATM    7  C9  UNL     1      11.740  -3.777  11.955  1.00  0.00     0.010 C 
HETATM    8  C10 UNL     1      12.371  -2.519  11.531  1.00  0.00    -0.035 C 
HETATM    9  C11 UNL     1      11.676  -1.358  12.270  1.00  0.00     0.016 C 
HETATM   10  C12 UNL     1      12.245  -2.223  10.053  1.00  0.00     0.041 C 
HETATM   11  C13 UNL     1      13.718  -1.785  10.150  1.00  0.00     0.124 C 
HETATM   12  C14 UNL     1      13.841  -2.417  11.508  1.00  0.00     0.031 C 
HETATM   13  C15 UNL     1      14.129  -4.796  12.370  1.00  0.00     0.014 C 
ENDROOT
BRANCH   1  14
HETATM   14  C2  UNL     1      15.687  -4.025  10.771  1.00  0.00     0.005 C 
HETATM   15  C1  UNL     1      16.251  -5.376  10.972  1.00  0.00     0.006 C 
ENDBRANCH   1  14
BRANCH   3  16
HETATM   16  O1  UNL     1      15.963  -2.638  15.191  1.00  0.00    -0.396 OA
ATOM     17  H1  UNL     1      15.555  -2.804  16.032  1.00  0.00     0.210 HD
ENDBRANCH   3  16
BRANCH  11  18
HETATM   18  O2  UNL     1      13.694  -0.366  10.153  1.00  0.00    -0.395 OA
ATOM     19  H2  UNL     1      14.088  -0.106  10.977  1.00  0.00     0.210 HD
ENDBRANCH  11  18
TORSDOF 3
ENDMDL
MODEL 3
REMARK VINA RESULT: -6.493027455      1.804      3.535
REMARK  3 active torsions:
REMARK  status: ('A' for Active; 'I' for Inactive)
REMARK    1  A    between atoms: C2_2  and  C3_3 
REMARK    2  A    between atoms: C5_5  and  O1_6 
REMARK    3  A    between atoms: C13_15  and  O2_16 
ROOT
HETATM    1  C3  UNL     1      13.764  -4.259  12.812  1.00  0.00    -0.031 C 
HETATM    2  C4  UNL     1      14.183  -3.062  13.737  1.00  0.00     0.041 C 
HETATM    3  C5  UNL     1      15.419  -3.396  14.497  1.00  0.00     0.119 C 
HETATM    4  C6  UNL     1      16.576  -3.862  13.685  1.00  0.00     0.036 C 
HETATM    5  C7  UNL     1      16.215  -4.865  12.623  1.00  0.00    -0.011 C 
HETATM    6  C8  UNL     1      16.215  -6.261  13.143  1.00  0.00     0.005 C 
HETATM    7  C9  UNL     1      14.980  -6.969  12.633  1.00  0.00     0.010 C 
HETATM    8  C10 UNL     1      13.876  -6.696  13.563  1.00  0.00    -0.035 C 
HETATM    9  C11 UNL     1      14.230  -7.319  14.928  1.00  0.00     0.016 C 
HETATM   10  C12 UNL     1      12.548  -7.292  13.150  1.00  0.00     0.041 C 
HETATM   11  C13 UNL     1      11.954  -5.943  13.596  1.00  0.00     0.124 C 
HETATM   12  C14 UNL     1      13.325  -5.332  13.655  1.00  0.00     0.031 C 
HETATM   13  C15 UNL     1      14.975  -4.434  11.935  1.00  0.00     0.014 C 
ENDROOT
BRANCH   1  14
HETATM   14  C2  UNL     1      12.784  -3.551  11.901  1.00  0.00     0.005 C 
HETATM   15  C1  UNL     1      13.334  -2.560  10.955  1.00  0.00     0.006 C 
ENDBRANCH   1  14
BRANCH   3  16
HETATM   16  O1  UNL     1      15.813  -2.222  15.156  1.00  0.00    -0.396 OA
ATOM     17  H1  UNL     1      15.768  -2.405  16.087  1.00  0.00     0.210 HD
ENDBRANCH   3  16
BRANCH  11  18
HETATM   18  O2  UNL     1      11.356  -6.190  14.859  1.00  0.00    -0.395 OA
ATOM     19  H2  UNL     1      11.141  -5.333  15.210  1.00  0.00     0.210 HD
ENDBRANCH  11  18
TORSDOF 3
ENDMDL
MODEL 4
REMARK VINA RESULT: -6.411818267      2.560      4.715
REMARK  3 active torsions:
REMARK  status: ('A' for Active; 'I' for Inactive)
REMARK    1  A    between atoms: C2_2  and  C3_3 
REMARK    2  A    between atoms: C5_5  and  O1_6 
REMARK    3  A    between atoms: C13_15  and  O2_16 
ROOT
HETATM    1  C3  UNL     1      16.774  -4.399  12.086  1.00  0.00    -0.031 C 
HETATM    2  C4  UNL     1      16.367  -4.008  13.551  1.00  0.00     0.041 C 
HETATM    3  C5  UNL     1      15.471  -2.819  13.545  1.00  0.00     0.119 C 
HETATM    4  C6  UNL     1      14.267  -2.915  12.674  1.00  0.00     0.036 C 
HETATM    5  C7  UNL     1      14.543  -3.487  11.310  1.00  0.00    -0.011 C 
HETATM    6  C8  UNL     1      14.973  -2.443  10.338  1.00  0.00     0.005 C 
HETATM    7  C9  UNL     1      16.153  -2.968   9.552  1.00  0.00     0.010 C 
HETATM    8  C10 UNL     1      17.378  -2.671  10.307  1.00  0.00    -0.035 C 
HETATM    9  C11 UNL     1      17.531  -1.139  10.394  1.00  0.00     0.016 C 
HETATM   10  C12 UNL     1      18.647  -3.194   9.671  1.00  0.00     0.041 C 
HETATM   11  C13 UNL     1      19.038  -3.604  11.103  1.00  0.00     0.124 C 
HETATM   12  C14 UNL     1      17.633  -3.369  11.579  1.00  0.00     0.031 C 
HETATM   13  C15 UNL     1      15.442  -4.660  11.435  1.00  0.00     0.014 C 
ENDROOT
BRANCH   1  14
HETATM   14  C2  UNL     1      17.312  -5.793  12.330  1.00  0.00     0.005 C 
HETATM   15  C1  UNL     1      16.389  -6.779  12.929  1.00  0.00     0.006 C 
ENDBRANCH   1  14
BRANCH   3  16
HETATM   16  O1  UNL     1      15.023  -2.649  14.864  1.00  0.00    -0.396 OA
ATOM     17  H1  UNL     1      15.362  -1.813  15.160  1.00  0.00     0.210 HD
ENDBRANCH   3  16
BRANCH  11  18
HETATM   18  O2  UNL     1      19.982  -2.634  11.532  1.00  0.00    -0.395 OA
ATOM     19  H2  UNL     1      20.311  -2.951  12.365  1.00  0.00     0.210 HD
ENDBRANCH  11  18
TORSDOF 3
ENDMDL
MODEL 5
REMARK VINA RESULT: -6.263453065      1.676      2.233
REMARK  3 active torsions:
REMARK  status: ('A' for Active; 'I' for Inactive)
REMARK    1  A    between atoms: C2_2  and  C3_3 
REMARK    2  A    between atoms: C5_5  and  O1_6 
REMARK    3  A    between atoms: C13_15  and  O2_16 
ROOT
HETATM    1  C3  UNL     1      15.011  -4.906  12.724  1.00  0.00    -0.031 C 
HETATM    2  C4  UNL     1      16.139  -4.524  13.747  1.00  0.00     0.041 C 
HETATM    3  C5  UNL     1      16.169  -5.493  14.877  1.00  0.00     0.119 C 
HETATM    4  C6  UNL     1      16.268  -6.930  14.500  1.00  0.00     0.036 C 
HETATM    5  C7  UNL     1      15.360  -7.329  13.369  1.00  0.00    -0.011 C 
HETATM    6  C8  UNL     1      14.000  -7.707  13.845  1.00  0.00     0.005 C 
HETATM    7  C9  UNL     1      12.973  -7.063  12.940  1.00  0.00     0.010 C 
HETATM    8  C10 UNL     1      12.699  -5.711  13.445  1.00  0.00    -0.035 C 
HETATM    9  C11 UNL     1      12.062  -5.838  14.843  1.00  0.00     0.016 C 
HETATM   10  C12 UNL     1      11.728  -4.913  12.602  1.00  0.00     0.041 C 
HETATM   11  C13 UNL     1      12.697  -3.739  12.834  1.00  0.00     0.124 C 
HETATM   12  C14 UNL     1      13.746  -4.678  13.359  1.00  0.00     0.031 C 
HETATM   13  C15 UNL     1      15.407  -6.297  12.306  1.00  0.00     0.014 C 
ENDROOT
BRANCH   1  14
HETATM   14  C2  UNL     1      15.438  -4.061  11.542  1.00  0.00     0.005 C 
HETATM   15  C1  UNL     1      16.333  -4.689  10.549  1.00  0.00     0.006 C 
ENDBRANCH   1  14
BRANCH   3  16
HETATM   16  O1  UNL     1      17.303  -5.180  15.642  1.00  0.00    -0.396 OA
ATOM     17  H1  UNL     1      17.604  -5.994  16.027  1.00  0.00     0.210 HD
ENDBRANCH   3  16
BRANCH  11  18
HETATM   18  O2  UNL     1      12.080  -2.924  13.819  1.00  0.00    -0.395 OA
ATOM     19  H2  UNL     1      12.246  -3.358  14.648  1.00  0.00     0.210 HD
ENDBRANCH  11  18
TORSDOF 3
ENDMDL
