MODEL 1
REMARK VINA RESULT: -6.929418803      0.000      0.000
REMARK  15 active torsions:
REMARK  status: ('A' for Active; 'I' for Inactive)
REMARK    1  A    between atoms: N1_1  and  C1_5 
REMARK    2  A    between atoms: C1_5  and  C2_6 
REMARK    3  A    between atoms: C2_6  and  N2_7 
REMARK       I    between atoms: C3_9  and  N4_11 
REMARK    4  A    between atoms: N4_11  and  C4_13 
REMARK    5  A    between atoms: C4_13  and  C5_14 
REMARK    6  A    between atoms: C5_14  and  C6_15 
REMARK    7  A    between atoms: N5_20  and  C10_21 
REMARK    8  A    between atoms: C11_22  and  C12_23 
REMARK    9  A    between atoms: C12_23  and  C13_24 
REMARK   10  A    between atoms: C13_24  and  O2_25 
REMARK   11  A    between atoms: O2_25  and  C14_26 
REMARK   12  A    between atoms: C14_26  and  C15_27 
REMARK   13  A    between atoms: C15_27  and  N6_28 
REMARK   14  A    between atoms: N6_28  and  C16_31 
REMARK   15  A    between atoms: C16_31  and  C17_32 
ROOT
HETATM    1  C6  UNL     1      -4.922  31.380  -1.796  1.00  0.00     0.094 C 
HETATM    2  C7  UNL     1      -3.980  30.240  -1.564  1.00  0.00     0.035 C 
HETATM    3  C8  UNL     1      -2.667  31.000  -1.352  1.00  0.00     0.105 C 
HETATM    4  C9  UNL     1      -2.842  32.172  -2.232  1.00  0.00     0.224 C 
HETATM    5  O1  UNL     1      -1.922  32.992  -2.496  1.00  0.00    -0.273 OA
HETATM    6  N5  UNL     1      -4.208  32.232  -2.734  1.00  0.00    -0.324 N 
ENDROOT
BRANCH   6   7
HETATM    7  C10 UNL     1      -4.657  33.070  -3.791  1.00  0.00     0.090 C 
HETATM    8  C11 UNL     1      -4.799  32.682  -5.171  1.00  0.00    -0.007 C 
BRANCH   8   9
HETATM    9  C12 UNL     1      -5.626  31.604  -5.702  1.00  0.00     0.054 C 
BRANCH   9  10
HETATM   10  C13 UNL     1      -6.404  31.943  -6.911  1.00  0.00     0.171 C 
BRANCH  10  11
HETATM   11  O2  UNL     1      -6.750  30.792  -7.634  1.00  0.00    -0.389 OA
BRANCH  11  12
HETATM   12  C14 UNL     1      -6.419  30.840  -8.963  1.00  0.00     0.195 C 
BRANCH  12  13
HETATM   13  C15 UNL     1      -6.967  32.146  -9.519  1.00  0.00     0.258 C 
BRANCH  13  14
HETATM   14  N6  UNL     1      -8.350  31.895  -9.878  1.00  0.00    -0.068 N 
ATOM     15  H62 UNL     1      -8.459  31.847 -10.891  1.00  0.00     0.277 HD
ATOM     16  H61 UNL     1      -8.621  30.942  -9.635  1.00  0.00     0.277 HD
BRANCH  14  17
HETATM   17  C16 UNL     1      -9.263  32.845  -9.311  1.00  0.00     0.290 C 
BRANCH  17  18
HETATM   18  C17 UNL     1     -10.158  32.115  -8.380  1.00  0.00     0.051 A 
HETATM   19  C18 UNL     1     -11.424  32.467  -7.989  1.00  0.00     0.115 A 
HETATM   20  N7  UNL     1     -11.868  31.537  -7.145  1.00  0.00    -0.360 N 
HETATM   21  C19 UNL     1     -10.897  30.622  -7.013  1.00  0.00     0.180 A 
ATOM     22  H7  UNL     1     -12.777  31.524  -6.684  1.00  0.00     0.166 HD
HETATM   23  N8  UNL     1      -9.854  30.967  -7.760  1.00  0.00    -0.353 N 
ATOM     24  H8  UNL     1      -8.979  30.450  -7.847  1.00  0.00     0.166 HD
ENDBRANCH  17  18
ENDBRANCH  14  17
ENDBRANCH  13  14
ENDBRANCH  12  13
ENDBRANCH  11  12
ENDBRANCH  10  11
ENDBRANCH   9  10
ENDBRANCH   8   9
ENDBRANCH   6   7
BRANCH   1  25
HETATM   25  C5  UNL     1      -6.308  31.025  -2.175  1.00  0.00     0.045 C 
BRANCH  25  26
HETATM   26  C4  UNL     1      -6.409  29.521  -2.294  1.00  0.00     0.124 C 
BRANCH  26  27
HETATM   27  N4  UNL     1      -7.247  29.137  -3.405  1.00  0.00    -0.365 N 
HETATM   28  C3  UNL     1      -7.942  27.901  -3.316  1.00  0.00     0.184 C 
HETATM   29  N2  UNL     1      -9.219  27.850  -3.195  1.00  0.00    -0.363 N 
HETATM   30  N3  UNL     1      -7.211  26.693  -3.362  1.00  0.00    -0.064 NA
ATOM     31  H2  UNL     1      -9.750  28.721  -3.162  1.00  0.00     0.162 HD
ATOM     32  H4  UNL     1      -7.338  29.734  -4.227  1.00  0.00     0.162 HD
BRANCH  29  33
HETATM   33  C2  UNL     1      -9.921  26.600  -3.106  1.00  0.00     0.149 C 
BRANCH  33  34
HETATM   34  C1  UNL     1     -11.406  26.737  -3.359  1.00  0.00     0.249 C 
BRANCH  34  35
HETATM   35  N1  UNL     1     -12.126  27.175  -2.193  1.00  0.00    -0.078 N 
ATOM     36  H13 UNL     1     -13.125  27.249  -2.383  1.00  0.00     0.274 HD
ATOM     37  H12 UNL     1     -12.148  26.446  -1.479  1.00  0.00     0.274 HD
ATOM     38  H11 UNL     1     -11.759  28.049  -1.813  1.00  0.00     0.274 HD
ENDBRANCH  34  35
ENDBRANCH  33  34
ENDBRANCH  29  33
ENDBRANCH  26  27
ENDBRANCH  25  26
ENDBRANCH   1  25
TORSDOF 15
ENDMDL
MODEL 2
REMARK VINA RESULT: -6.803689771      1.040      1.263
REMARK  15 active torsions:
REMARK  status: ('A' for Active; 'I' for Inactive)
REMARK    1  A    between atoms: N1_1  and  C1_5 
REMARK    2  A    between atoms: C1_5  and  C2_6 
REMARK    3  A    between atoms: C2_6  and  N2_7 
REMARK       I    between atoms: C3_9  and  N4_11 
REMARK    4  A    between atoms: N4_11  and  C4_13 
REMARK    5  A    between atoms: C4_13  and  C5_14 
REMARK    6  A    between atoms: C5_14  and  C6_15 
REMARK    7  A    between atoms: N5_20  and  C10_21 
REMARK    8  A    between atoms: C11_22  and  C12_23 
REMARK    9  A    between atoms: C12_23  and  C13_24 
REMARK   10  A    between atoms: C13_24  and  O2_25 
REMARK   11  A    between atoms: O2_25  and  C14_26 
REMARK   12  A    between atoms: C14_26  and  C15_27 
REMARK   13  A    between atoms: C15_27  and  N6_28 
REMARK   14  A    between atoms: N6_28  and  C16_31 
REMARK   15  A    between atoms: C16_31  and  C17_32 
ROOT
HETATM    1  C6  UNL     1      -5.414  31.671  -1.838  1.00  0.00     0.094 C 
HETATM    2  C7  UNL     1      -4.802  30.359  -1.456  1.00  0.00     0.035 C 
HETATM    3  C8  UNL     1      -3.354  30.787  -1.202  1.00  0.00     0.105 C 
HETATM    4  C9  UNL     1      -3.180  31.885  -2.175  1.00  0.00     0.224 C 
HETATM    5  O1  UNL     1      -2.072  32.426  -2.428  1.00  0.00    -0.273 OA
HETATM    6  N5  UNL     1      -4.458  32.235  -2.780  1.00  0.00    -0.324 N 
ENDROOT
BRANCH   6   7
HETATM    7  C10 UNL     1      -4.625  33.061  -3.924  1.00  0.00     0.090 C 
HETATM    8  C11 UNL     1      -4.706  32.605  -5.288  1.00  0.00    -0.007 C 
BRANCH   8   9
HETATM    9  C12 UNL     1      -5.677  31.670  -5.847  1.00  0.00     0.054 C 
BRANCH   9  10
HETATM   10  C13 UNL     1      -6.112  31.964  -7.227  1.00  0.00     0.171 C 
BRANCH  10  11
HETATM   11  O2  UNL     1      -6.699  30.840  -7.828  1.00  0.00    -0.389 OA
BRANCH  11  12
HETATM   12  C14 UNL     1      -6.499  30.754  -9.181  1.00  0.00     0.195 C 
BRANCH  12  13
HETATM   13  C15 UNL     1      -6.976  32.063  -9.792  1.00  0.00     0.258 C 
BRANCH  13  14
HETATM   14  N6  UNL     1      -8.402  31.919 -10.016  1.00  0.00    -0.068 N 
ATOM     15  H62 UNL     1      -8.618  31.952 -11.012  1.00  0.00     0.277 HD
ATOM     16  H61 UNL     1      -8.708  30.968  -9.810  1.00  0.00     0.277 HD
BRANCH  14  17
HETATM   17  C16 UNL     1      -9.187  32.876  -9.292  1.00  0.00     0.290 C 
BRANCH  17  18
HETATM   18  C17 UNL     1     -10.100  32.128  -8.393  1.00  0.00     0.051 A 
HETATM   19  C18 UNL     1     -11.393  32.445  -8.062  1.00  0.00     0.115 A 
HETATM   20  N7  UNL     1     -11.845  31.509  -7.229  1.00  0.00    -0.360 N 
HETATM   21  C19 UNL     1     -10.854  30.626  -7.045  1.00  0.00     0.180 A 
ATOM     22  H7  UNL     1     -12.774  31.473  -6.809  1.00  0.00     0.166 HD
HETATM   23  N8  UNL     1      -9.790  30.995  -7.749  1.00  0.00    -0.353 N 
ATOM     24  H8  UNL     1      -8.897  30.505  -7.792  1.00  0.00     0.166 HD
ENDBRANCH  17  18
ENDBRANCH  14  17
ENDBRANCH  13  14
ENDBRANCH  12  13
ENDBRANCH  11  12
ENDBRANCH  10  11
ENDBRANCH   9  10
ENDBRANCH   8   9
ENDBRANCH   6   7
BRANCH   1  25
HETATM   25  C5  UNL     1      -6.821  31.636  -2.292  1.00  0.00     0.045 C 
BRANCH  25  26
HETATM   26  C4  UNL     1      -7.128  30.252  -2.819  1.00  0.00     0.124 C 
BRANCH  26  27
HETATM   27  N4  UNL     1      -8.292  29.692  -2.176  1.00  0.00    -0.365 N 
HETATM   28  C3  UNL     1      -9.492  29.606  -2.933  1.00  0.00     0.184 C 
HETATM   29  N2  UNL     1      -9.977  28.478  -3.307  1.00  0.00    -0.363 N 
HETATM   30  N3  UNL     1     -10.173  30.793  -3.284  1.00  0.00    -0.064 NA
ATOM     31  H2  UNL     1      -9.487  27.619  -3.055  1.00  0.00     0.162 HD
ATOM     32  H4  UNL     1      -8.256  29.368  -1.210  1.00  0.00     0.162 HD
BRANCH  29  33
HETATM   33  C2  UNL     1     -11.190  28.391  -4.072  1.00  0.00     0.149 C 
BRANCH  33  34
HETATM   34  C1  UNL     1     -12.128  27.316  -3.572  1.00  0.00     0.249 C 
BRANCH  34  35
HETATM   35  N1  UNL     1     -12.043  27.130  -2.147  1.00  0.00    -0.078 N 
ATOM     36  H13 UNL     1     -11.638  26.222  -1.920  1.00  0.00     0.274 HD
ATOM     37  H12 UNL     1     -11.329  27.735  -1.740  1.00  0.00     0.274 HD
ATOM     38  H11 UNL     1     -12.942  27.258  -1.682  1.00  0.00     0.274 HD
ENDBRANCH  34  35
ENDBRANCH  33  34
ENDBRANCH  29  33
ENDBRANCH  26  27
ENDBRANCH  25  26
ENDBRANCH   1  25
TORSDOF 15
ENDMDL
MODEL 3
REMARK VINA RESULT: -6.687167003      1.821      2.173
REMARK  15 active torsions:
REMARK  status: ('A' for Active; 'I' for Inactive)
REMARK    1  A    between atoms: N1_1  and  C1_5 
REMARK    2  A    between atoms: C1_5  and  C2_6 
REMARK    3  A    between atoms: C2_6  and  N2_7 
REMARK       I    between atoms: C3_9  and  N4_11 
REMARK    4  A    between atoms: N4_11  and  C4_13 
REMARK    5  A    between atoms: C4_13  and  C5_14 
REMARK    6  A    between atoms: C5_14  and  C6_15 
REMARK    7  A    between atoms: N5_20  and  C10_21 
REMARK    8  A    between atoms: C11_22  and  C12_23 
REMARK    9  A    between atoms: C12_23  and  C13_24 
REMARK   10  A    between atoms: C13_24  and  O2_25 
REMARK   11  A    between atoms: O2_25  and  C14_26 
REMARK   12  A    between atoms: C14_26  and  C15_27 
REMARK   13  A    between atoms: C15_27  and  N6_28 
REMARK   14  A    between atoms: N6_28  and  C16_31 
REMARK   15  A    between atoms: C16_31  and  C17_32 
ROOT
HETATM    1  C6  UNL     1      -4.435  31.669  -1.406  1.00  0.00     0.094 C 
HETATM    2  C7  UNL     1      -3.949  30.252  -1.418  1.00  0.00     0.035 C 
HETATM    3  C8  UNL     1      -2.463  30.463  -1.117  1.00  0.00     0.105 C 
HETATM    4  C9  UNL     1      -2.197  31.764  -1.763  1.00  0.00     0.224 C 
HETATM    5  O1  UNL     1      -1.045  32.252  -1.906  1.00  0.00    -0.273 OA
HETATM    6  N5  UNL     1      -3.443  32.380  -2.198  1.00  0.00    -0.324 N 
ENDROOT
BRANCH   6   7
HETATM    7  C10 UNL     1      -3.545  33.499  -3.068  1.00  0.00     0.090 C 
HETATM    8  C11 UNL     1      -3.595  33.446  -4.507  1.00  0.00    -0.007 C 
BRANCH   8   9
HETATM    9  C12 UNL     1      -4.575  32.744  -5.328  1.00  0.00     0.054 C 
BRANCH   9  10
HETATM   10  C13 UNL     1      -5.933  33.327  -5.324  1.00  0.00     0.171 C 
BRANCH  10  11
HETATM   11  O2  UNL     1      -6.908  32.351  -5.579  1.00  0.00    -0.389 OA
BRANCH  11  12
HETATM   12  C14 UNL     1      -6.426  31.214  -6.174  1.00  0.00     0.195 C 
BRANCH  12  13
HETATM   13  C15 UNL     1      -7.566  30.208  -6.216  1.00  0.00     0.258 C 
BRANCH  13  14
HETATM   14  N6  UNL     1      -8.793  30.967  -6.061  1.00  0.00    -0.068 N 
ATOM     15  H62 UNL     1      -9.239  30.757  -5.168  1.00  0.00     0.277 HD
ATOM     16  H61 UNL     1      -8.593  31.957  -5.920  1.00  0.00     0.277 HD
BRANCH  14  17
HETATM   17  C16 UNL     1      -9.713  30.782  -7.146  1.00  0.00     0.290 C 
BRANCH  17  18
HETATM   18  C17 UNL     1     -10.983  31.458  -6.785  1.00  0.00     0.051 A 
HETATM   19  C18 UNL     1     -11.892  32.038  -7.633  1.00  0.00     0.115 A 
HETATM   20  N7  UNL     1     -12.887  32.529  -6.895  1.00  0.00    -0.360 N 
HETATM   21  C19 UNL     1     -12.604  32.259  -5.613  1.00  0.00     0.180 A 
ATOM     22  H7  UNL     1     -13.711  33.019  -7.242  1.00  0.00     0.166 HD
HETATM   23  N8  UNL     1     -11.448  31.608  -5.538  1.00  0.00    -0.353 N 
ATOM     24  H8  UNL     1     -10.996  31.283  -4.684  1.00  0.00     0.166 HD
ENDBRANCH  17  18
ENDBRANCH  14  17
ENDBRANCH  13  14
ENDBRANCH  12  13
ENDBRANCH  11  12
ENDBRANCH  10  11
ENDBRANCH   9  10
ENDBRANCH   8   9
ENDBRANCH   6   7
BRANCH   1  25
HETATM   25  C5  UNL     1      -5.846  31.886  -1.794  1.00  0.00     0.045 C 
BRANCH  25  26
HETATM   26  C4  UNL     1      -6.351  30.651  -2.507  1.00  0.00     0.124 C 
BRANCH  26  27
HETATM   27  N4  UNL     1      -7.515  30.105  -1.850  1.00  0.00    -0.365 N 
HETATM   28  C3  UNL     1      -8.692  29.929  -2.626  1.00  0.00     0.184 C 
HETATM   29  N2  UNL     1      -9.136  28.763  -2.927  1.00  0.00    -0.363 N 
HETATM   30  N3  UNL     1      -9.396  31.067  -3.080  1.00  0.00    -0.064 NA
ATOM     31  H2  UNL     1      -8.629  27.940  -2.600  1.00  0.00     0.162 HD
ATOM     32  H4  UNL     1      -7.493  29.854  -0.862  1.00  0.00     0.162 HD
BRANCH  29  33
HETATM   33  C2  UNL     1     -10.326  28.585  -3.710  1.00  0.00     0.149 C 
BRANCH  33  34
HETATM   34  C1  UNL     1     -10.849  27.166  -3.678  1.00  0.00     0.249 C 
BRANCH  34  35
HETATM   35  N1  UNL     1     -10.306  26.404  -2.585  1.00  0.00    -0.078 N 
ATOM     36  H13 UNL     1      -9.499  25.857  -2.883  1.00  0.00     0.274 HD
ATOM     37  H12 UNL     1      -9.850  27.012  -1.904  1.00  0.00     0.274 HD
ATOM     38  H11 UNL     1     -11.005  25.812  -2.136  1.00  0.00     0.274 HD
ENDBRANCH  34  35
ENDBRANCH  33  34
ENDBRANCH  29  33
ENDBRANCH  26  27
ENDBRANCH  25  26
ENDBRANCH   1  25
TORSDOF 15
ENDMDL
MODEL 4
REMARK VINA RESULT: -6.630422543      3.304      6.498
REMARK  15 active torsions:
REMARK  status: ('A' for Active; 'I' for Inactive)
REMARK    1  A    between atoms: N1_1  and  C1_5 
REMARK    2  A    between atoms: C1_5  and  C2_6 
REMARK    3  A    between atoms: C2_6  and  N2_7 
REMARK       I    between atoms: C3_9  and  N4_11 
REMARK    4  A    between atoms: N4_11  and  C4_13 
REMARK    5  A    between atoms: C4_13  and  C5_14 
REMARK    6  A    between atoms: C5_14  and  C6_15 
REMARK    7  A    between atoms: N5_20  and  C10_21 
REMARK    8  A    between atoms: C11_22  and  C12_23 
REMARK    9  A    between atoms: C12_23  and  C13_24 
REMARK   10  A    between atoms: C13_24  and  O2_25 
REMARK   11  A    between atoms: O2_25  and  C14_26 
REMARK   12  A    between atoms: C14_26  and  C15_27 
REMARK   13  A    between atoms: C15_27  and  N6_28 
REMARK   14  A    between atoms: N6_28  and  C16_31 
REMARK   15  A    between atoms: C16_31  and  C17_32 
ROOT
HETATM    1  C6  UNL     1      -6.883  30.309  -1.699  1.00  0.00     0.094 C 
HETATM    2  C7  UNL     1      -7.577  30.680  -0.424  1.00  0.00     0.035 C 
HETATM    3  C8  UNL     1      -8.807  31.406  -0.975  1.00  0.00     0.105 C 
HETATM    4  C9  UNL     1      -8.276  32.026  -2.206  1.00  0.00     0.224 C 
HETATM    5  O1  UNL     1      -8.913  32.864  -2.897  1.00  0.00    -0.273 OA
HETATM    6  N5  UNL     1      -6.936  31.530  -2.488  1.00  0.00    -0.324 N 
ENDROOT
BRANCH   6   7
HETATM    7  C10 UNL     1      -6.038  32.089  -3.436  1.00  0.00     0.090 C 
HETATM    8  C11 UNL     1      -5.716  31.531  -4.724  1.00  0.00    -0.007 C 
BRANCH   8   9
HETATM    9  C12 UNL     1      -6.644  31.233  -5.810  1.00  0.00     0.054 C 
BRANCH   9  10
HETATM   10  C13 UNL     1      -7.541  30.083  -5.575  1.00  0.00     0.171 C 
BRANCH  10  11
HETATM   11  O2  UNL     1      -8.883  30.486  -5.515  1.00  0.00    -0.389 OA
BRANCH  11  12
HETATM   12  C14 UNL     1      -9.654  29.754  -4.650  1.00  0.00     0.195 C 
BRANCH  12  13
HETATM   13  C15 UNL     1      -8.775  28.647  -4.088  1.00  0.00     0.258 C 
BRANCH  13  14
HETATM   14  N6  UNL     1      -9.495  28.079  -2.963  1.00  0.00    -0.068 N 
ATOM     15  H62 UNL     1      -8.921  28.095  -2.120  1.00  0.00     0.277 HD
ATOM     16  H61 UNL     1     -10.249  28.698  -2.665  1.00  0.00     0.277 HD
BRANCH  14  17
HETATM   17  C16 UNL     1      -9.990  26.757  -3.218  1.00  0.00     0.290 C 
BRANCH  17  18
HETATM   18  C17 UNL     1     -11.467  26.838  -3.320  1.00  0.00     0.051 A 
HETATM   19  C18 UNL     1     -12.271  26.277  -4.279  1.00  0.00     0.115 A 
HETATM   20  N7  UNL     1     -13.533  26.595  -3.996  1.00  0.00    -0.360 N 
HETATM   21  C19 UNL     1     -13.517  27.338  -2.881  1.00  0.00     0.180 A 
ATOM     22  H7  UNL     1     -14.359  26.323  -4.529  1.00  0.00     0.166 HD
HETATM   23  N8  UNL     1     -12.264  27.491  -2.464  1.00  0.00    -0.353 N 
ATOM     24  H8  UNL     1     -11.964  28.012  -1.641  1.00  0.00     0.166 HD
ENDBRANCH  17  18
ENDBRANCH  14  17
ENDBRANCH  13  14
ENDBRANCH  12  13
ENDBRANCH  11  12
ENDBRANCH  10  11
ENDBRANCH   9  10
ENDBRANCH   8   9
ENDBRANCH   6   7
BRANCH   1  25
HETATM   25  C5  UNL     1      -5.549  29.684  -1.566  1.00  0.00     0.045 C 
BRANCH  25  26
HETATM   26  C4  UNL     1      -5.049  29.898  -0.155  1.00  0.00     0.124 C 
BRANCH  26  27
HETATM   27  N4  UNL     1      -4.285  31.117  -0.048  1.00  0.00    -0.365 N 
HETATM   28  C3  UNL     1      -2.944  31.103  -0.519  1.00  0.00     0.184 C 
HETATM   29  N2  UNL     1      -2.587  31.754  -1.566  1.00  0.00    -0.363 N 
HETATM   30  N3  UNL     1      -1.974  30.352   0.183  1.00  0.00    -0.064 NA
ATOM     31  H2  UNL     1      -3.285  32.297  -2.074  1.00  0.00     0.162 HD
ATOM     32  H4  UNL     1      -4.693  31.962   0.352  1.00  0.00     0.162 HD
BRANCH  29  33
HETATM   33  C2  UNL     1      -1.232  31.740  -2.041  1.00  0.00     0.149 C 
BRANCH  33  34
HETATM   34  C1  UNL     1      -0.592  33.110  -2.043  1.00  0.00     0.249 C 
BRANCH  34  35
HETATM   35  N1  UNL     1      -1.307  34.051  -2.864  1.00  0.00    -0.078 N 
ATOM     36  H13 UNL     1      -2.298  34.068  -2.625  1.00  0.00     0.274 HD
ATOM     37  H12 UNL     1      -1.063  35.011  -2.621  1.00  0.00     0.274 HD
ATOM     38  H11 UNL     1      -1.173  33.880  -3.862  1.00  0.00     0.274 HD
ENDBRANCH  34  35
ENDBRANCH  33  34
ENDBRANCH  29  33
ENDBRANCH  26  27
ENDBRANCH  25  26
ENDBRANCH   1  25
TORSDOF 15
ENDMDL
MODEL 5
REMARK VINA RESULT: -6.598025968      1.638      2.494
REMARK  15 active torsions:
REMARK  status: ('A' for Active; 'I' for Inactive)
REMARK    1  A    between atoms: N1_1  and  C1_5 
REMARK    2  A    between atoms: C1_5  and  C2_6 
REMARK    3  A    between atoms: C2_6  and  N2_7 
REMARK       I    between atoms: C3_9  and  N4_11 
REMARK    4  A    between atoms: N4_11  and  C4_13 
REMARK    5  A    between atoms: C4_13  and  C5_14 
REMARK    6  A    between atoms: C5_14  and  C6_15 
REMARK    7  A    between atoms: N5_20  and  C10_21 
REMARK    8  A    between atoms: C11_22  and  C12_23 
REMARK    9  A    between atoms: C12_23  and  C13_24 
REMARK   10  A    between atoms: C13_24  and  O2_25 
REMARK   11  A    between atoms: O2_25  and  C14_26 
REMARK   12  A    between atoms: C14_26  and  C15_27 
REMARK   13  A    between atoms: C15_27  and  N6_28 
REMARK   14  A    between atoms: N6_28  and  C16_31 
REMARK   15  A    between atoms: C16_31  and  C17_32 
ROOT
HETATM    1  C6  UNL     1      -4.544  31.957  -1.767  1.00  0.00     0.094 C 
HETATM    2  C7  UNL     1      -3.847  30.658  -1.502  1.00  0.00     0.035 C 
HETATM    3  C8  UNL     1      -2.417  31.150  -1.266  1.00  0.00     0.105 C 
HETATM    4  C9  UNL     1      -2.340  32.321  -2.162  1.00  0.00     0.224 C 
HETATM    5  O1  UNL     1      -1.272  32.941  -2.413  1.00  0.00    -0.273 OA
HETATM    6  N5  UNL     1      -3.657  32.640  -2.697  1.00  0.00    -0.324 N 
ENDROOT
BRANCH   6   7
HETATM    7  C10 UNL     1      -3.911  33.534  -3.771  1.00  0.00     0.090 C 
HETATM    8  C11 UNL     1      -4.040  33.169  -5.159  1.00  0.00    -0.007 C 
BRANCH   8   9
HETATM    9  C12 UNL     1      -4.999  32.234  -5.737  1.00  0.00     0.054 C 
BRANCH   9  10
HETATM   10  C13 UNL     1      -6.152  32.855  -6.420  1.00  0.00     0.171 C 
BRANCH  10  11
HETATM   11  O2  UNL     1      -7.357  32.243  -6.045  1.00  0.00    -0.389 OA
BRANCH  11  12
HETATM   12  C14 UNL     1      -8.430  33.094  -5.993  1.00  0.00     0.195 C 
BRANCH  12  13
HETATM   13  C15 UNL     1      -8.451  33.876  -7.297  1.00  0.00     0.258 C 
BRANCH  13  14
HETATM   14  N6  UNL     1      -9.352  33.170  -8.189  1.00  0.00    -0.068 N 
ATOM     15  H62 UNL     1      -9.646  32.283  -7.780  1.00  0.00     0.277 HD
ATOM     16  H61 UNL     1     -10.255  33.640  -8.239  1.00  0.00     0.277 HD
BRANCH  14  17
HETATM   17  C16 UNL     1      -8.807  32.971  -9.501  1.00  0.00     0.290 C 
BRANCH  17  18
HETATM   18  C17 UNL     1      -7.883  31.812  -9.438  1.00  0.00     0.051 A 
HETATM   19  C18 UNL     1      -6.650  31.693 -10.026  1.00  0.00     0.115 A 
HETATM   20  N7  UNL     1      -6.162  30.492  -9.717  1.00  0.00    -0.360 N 
HETATM   21  C19 UNL     1      -7.072  29.876  -8.951  1.00  0.00     0.180 A 
ATOM     22  H7  UNL     1      -5.262  30.113 -10.010  1.00  0.00     0.166 HD
HETATM   23  N8  UNL     1      -8.122  30.672  -8.777  1.00  0.00    -0.353 N 
ATOM     24  H8  UNL     1      -8.959  30.453  -8.238  1.00  0.00     0.166 HD
ENDBRANCH  17  18
ENDBRANCH  14  17
ENDBRANCH  13  14
ENDBRANCH  12  13
ENDBRANCH  11  12
ENDBRANCH  10  11
ENDBRANCH   9  10
ENDBRANCH   8   9
ENDBRANCH   6   7
BRANCH   1  25
HETATM   25  C5  UNL     1      -5.964  31.874  -2.175  1.00  0.00     0.045 C 
BRANCH  25  26
HETATM   26  C4  UNL     1      -6.259  30.460  -2.623  1.00  0.00     0.124 C 
BRANCH  26  27
HETATM   27  N4  UNL     1      -7.416  29.926  -1.945  1.00  0.00    -0.365 N 
HETATM   28  C3  UNL     1      -8.574  29.656  -2.723  1.00  0.00     0.184 C 
HETATM   29  N2  UNL     1      -8.977  28.458  -2.945  1.00  0.00    -0.363 N 
HETATM   30  N3  UNL     1      -9.306  30.735  -3.268  1.00  0.00    -0.064 NA
ATOM     31  H2  UNL     1      -8.450  27.677  -2.552  1.00  0.00     0.162 HD
ATOM     32  H4  UNL     1      -7.403  29.748  -0.941  1.00  0.00     0.162 HD
BRANCH  29  33
HETATM   33  C2  UNL     1     -10.148  28.186  -3.730  1.00  0.00     0.149 C 
BRANCH  33  34
HETATM   34  C1  UNL     1     -10.671  26.779  -3.544  1.00  0.00     0.249 C 
BRANCH  34  35
HETATM   35  N1  UNL     1     -10.043  26.099  -2.442  1.00  0.00    -0.078 N 
ATOM     36  H13 UNL     1      -9.061  26.363  -2.359  1.00  0.00     0.274 HD
ATOM     37  H12 UNL     1     -10.384  26.454  -1.548  1.00  0.00     0.274 HD
ATOM     38  H11 UNL     1     -10.147  25.086  -2.498  1.00  0.00     0.274 HD
ENDBRANCH  34  35
ENDBRANCH  33  34
ENDBRANCH  29  33
ENDBRANCH  26  27
ENDBRANCH  25  26
ENDBRANCH   1  25
TORSDOF 15
ENDMDL
