MODEL 1
REMARK VINA RESULT: -6.827543740      0.000      0.000
REMARK  16 active torsions:
REMARK  status: ('A' for Active; 'I' for Inactive)
REMARK    1  A    between atoms: N1_1  and  C1_5 
REMARK    2  A    between atoms: C1_5  and  C2_6 
REMARK    3  A    between atoms: C2_6  and  C3_7 
REMARK    4  A    between atoms: C3_7  and  N2_8 
REMARK    5  A    between atoms: N2_8  and  C4_9 
REMARK    6  A    between atoms: N2_8  and  C7_14 
REMARK    7  A    between atoms: C4_9  and  C5_10 
REMARK    8  A    between atoms: C5_10  and  C6_11 
REMARK    9  A    between atoms: C7_14  and  C8_15 
REMARK   10  A    between atoms: C8_15  and  C9_16 
REMARK   11  A    between atoms: C13_20  and  C14_21 
REMARK   12  A    between atoms: C14_21  and  C15_22 
REMARK   13  A    between atoms: C15_22  and  C16_23 
REMARK   14  A    between atoms: C17_26  and  C18_27 
REMARK   15  A    between atoms: C18_27  and  C19_28 
REMARK   16  A    between atoms: C19_28  and  N5_29 
ROOT
HETATM    1  C9  UNL     1      -9.801  30.227  -3.931  1.00  0.00     0.188 C 
HETATM    2  C10 UNL     1      -9.006  29.802  -5.133  1.00  0.00     0.039 C 
HETATM    3  C11 UNL     1      -7.603  29.657  -4.556  1.00  0.00     0.019 C 
HETATM    4  C12 UNL     1      -6.875  30.943  -4.513  1.00  0.00     0.011 C 
HETATM    5  C13 UNL     1      -6.065  30.969  -3.219  1.00  0.00    -0.008 C 
HETATM    6  C17 UNL     1      -6.803  29.991  -2.316  1.00  0.00     0.022 C 
HETATM    7  C20 UNL     1      -7.834  29.284  -3.133  1.00  0.00     0.195 C 
HETATM    8  N6  UNL     1      -9.185  29.660  -2.783  1.00  0.00    -0.066 N 
ATOM      9  H61 UNL     1      -9.720  28.884  -2.392  1.00  0.00     0.278 HD
ATOM     10  H62 UNL     1      -9.223  30.277  -1.972  1.00  0.00     0.278 HD
ENDROOT
BRANCH   1  11
HETATM   11  C8  UNL     1     -11.267  30.042  -4.071  1.00  0.00     0.063 C 
BRANCH  11  12
HETATM   12  C7  UNL     1     -11.936  29.505  -2.853  1.00  0.00     0.274 C 
BRANCH  12  13
HETATM   13  N2  UNL     1     -12.920  28.483  -3.245  1.00  0.00     0.088 N 
BRANCH  13  14
HETATM   14  C3  UNL     1     -14.226  28.966  -3.090  1.00  0.00     0.274 C 
BRANCH  14  15
HETATM   15  C2  UNL     1     -15.170  28.058  -2.309  1.00  0.00     0.057 C 
BRANCH  15  16
HETATM   16  C1  UNL     1     -16.580  28.102  -2.791  1.00  0.00     0.231 C 
BRANCH  16  17
HETATM   17  N1  UNL     1     -16.528  27.988  -4.265  1.00  0.00    -0.079 N 
ATOM     18  H13 UNL     1     -17.326  28.419  -4.732  1.00  0.00     0.274 HD
ATOM     19  H12 UNL     1     -15.804  28.567  -4.688  1.00  0.00     0.274 HD
ATOM     20  H11 UNL     1     -16.426  26.995  -4.478  1.00  0.00     0.274 HD
ENDBRANCH  16  17
ENDBRANCH  15  16
ENDBRANCH  14  15
ENDBRANCH  13  14
BRANCH  13  21
HETATM   21  C4  UNL     1     -12.513  27.841  -4.432  1.00  0.00     0.281 C 
BRANCH  21  22
HETATM   22  C5  UNL     1     -12.391  26.368  -4.371  1.00  0.00     0.129 C 
BRANCH  22  23
HETATM   23  C6  UNL     1     -11.141  25.782  -3.916  1.00  0.00     0.232 C 
HETATM   24  N3  UNL     1     -10.064  26.587  -3.467  1.00  0.00    -0.062 NA
HETATM   25  O1  UNL     1     -10.961  24.532  -3.909  1.00  0.00    -0.277 OA
ENDBRANCH  22  23
ENDBRANCH  21  22
ENDBRANCH  13  21
ENDBRANCH  12  13
ENDBRANCH  11  12
ENDBRANCH   1  11
BRANCH   6  26
HETATM   26  C18 UNL     1      -5.801  29.056  -1.699  1.00  0.00     0.034 C 
BRANCH  26  27
HETATM   27  C19 UNL     1      -5.423  29.450  -0.280  1.00  0.00     0.230 C 
BRANCH  27  28
HETATM   28  N5  UNL     1      -6.583  29.983   0.422  1.00  0.00    -0.079 N 
ATOM     29  H53 UNL     1      -7.246  30.422  -0.218  1.00  0.00     0.274 HD
ATOM     30  H52 UNL     1      -7.186  29.242   0.778  1.00  0.00     0.274 HD
ATOM     31  H51 UNL     1      -6.287  30.622   1.160  1.00  0.00     0.274 HD
ENDBRANCH  27  28
ENDBRANCH  26  27
ENDBRANCH   6  26
BRANCH   5  32
HETATM   32  C14 UNL     1      -6.137  32.363  -2.634  1.00  0.00     0.014 C 
BRANCH  32  33
HETATM   33  C15 UNL     1      -4.967  32.763  -1.799  1.00  0.00     0.100 C 
BRANCH  33  34
HETATM   34  C16 UNL     1      -3.671  32.494  -2.455  1.00  0.00     0.231 C 
HETATM   35  N4  UNL     1      -2.780  31.541  -1.838  1.00  0.00    -0.062 NA
HETATM   36  O2  UNL     1      -3.307  33.041  -3.502  1.00  0.00    -0.277 OA
ENDBRANCH  33  34
ENDBRANCH  32  33
ENDBRANCH   5  32
TORSDOF 16
ENDMDL
MODEL 2
REMARK VINA RESULT: -6.656442880      2.281      3.696
REMARK  16 active torsions:
REMARK  status: ('A' for Active; 'I' for Inactive)
REMARK    1  A    between atoms: N1_1  and  C1_5 
REMARK    2  A    between atoms: C1_5  and  C2_6 
REMARK    3  A    between atoms: C2_6  and  C3_7 
REMARK    4  A    between atoms: C3_7  and  N2_8 
REMARK    5  A    between atoms: N2_8  and  C4_9 
REMARK    6  A    between atoms: N2_8  and  C7_14 
REMARK    7  A    between atoms: C4_9  and  C5_10 
REMARK    8  A    between atoms: C5_10  and  C6_11 
REMARK    9  A    between atoms: C7_14  and  C8_15 
REMARK   10  A    between atoms: C8_15  and  C9_16 
REMARK   11  A    between atoms: C13_20  and  C14_21 
REMARK   12  A    between atoms: C14_21  and  C15_22 
REMARK   13  A    between atoms: C15_22  and  C16_23 
REMARK   14  A    between atoms: C17_26  and  C18_27 
REMARK   15  A    between atoms: C18_27  and  C19_28 
REMARK   16  A    between atoms: C19_28  and  N5_29 
ROOT
HETATM    1  C9  UNL     1     -10.108  30.072  -3.630  1.00  0.00     0.188 C 
HETATM    2  C10 UNL     1      -9.529  29.315  -4.792  1.00  0.00     0.039 C 
HETATM    3  C11 UNL     1      -8.053  29.240  -4.423  1.00  0.00     0.019 C 
HETATM    4  C12 UNL     1      -7.308  30.451  -4.824  1.00  0.00     0.011 C 
HETATM    5  C13 UNL     1      -6.295  30.753  -3.722  1.00  0.00    -0.008 C 
HETATM    6  C17 UNL     1      -6.889  30.076  -2.496  1.00  0.00     0.022 C 
HETATM    7  C20 UNL     1      -8.051  29.247  -2.934  1.00  0.00     0.195 C 
HETATM    8  N6  UNL     1      -9.320  29.776  -2.486  1.00  0.00    -0.066 N 
ATOM      9  H61 UNL     1      -9.795  29.154  -1.831  1.00  0.00     0.278 HD
ATOM     10  H62 UNL     1      -9.214  30.577  -1.864  1.00  0.00     0.278 HD
ENDROOT
BRANCH   1  11
HETATM   11  C8  UNL     1     -11.580  29.942  -3.489  1.00  0.00     0.063 C 
BRANCH  11  12
HETATM   12  C7  UNL     1     -12.192  28.911  -4.372  1.00  0.00     0.274 C 
BRANCH  12  13
HETATM   13  N2  UNL     1     -13.260  28.212  -3.641  1.00  0.00     0.088 N 
BRANCH  13  14
HETATM   14  C3  UNL     1     -13.103  26.822  -3.742  1.00  0.00     0.274 C 
BRANCH  14  15
HETATM   15  C2  UNL     1     -11.849  26.359  -4.475  1.00  0.00     0.057 C 
BRANCH  15  16
HETATM   16  C1  UNL     1     -10.938  25.526  -3.638  1.00  0.00     0.231 C 
BRANCH  16  17
HETATM   17  N1  UNL     1     -10.391  26.417  -2.592  1.00  0.00    -0.079 N 
ATOM     18  H13 UNL     1     -10.932  27.273  -2.467  1.00  0.00     0.274 HD
ATOM     19  H12 UNL     1     -10.512  26.051  -1.648  1.00  0.00     0.274 HD
ATOM     20  H11 UNL     1      -9.415  26.589  -2.836  1.00  0.00     0.274 HD
ENDBRANCH  16  17
ENDBRANCH  15  16
ENDBRANCH  14  15
ENDBRANCH  13  14
BRANCH  13  21
HETATM   21  C4  UNL     1     -13.493  28.833  -2.398  1.00  0.00     0.281 C 
BRANCH  21  22
HETATM   22  C5  UNL     1     -14.883  28.786  -1.892  1.00  0.00     0.129 C 
BRANCH  22  23
HETATM   23  C6  UNL     1     -15.130  28.264  -0.558  1.00  0.00     0.232 C 
HETATM   24  N3  UNL     1     -16.233  27.416  -0.286  1.00  0.00    -0.062 NA
HETATM   25  O1  UNL     1     -14.376  28.551   0.414  1.00  0.00    -0.277 OA
ENDBRANCH  22  23
ENDBRANCH  21  22
ENDBRANCH  13  21
ENDBRANCH  12  13
ENDBRANCH  11  12
ENDBRANCH   1  11
BRANCH   6  26
HETATM   26  C18 UNL     1      -5.813  29.270  -1.823  1.00  0.00     0.034 C 
BRANCH  26  27
HETATM   27  C19 UNL     1      -5.357  29.878  -0.506  1.00  0.00     0.230 C 
BRANCH  27  28
HETATM   28  N5  UNL     1      -6.463  29.918   0.441  1.00  0.00    -0.079 N 
ATOM     29  H53 UNL     1      -7.219  30.523   0.118  1.00  0.00     0.274 HD
ATOM     30  H52 UNL     1      -6.976  29.037   0.465  1.00  0.00     0.274 HD
ATOM     31  H51 UNL     1      -6.127  30.189   1.365  1.00  0.00     0.274 HD
ENDBRANCH  27  28
ENDBRANCH  26  27
ENDBRANCH   6  26
BRANCH   5  32
HETATM   32  C14 UNL     1      -6.247  32.252  -3.510  1.00  0.00     0.014 C 
BRANCH  32  33
HETATM   33  C15 UNL     1      -7.370  33.017  -4.126  1.00  0.00     0.100 C 
BRANCH  33  34
HETATM   34  C16 UNL     1      -8.331  33.534  -3.130  1.00  0.00     0.231 C 
HETATM   35  N4  UNL     1      -8.786  34.897  -3.265  1.00  0.00    -0.062 NA
HETATM   36  O2  UNL     1      -8.767  32.864  -2.187  1.00  0.00    -0.277 OA
ENDBRANCH  33  34
ENDBRANCH  32  33
ENDBRANCH   5  32
TORSDOF 16
ENDMDL
MODEL 3
REMARK VINA RESULT: -6.593190752      1.829      3.439
REMARK  16 active torsions:
REMARK  status: ('A' for Active; 'I' for Inactive)
REMARK    1  A    between atoms: N1_1  and  C1_5 
REMARK    2  A    between atoms: C1_5  and  C2_6 
REMARK    3  A    between atoms: C2_6  and  C3_7 
REMARK    4  A    between atoms: C3_7  and  N2_8 
REMARK    5  A    between atoms: N2_8  and  C4_9 
REMARK    6  A    between atoms: N2_8  and  C7_14 
REMARK    7  A    between atoms: C4_9  and  C5_10 
REMARK    8  A    between atoms: C5_10  and  C6_11 
REMARK    9  A    between atoms: C7_14  and  C8_15 
REMARK   10  A    between atoms: C8_15  and  C9_16 
REMARK   11  A    between atoms: C13_20  and  C14_21 
REMARK   12  A    between atoms: C14_21  and  C15_22 
REMARK   13  A    between atoms: C15_22  and  C16_23 
REMARK   14  A    between atoms: C17_26  and  C18_27 
REMARK   15  A    between atoms: C18_27  and  C19_28 
REMARK   16  A    between atoms: C19_28  and  N5_29 
ROOT
HETATM    1  C9  UNL     1      -9.523  30.329  -3.591  1.00  0.00     0.188 C 
HETATM    2  C10 UNL     1      -8.845  29.731  -4.791  1.00  0.00     0.039 C 
HETATM    3  C11 UNL     1      -7.394  29.651  -4.334  1.00  0.00     0.019 C 
HETATM    4  C12 UNL     1      -6.667  30.921  -4.541  1.00  0.00     0.011 C 
HETATM    5  C13 UNL     1      -5.738  31.118  -3.345  1.00  0.00    -0.008 C 
HETATM    6  C17 UNL     1      -6.386  30.285  -2.249  1.00  0.00     0.022 C 
HETATM    7  C20 UNL     1      -7.488  29.483  -2.857  1.00  0.00     0.195 C 
HETATM    8  N6  UNL     1      -8.800  29.921  -2.438  1.00  0.00    -0.066 N 
ATOM      9  H61 UNL     1      -9.295  29.214  -1.893  1.00  0.00     0.278 HD
ATOM     10  H62 UNL     1      -8.763  30.646  -1.722  1.00  0.00     0.278 HD
ENDROOT
BRANCH   1  11
HETATM   11  C8  UNL     1     -10.996  30.144  -3.565  1.00  0.00     0.063 C 
BRANCH  11  12
HETATM   12  C7  UNL     1     -11.553  29.485  -4.780  1.00  0.00     0.274 C 
BRANCH  12  13
HETATM   13  N2  UNL     1     -12.434  28.379  -4.376  1.00  0.00     0.088 N 
BRANCH  13  14
HETATM   14  C3  UNL     1     -11.870  27.143  -4.723  1.00  0.00     0.274 C 
BRANCH  14  15
HETATM   15  C2  UNL     1     -11.386  26.294  -3.552  1.00  0.00     0.057 C 
BRANCH  15  16
HETATM   16  C1  UNL     1      -9.970  26.557  -3.165  1.00  0.00     0.231 C 
BRANCH  16  17
HETATM   17  N1  UNL     1      -9.640  25.596  -2.091  1.00  0.00    -0.079 N 
ATOM     18  H13 UNL     1     -10.427  25.393  -1.475  1.00  0.00     0.274 HD
ATOM     19  H12 UNL     1      -9.495  24.646  -2.431  1.00  0.00     0.274 HD
ATOM     20  H11 UNL     1      -8.831  25.975  -1.598  1.00  0.00     0.274 HD
ENDBRANCH  16  17
ENDBRANCH  15  16
ENDBRANCH  14  15
ENDBRANCH  13  14
BRANCH  13  21
HETATM   21  C4  UNL     1     -12.952  28.609  -3.087  1.00  0.00     0.281 C 
BRANCH  21  22
HETATM   22  C5  UNL     1     -14.422  28.748  -2.987  1.00  0.00     0.129 C 
BRANCH  22  23
HETATM   23  C6  UNL     1     -15.250  27.555  -3.064  1.00  0.00     0.232 C 
HETATM   24  N3  UNL     1     -15.970  27.077  -1.940  1.00  0.00    -0.062 NA
HETATM   25  O1  UNL     1     -15.357  26.894  -4.135  1.00  0.00    -0.277 OA
ENDBRANCH  22  23
ENDBRANCH  21  22
ENDBRANCH  13  21
ENDBRANCH  12  13
ENDBRANCH  11  12
ENDBRANCH   1  11
BRANCH   6  26
HETATM   26  C18 UNL     1      -5.328  29.434  -1.603  1.00  0.00     0.034 C 
BRANCH  26  27
HETATM   27  C19 UNL     1      -5.681  29.036  -0.178  1.00  0.00     0.230 C 
BRANCH  27  28
HETATM   28  N5  UNL     1      -6.510  30.060   0.441  1.00  0.00    -0.079 N 
ATOM     29  H53 UNL     1      -7.444  29.712   0.661  1.00  0.00     0.274 HD
ATOM     30  H52 UNL     1      -6.204  30.277   1.389  1.00  0.00     0.274 HD
ATOM     31  H51 UNL     1      -6.544  30.892  -0.148  1.00  0.00     0.274 HD
ENDBRANCH  27  28
ENDBRANCH  26  27
ENDBRANCH   6  26
BRANCH   5  32
HETATM   32  C14 UNL     1      -5.756  32.581  -2.958  1.00  0.00     0.014 C 
BRANCH  32  33
HETATM   33  C15 UNL     1      -7.059  33.085  -2.435  1.00  0.00     0.100 C 
BRANCH  33  34
HETATM   34  C16 UNL     1      -7.654  34.137  -3.284  1.00  0.00     0.231 C 
HETATM   35  N4  UNL     1      -8.902  33.851  -3.950  1.00  0.00    -0.062 NA
HETATM   36  O2  UNL     1      -7.143  35.249  -3.456  1.00  0.00    -0.277 OA
ENDBRANCH  33  34
ENDBRANCH  32  33
ENDBRANCH   5  32
TORSDOF 16
ENDMDL
MODEL 4
REMARK VINA RESULT: -6.566201603      1.769      3.149
REMARK  16 active torsions:
REMARK  status: ('A' for Active; 'I' for Inactive)
REMARK    1  A    between atoms: N1_1  and  C1_5 
REMARK    2  A    between atoms: C1_5  and  C2_6 
REMARK    3  A    between atoms: C2_6  and  C3_7 
REMARK    4  A    between atoms: C3_7  and  N2_8 
REMARK    5  A    between atoms: N2_8  and  C4_9 
REMARK    6  A    between atoms: N2_8  and  C7_14 
REMARK    7  A    between atoms: C4_9  and  C5_10 
REMARK    8  A    between atoms: C5_10  and  C6_11 
REMARK    9  A    between atoms: C7_14  and  C8_15 
REMARK   10  A    between atoms: C8_15  and  C9_16 
REMARK   11  A    between atoms: C13_20  and  C14_21 
REMARK   12  A    between atoms: C14_21  and  C15_22 
REMARK   13  A    between atoms: C15_22  and  C16_23 
REMARK   14  A    between atoms: C17_26  and  C18_27 
REMARK   15  A    between atoms: C18_27  and  C19_28 
REMARK   16  A    between atoms: C19_28  and  N5_29 
ROOT
HETATM    1  C9  UNL     1     -10.065  30.059  -3.615  1.00  0.00     0.188 C 
HETATM    2  C10 UNL     1      -9.502  29.274  -4.766  1.00  0.00     0.039 C 
HETATM    3  C11 UNL     1      -8.022  29.200  -4.412  1.00  0.00     0.019 C 
HETATM    4  C12 UNL     1      -7.276  30.399  -4.848  1.00  0.00     0.011 C 
HETATM    5  C13 UNL     1      -6.250  30.720  -3.765  1.00  0.00    -0.008 C 
HETATM    6  C17 UNL     1      -6.833  30.073  -2.517  1.00  0.00     0.022 C 
HETATM    7  C20 UNL     1      -8.004  29.240  -2.923  1.00  0.00     0.195 C 
HETATM    8  N6  UNL     1      -9.265  29.784  -2.473  1.00  0.00    -0.066 N 
ATOM      9  H61 UNL     1      -9.736  29.180  -1.799  1.00  0.00     0.278 HD
ATOM     10  H62 UNL     1      -9.149  30.599  -1.871  1.00  0.00     0.278 HD
ENDROOT
BRANCH   1  11
HETATM   11  C8  UNL     1     -11.536  29.939  -3.454  1.00  0.00     0.063 C 
BRANCH  11  12
HETATM   12  C7  UNL     1     -12.172  28.941  -4.359  1.00  0.00     0.274 C 
BRANCH  12  13
HETATM   13  N2  UNL     1     -13.252  28.248  -3.640  1.00  0.00     0.088 N 
BRANCH  13  14
HETATM   14  C3  UNL     1     -13.101  26.857  -3.739  1.00  0.00     0.274 C 
BRANCH  14  15
HETATM   15  C2  UNL     1     -11.857  26.388  -4.486  1.00  0.00     0.057 C 
BRANCH  15  16
HETATM   16  C1  UNL     1     -10.922  25.584  -3.647  1.00  0.00     0.231 C 
BRANCH  16  17
HETATM   17  N1  UNL     1     -10.495  26.458  -2.532  1.00  0.00    -0.079 N 
ATOM     18  H13 UNL     1     -10.187  27.381  -2.839  1.00  0.00     0.274 HD
ATOM     19  H12 UNL     1     -11.269  26.769  -1.946  1.00  0.00     0.274 HD
ATOM     20  H11 UNL     1      -9.779  25.945  -2.017  1.00  0.00     0.274 HD
ENDBRANCH  16  17
ENDBRANCH  15  16
ENDBRANCH  14  15
ENDBRANCH  13  14
BRANCH  13  21
HETATM   21  C4  UNL     1     -13.495  28.870  -2.399  1.00  0.00     0.281 C 
BRANCH  21  22
HETATM   22  C5  UNL     1     -14.882  28.795  -1.889  1.00  0.00     0.129 C 
BRANCH  22  23
HETATM   23  C6  UNL     1     -15.116  28.263  -0.557  1.00  0.00     0.232 C 
HETATM   24  N3  UNL     1     -16.229  27.431  -0.275  1.00  0.00    -0.062 NA
HETATM   25  O1  UNL     1     -14.341  28.526   0.405  1.00  0.00    -0.277 OA
ENDBRANCH  22  23
ENDBRANCH  21  22
ENDBRANCH  13  21
ENDBRANCH  12  13
ENDBRANCH  11  12
ENDBRANCH   1  11
BRANCH   6  26
HETATM   26  C18 UNL     1      -5.753  29.277  -1.839  1.00  0.00     0.034 C 
BRANCH  26  27
HETATM   27  C19 UNL     1      -5.347  29.860  -0.495  1.00  0.00     0.230 C 
BRANCH  27  28
HETATM   28  N5  UNL     1      -6.495  29.916   0.400  1.00  0.00    -0.079 N 
ATOM     29  H53 UNL     1      -7.286  30.400  -0.026  1.00  0.00     0.274 HD
ATOM     30  H52 UNL     1      -6.928  29.000   0.522  1.00  0.00     0.274 HD
ATOM     31  H51 UNL     1      -6.229  30.333   1.291  1.00  0.00     0.274 HD
ENDBRANCH  27  28
ENDBRANCH  26  27
ENDBRANCH   6  26
BRANCH   5  32
HETATM   32  C14 UNL     1      -6.193  32.223  -3.586  1.00  0.00     0.014 C 
BRANCH  32  33
HETATM   33  C15 UNL     1      -4.839  32.830  -3.735  1.00  0.00     0.100 C 
BRANCH  33  34
HETATM   34  C16 UNL     1      -4.124  32.969  -2.450  1.00  0.00     0.231 C 
HETATM   35  N4  UNL     1      -2.693  32.788  -2.442  1.00  0.00    -0.062 NA
HETATM   36  O2  UNL     1      -4.685  33.231  -1.379  1.00  0.00    -0.277 OA
ENDBRANCH  33  34
ENDBRANCH  32  33
ENDBRANCH   5  32
TORSDOF 16
ENDMDL
MODEL 5
REMARK VINA RESULT: -6.386030109      3.012      4.656
REMARK  16 active torsions:
REMARK  status: ('A' for Active; 'I' for Inactive)
REMARK    1  A    between atoms: N1_1  and  C1_5 
REMARK    2  A    between atoms: C1_5  and  C2_6 
REMARK    3  A    between atoms: C2_6  and  C3_7 
REMARK    4  A    between atoms: C3_7  and  N2_8 
REMARK    5  A    between atoms: N2_8  and  C4_9 
REMARK    6  A    between atoms: N2_8  and  C7_14 
REMARK    7  A    between atoms: C4_9  and  C5_10 
REMARK    8  A    between atoms: C5_10  and  C6_11 
REMARK    9  A    between atoms: C7_14  and  C8_15 
REMARK   10  A    between atoms: C8_15  and  C9_16 
REMARK   11  A    between atoms: C13_20  and  C14_21 
REMARK   12  A    between atoms: C14_21  and  C15_22 
REMARK   13  A    between atoms: C15_22  and  C16_23 
REMARK   14  A    between atoms: C17_26  and  C18_27 
REMARK   15  A    between atoms: C18_27  and  C19_28 
REMARK   16  A    between atoms: C19_28  and  N5_29 
ROOT
HETATM    1  C9  UNL     1      -7.325  30.589  -4.895  1.00  0.00     0.188 C 
HETATM    2  C10 UNL     1      -7.132  30.417  -6.375  1.00  0.00     0.039 C 
HETATM    3  C11 UNL     1      -6.200  31.573  -6.714  1.00  0.00     0.019 C 
HETATM    4  C12 UNL     1      -6.929  32.838  -6.944  1.00  0.00     0.011 C 
HETATM    5  C13 UNL     1      -6.094  33.965  -6.343  1.00  0.00    -0.008 C 
HETATM    6  C17 UNL     1      -5.239  33.260  -5.300  1.00  0.00     0.022 C 
HETATM    7  C20 UNL     1      -5.418  31.787  -5.464  1.00  0.00     0.195 C 
HETATM    8  N6  UNL     1      -6.146  31.183  -4.371  1.00  0.00    -0.066 N 
ATOM      9  H61 UNL     1      -5.578  30.524  -3.837  1.00  0.00     0.278 HD
ATOM     10  H62 UNL     1      -6.339  31.841  -3.616  1.00  0.00     0.278 HD
ENDROOT
BRANCH   1  11
HETATM   11  C8  UNL     1      -7.840  29.382  -4.200  1.00  0.00     0.063 C 
BRANCH  11  12
HETATM   12  C7  UNL     1      -8.688  29.674  -3.011  1.00  0.00     0.274 C 
BRANCH  12  13
HETATM   13  N2  UNL     1     -10.072  29.252  -3.281  1.00  0.00     0.088 N 
BRANCH  13  14
HETATM   14  C3  UNL     1     -10.800  30.291  -3.877  1.00  0.00     0.274 C 
BRANCH  14  15
HETATM   15  C2  UNL     1     -11.244  30.037  -5.314  1.00  0.00     0.057 C 
BRANCH  15  16
HETATM   16  C1  UNL     1     -10.808  31.093  -6.272  1.00  0.00     0.231 C 
BRANCH  16  17
HETATM   17  N1  UNL     1     -11.315  30.692  -7.603  1.00  0.00    -0.079 N 
ATOM     18  H13 UNL     1     -12.291  30.394  -7.590  1.00  0.00     0.274 HD
ATOM     19  H12 UNL     1     -11.430  31.478  -8.242  1.00  0.00     0.274 HD
ATOM     20  H11 UNL     1     -10.679  29.976  -7.954  1.00  0.00     0.274 HD
ENDBRANCH  16  17
ENDBRANCH  15  16
ENDBRANCH  14  15
ENDBRANCH  13  14
BRANCH  13  21
HETATM   21  C4  UNL     1     -10.092  27.947  -3.812  1.00  0.00     0.281 C 
BRANCH  21  22
HETATM   22  C5  UNL     1     -11.030  26.996  -3.175  1.00  0.00     0.129 C 
BRANCH  22  23
HETATM   23  C6  UNL     1     -11.511  25.859  -3.943  1.00  0.00     0.232 C 
HETATM   24  N3  UNL     1     -12.782  25.873  -4.572  1.00  0.00    -0.062 NA
HETATM   25  O1  UNL     1     -10.819  24.811  -4.075  1.00  0.00    -0.277 OA
ENDBRANCH  22  23
ENDBRANCH  21  22
ENDBRANCH  13  21
ENDBRANCH  12  13
ENDBRANCH  11  12
ENDBRANCH   1  11
BRANCH   6  26
HETATM   26  C18 UNL     1      -3.812  33.700  -5.469  1.00  0.00     0.034 C 
BRANCH  26  27
HETATM   27  C19 UNL     1      -3.315  34.548  -4.310  1.00  0.00     0.230 C 
BRANCH  27  28
HETATM   28  N5  UNL     1      -2.349  35.532  -4.781  1.00  0.00    -0.079 N 
ATOM     29  H53 UNL     1      -1.610  35.699  -4.097  1.00  0.00     0.274 HD
ATOM     30  H52 UNL     1      -1.773  35.167  -5.539  1.00  0.00     0.274 HD
ATOM     31  H51 UNL     1      -2.824  36.395  -5.046  1.00  0.00     0.274 HD
ENDBRANCH  27  28
ENDBRANCH  26  27
ENDBRANCH   6  26
BRANCH   5  32
HETATM   32  C14 UNL     1      -7.026  34.947  -5.665  1.00  0.00     0.014 C 
BRANCH  32  33
HETATM   33  C15 UNL     1      -7.052  34.874  -4.175  1.00  0.00     0.100 C 
BRANCH  33  34
HETATM   34  C16 UNL     1      -8.356  34.429  -3.641  1.00  0.00     0.231 C 
HETATM   35  N4  UNL     1      -9.295  35.436  -3.208  1.00  0.00    -0.062 NA
HETATM   36  O2  UNL     1      -8.687  33.242  -3.545  1.00  0.00    -0.277 OA
ENDBRANCH  33  34
ENDBRANCH  32  33
ENDBRANCH   5  32
TORSDOF 16
ENDMDL
