MODEL 1
REMARK VINA RESULT: -7.082957242      0.000      0.000
REMARK  16 active torsions:
REMARK  status: ('A' for Active; 'I' for Inactive)
REMARK    1  A    between atoms: N1_1  and  C1_5 
REMARK    2  A    between atoms: C1_5  and  C2_6 
REMARK    3  A    between atoms: C2_6  and  C3_7 
REMARK    4  A    between atoms: C3_7  and  N2_8 
REMARK       I    between atoms: C4_10  and  N4_12 
REMARK    5  A    between atoms: N6_19  and  C8_20 
REMARK    6  A    between atoms: C8_20  and  C9_21 
REMARK    7  A    between atoms: C9_21  and  C10_22 
REMARK    8  A    between atoms: C10_22  and  C11_23 
REMARK    9  A    between atoms: C11_23  and  C12_24 
REMARK   10  A    between atoms: C12_24  and  C13_25 
REMARK   11  A    between atoms: C13_25  and  N7_26 
REMARK   12  A    between atoms: N7_26  and  C14_29 
REMARK   13  A    between atoms: C14_29  and  C15_30 
REMARK   14  A    between atoms: C15_30  and  C16_31 
REMARK   15  A    between atoms: C16_31  and  N8_32 
REMARK   16  A    between atoms: N8_32  and  C17_34 
ROOT
HETATM    1  N2  UNL     1     -12.687  26.778  -2.910  1.00  0.00    -0.364 N 
ATOM      2  H2  UNL     1     -12.611  25.971  -2.290  1.00  0.00     0.162 HD
HETATM    3  C4  UNL     1     -12.048  26.791  -4.026  1.00  0.00     0.189 C 
HETATM    4  N3  UNL     1     -11.224  25.667  -4.404  1.00  0.00    -0.063 NA
HETATM    5  N4  UNL     1     -12.171  27.917  -4.871  1.00  0.00    -0.312 N 
ATOM      6  H4  UNL     1     -12.994  27.965  -5.471  1.00  0.00     0.170 HD
HETATM    7  C5  UNL     1     -11.337  28.876  -4.944  1.00  0.00     0.173 C 
HETATM    8  N5  UNL     1     -11.526  29.989  -5.828  1.00  0.00    -0.370 N 
ATOM      9  H5  UNL     1     -11.959  29.858  -6.743  1.00  0.00     0.161 HD
HETATM   10  C6  UNL     1     -11.097  31.286  -5.405  1.00  0.00     0.141 C 
HETATM   11  C7  UNL     1      -9.802  31.341  -4.677  1.00  0.00     0.145 C 
HETATM   12  N6  UNL     1      -9.252  30.053  -4.311  1.00  0.00    -0.344 N 
HETATM   13  C18 UNL     1     -10.109  28.919  -4.130  1.00  0.00     0.287 C 
HETATM   14  O2  UNL     1      -9.795  28.041  -3.318  1.00  0.00    -0.264 OA
ENDROOT
BRANCH  12  15
HETATM   15  C8  UNL     1      -7.831  29.937  -4.124  1.00  0.00     0.126 C 
BRANCH  15  16
HETATM   16  C9  UNL     1      -7.014  30.566  -5.219  1.00  0.00     0.020 C 
BRANCH  16  17
HETATM   17  C10 UNL     1      -5.930  31.477  -4.746  1.00  0.00     0.002 C 
BRANCH  17  18
HETATM   18  C11 UNL     1      -5.348  32.152  -5.972  1.00  0.00     0.002 C 
BRANCH  18  19
HETATM   19  C12 UNL     1      -4.147  32.962  -5.521  1.00  0.00     0.027 C 
BRANCH  19  20
HETATM   20  C13 UNL     1      -4.130  32.948  -4.026  1.00  0.00     0.232 C 
BRANCH  20  21
HETATM   21  N7  UNL     1      -2.828  33.332  -3.555  1.00  0.00    -0.075 N 
ATOM     22  H72 UNL     1      -2.111  33.159  -4.259  1.00  0.00     0.277 HD
ATOM     23  H71 UNL     1      -2.742  34.346  -3.487  1.00  0.00     0.277 HD
BRANCH  21  24
HETATM   24  C14 UNL     1      -2.504  32.693  -2.308  1.00  0.00     0.234 C 
BRANCH  24  25
HETATM   25  C15 UNL     1      -3.718  31.834  -1.916  1.00  0.00     0.047 C 
BRANCH  25  26
HETATM   26  C16 UNL     1      -3.356  30.965  -0.750  1.00  0.00     0.123 C 
BRANCH  26  27
HETATM   27  N8  UNL     1      -4.484  30.744   0.115  1.00  0.00    -0.368 N 
ATOM     28  H8  UNL     1      -4.540  31.266   0.990  1.00  0.00     0.161 HD
BRANCH  27  29
HETATM   29  C17 UNL     1      -5.526  29.824  -0.202  1.00  0.00     0.348 C 
HETATM   30  O1  UNL     1      -5.341  28.847  -0.970  1.00  0.00    -0.284 OA
ENDBRANCH  27  29
ENDBRANCH  26  27
ENDBRANCH  25  26
ENDBRANCH  24  25
ENDBRANCH  21  24
ENDBRANCH  20  21
ENDBRANCH  19  20
ENDBRANCH  18  19
ENDBRANCH  17  18
ENDBRANCH  16  17
ENDBRANCH  15  16
ENDBRANCH  12  15
BRANCH   1  31
HETATM   31  C3  UNL     1     -13.508  27.894  -2.534  1.00  0.00     0.124 C 
BRANCH  31  32
HETATM   32  C2  UNL     1     -14.959  27.477  -2.719  1.00  0.00     0.047 C 
BRANCH  32  33
HETATM   33  C1  UNL     1     -15.553  28.103  -3.963  1.00  0.00     0.231 C 
BRANCH  33  34
HETATM   34  N1  UNL     1     -16.995  28.036  -3.835  1.00  0.00    -0.079 N 
ATOM     35  H13 UNL     1     -17.298  27.617  -2.955  1.00  0.00     0.274 HD
ATOM     36  H12 UNL     1     -17.426  28.950  -3.702  1.00  0.00     0.274 HD
ATOM     37  H11 UNL     1     -17.351  27.543  -4.654  1.00  0.00     0.274 HD
ENDBRANCH  33  34
ENDBRANCH  32  33
ENDBRANCH  31  32
ENDBRANCH   1  31
TORSDOF 16
ENDMDL
MODEL 2
REMARK VINA RESULT: -7.018849048      1.381      1.872
REMARK  16 active torsions:
REMARK  status: ('A' for Active; 'I' for Inactive)
REMARK    1  A    between atoms: N1_1  and  C1_5 
REMARK    2  A    between atoms: C1_5  and  C2_6 
REMARK    3  A    between atoms: C2_6  and  C3_7 
REMARK    4  A    between atoms: C3_7  and  N2_8 
REMARK       I    between atoms: C4_10  and  N4_12 
REMARK    5  A    between atoms: N6_19  and  C8_20 
REMARK    6  A    between atoms: C8_20  and  C9_21 
REMARK    7  A    between atoms: C9_21  and  C10_22 
REMARK    8  A    between atoms: C10_22  and  C11_23 
REMARK    9  A    between atoms: C11_23  and  C12_24 
REMARK   10  A    between atoms: C12_24  and  C13_25 
REMARK   11  A    between atoms: C13_25  and  N7_26 
REMARK   12  A    between atoms: N7_26  and  C14_29 
REMARK   13  A    between atoms: C14_29  and  C15_30 
REMARK   14  A    between atoms: C15_30  and  C16_31 
REMARK   15  A    between atoms: C16_31  and  N8_32 
REMARK   16  A    between atoms: N8_32  and  C17_34 
ROOT
HETATM    1  N2  UNL     1     -12.555  26.985  -2.733  1.00  0.00    -0.364 N 
ATOM      2  H2  UNL     1     -12.427  26.188  -2.110  1.00  0.00     0.162 HD
HETATM    3  C4  UNL     1     -12.063  26.956  -3.920  1.00  0.00     0.189 C 
HETATM    4  N3  UNL     1     -11.330  25.798  -4.374  1.00  0.00    -0.063 NA
HETATM    5  N4  UNL     1     -12.256  28.071  -4.768  1.00  0.00    -0.312 N 
ATOM      6  H4  UNL     1     -13.147  28.137  -5.259  1.00  0.00     0.170 HD
HETATM    7  C5  UNL     1     -11.407  28.999  -4.967  1.00  0.00     0.173 C 
HETATM    8  N5  UNL     1     -11.672  30.102  -5.844  1.00  0.00    -0.370 N 
ATOM      9  H5  UNL     1     -12.221  29.970  -6.694  1.00  0.00     0.161 HD
HETATM   10  C6  UNL     1     -11.151  31.390  -5.507  1.00  0.00     0.141 C 
HETATM   11  C7  UNL     1      -9.773  31.414  -4.950  1.00  0.00     0.145 C 
HETATM   12  N6  UNL     1      -9.223  30.113  -4.629  1.00  0.00    -0.344 N 
HETATM   13  C18 UNL     1     -10.086  29.014  -4.316  1.00  0.00     0.287 C 
HETATM   14  O2  UNL     1      -9.700  28.140  -3.531  1.00  0.00    -0.264 OA
ENDROOT
BRANCH  12  15
HETATM   15  C8  UNL     1      -7.794  29.952  -4.620  1.00  0.00     0.126 C 
BRANCH  15  16
HETATM   16  C9  UNL     1      -7.111  30.454  -5.863  1.00  0.00     0.020 C 
BRANCH  16  17
HETATM   17  C10 UNL     1      -6.017  31.440  -5.621  1.00  0.00     0.002 C 
BRANCH  17  18
HETATM   18  C11 UNL     1      -5.932  31.654  -4.123  1.00  0.00     0.002 C 
BRANCH  18  19
HETATM   19  C12 UNL     1      -4.571  32.255  -3.823  1.00  0.00     0.027 C 
BRANCH  19  20
HETATM   20  C13 UNL     1      -4.403  32.269  -2.338  1.00  0.00     0.232 C 
BRANCH  20  21
HETATM   21  N7  UNL     1      -3.600  31.148  -1.933  1.00  0.00    -0.075 N 
ATOM     22  H72 UNL     1      -3.554  30.439  -2.665  1.00  0.00     0.277 HD
ATOM     23  H71 UNL     1      -2.611  31.396  -1.890  1.00  0.00     0.277 HD
BRANCH  21  24
HETATM   24  C14 UNL     1      -4.055  30.589  -0.689  1.00  0.00     0.234 C 
BRANCH  24  25
HETATM   25  C15 UNL     1      -5.181  29.598  -1.028  1.00  0.00     0.047 C 
BRANCH  25  26
HETATM   26  C16 UNL     1      -6.402  29.942  -0.231  1.00  0.00     0.123 C 
BRANCH  26  27
HETATM   27  N8  UNL     1      -7.556  30.109  -1.076  1.00  0.00    -0.368 N 
ATOM     28  H8  UNL     1      -7.884  29.310  -1.620  1.00  0.00     0.161 HD
BRANCH  27  29
HETATM   29  C17 UNL     1      -8.257  31.345  -1.182  1.00  0.00     0.348 C 
HETATM   30  O1  UNL     1      -9.494  31.393  -1.398  1.00  0.00    -0.284 OA
ENDBRANCH  27  29
ENDBRANCH  26  27
ENDBRANCH  25  26
ENDBRANCH  24  25
ENDBRANCH  21  24
ENDBRANCH  20  21
ENDBRANCH  19  20
ENDBRANCH  18  19
ENDBRANCH  17  18
ENDBRANCH  16  17
ENDBRANCH  15  16
ENDBRANCH  12  15
BRANCH   1  31
HETATM   31  C3  UNL     1     -13.285  28.135  -2.280  1.00  0.00     0.124 C 
BRANCH  31  32
HETATM   32  C2  UNL     1     -14.756  27.750  -2.224  1.00  0.00     0.047 C 
BRANCH  32  33
HETATM   33  C1  UNL     1     -15.526  28.366  -3.373  1.00  0.00     0.231 C 
BRANCH  33  34
HETATM   34  N1  UNL     1     -15.748  27.321  -4.353  1.00  0.00    -0.079 N 
ATOM     35  H13 UNL     1     -15.673  26.383  -3.959  1.00  0.00     0.274 HD
ATOM     36  H12 UNL     1     -16.719  27.260  -4.657  1.00  0.00     0.274 HD
ATOM     37  H11 UNL     1     -15.098  27.483  -5.123  1.00  0.00     0.274 HD
ENDBRANCH  33  34
ENDBRANCH  32  33
ENDBRANCH  31  32
ENDBRANCH   1  31
TORSDOF 16
ENDMDL
MODEL 3
REMARK VINA RESULT: -6.878405661      3.048      5.258
REMARK  16 active torsions:
REMARK  status: ('A' for Active; 'I' for Inactive)
REMARK    1  A    between atoms: N1_1  and  C1_5 
REMARK    2  A    between atoms: C1_5  and  C2_6 
REMARK    3  A    between atoms: C2_6  and  C3_7 
REMARK    4  A    between atoms: C3_7  and  N2_8 
REMARK       I    between atoms: C4_10  and  N4_12 
REMARK    5  A    between atoms: N6_19  and  C8_20 
REMARK    6  A    between atoms: C8_20  and  C9_21 
REMARK    7  A    between atoms: C9_21  and  C10_22 
REMARK    8  A    between atoms: C10_22  and  C11_23 
REMARK    9  A    between atoms: C11_23  and  C12_24 
REMARK   10  A    between atoms: C12_24  and  C13_25 
REMARK   11  A    between atoms: C13_25  and  N7_26 
REMARK   12  A    between atoms: N7_26  and  C14_29 
REMARK   13  A    between atoms: C14_29  and  C15_30 
REMARK   14  A    between atoms: C15_30  and  C16_31 
REMARK   15  A    between atoms: C16_31  and  N8_32 
REMARK   16  A    between atoms: N8_32  and  C17_34 
ROOT
HETATM    1  N2  UNL     1     -13.195  26.630  -3.052  1.00  0.00    -0.364 N 
ATOM      2  H2  UNL     1     -13.210  25.769  -2.506  1.00  0.00     0.162 HD
HETATM    3  C4  UNL     1     -12.468  26.705  -4.111  1.00  0.00     0.189 C 
HETATM    4  N3  UNL     1     -11.675  25.573  -4.528  1.00  0.00    -0.063 NA
HETATM    5  N4  UNL     1     -12.465  27.907  -4.855  1.00  0.00    -0.312 N 
ATOM      6  H4  UNL     1     -13.235  28.056  -5.508  1.00  0.00     0.170 HD
HETATM    7  C5  UNL     1     -11.580  28.818  -4.776  1.00  0.00     0.173 C 
HETATM    8  N5  UNL     1     -11.641  30.014  -5.564  1.00  0.00    -0.370 N 
ATOM      9  H5  UNL     1     -12.005  29.990  -6.517  1.00  0.00     0.161 HD
HETATM   10  C6  UNL     1     -11.182  31.241  -4.991  1.00  0.00     0.141 C 
HETATM   11  C7  UNL     1      -9.948  31.157  -4.166  1.00  0.00     0.145 C 
HETATM   12  N6  UNL     1      -9.496  29.811  -3.881  1.00  0.00    -0.344 N 
HETATM   13  C18 UNL     1     -10.421  28.718  -3.871  1.00  0.00     0.287 C 
HETATM   14  O2  UNL     1     -10.219  27.754  -3.122  1.00  0.00    -0.264 OA
ENDROOT
BRANCH  12  15
HETATM   15  C8  UNL     1      -8.102  29.597  -3.599  1.00  0.00     0.126 C 
BRANCH  15  16
HETATM   16  C9  UNL     1      -7.213  29.663  -4.810  1.00  0.00     0.020 C 
BRANCH  16  17
HETATM   17  C10 UNL     1      -6.514  30.968  -5.003  1.00  0.00     0.002 C 
BRANCH  17  18
HETATM   18  C11 UNL     1      -6.444  31.221  -6.496  1.00  0.00     0.002 C 
BRANCH  18  19
HETATM   19  C12 UNL     1      -7.579  30.450  -7.145  1.00  0.00     0.027 C 
BRANCH  19  20
HETATM   20  C13 UNL     1      -7.173  30.152  -8.552  1.00  0.00     0.232 C 
BRANCH  20  21
HETATM   21  N7  UNL     1      -7.964  30.938  -9.459  1.00  0.00    -0.075 N 
ATOM     22  H72 UNL     1      -8.368  30.361 -10.196  1.00  0.00     0.277 HD
ATOM     23  H71 UNL     1      -8.826  31.259  -9.018  1.00  0.00     0.277 HD
BRANCH  21  24
HETATM   24  C14 UNL     1      -7.213  32.036 -10.005  1.00  0.00     0.234 C 
BRANCH  24  25
HETATM   25  C15 UNL     1      -8.044  33.308  -9.770  1.00  0.00     0.047 C 
BRANCH  25  26
HETATM   26  C16 UNL     1      -9.444  33.084 -10.257  1.00  0.00     0.123 C 
BRANCH  26  27
HETATM   27  N8  UNL     1     -10.416  33.510  -9.286  1.00  0.00    -0.368 N 
ATOM     28  H8  UNL     1     -10.669  34.497  -9.245  1.00  0.00     0.161 HD
BRANCH  27  29
HETATM   29  C17 UNL     1     -11.041  32.605  -8.378  1.00  0.00     0.348 C 
HETATM   30  O1  UNL     1     -10.762  31.379  -8.361  1.00  0.00    -0.284 OA
ENDBRANCH  27  29
ENDBRANCH  26  27
ENDBRANCH  25  26
ENDBRANCH  24  25
ENDBRANCH  21  24
ENDBRANCH  20  21
ENDBRANCH  19  20
ENDBRANCH  18  19
ENDBRANCH  17  18
ENDBRANCH  16  17
ENDBRANCH  15  16
ENDBRANCH  12  15
BRANCH   1  31
HETATM   31  C3  UNL     1     -13.985  27.754  -2.637  1.00  0.00     0.124 C 
BRANCH  31  32
HETATM   32  C2  UNL     1     -15.440  27.426  -2.937  1.00  0.00     0.047 C 
BRANCH  32  33
HETATM   33  C1  UNL     1     -16.321  27.702  -1.737  1.00  0.00     0.231 C 
BRANCH  33  34
HETATM   34  N1  UNL     1     -15.876  26.833  -0.665  1.00  0.00    -0.079 N 
ATOM     35  H13 UNL     1     -16.325  25.918  -0.683  1.00  0.00     0.274 HD
ATOM     36  H12 UNL     1     -14.916  26.513  -0.785  1.00  0.00     0.274 HD
ATOM     37  H11 UNL     1     -16.024  27.333   0.212  1.00  0.00     0.274 HD
ENDBRANCH  33  34
ENDBRANCH  32  33
ENDBRANCH  31  32
ENDBRANCH   1  31
TORSDOF 16
ENDMDL
MODEL 4
REMARK VINA RESULT: -6.803417593      2.438      4.412
REMARK  16 active torsions:
REMARK  status: ('A' for Active; 'I' for Inactive)
REMARK    1  A    between atoms: N1_1  and  C1_5 
REMARK    2  A    between atoms: C1_5  and  C2_6 
REMARK    3  A    between atoms: C2_6  and  C3_7 
REMARK    4  A    between atoms: C3_7  and  N2_8 
REMARK       I    between atoms: C4_10  and  N4_12 
REMARK    5  A    between atoms: N6_19  and  C8_20 
REMARK    6  A    between atoms: C8_20  and  C9_21 
REMARK    7  A    between atoms: C9_21  and  C10_22 
REMARK    8  A    between atoms: C10_22  and  C11_23 
REMARK    9  A    between atoms: C11_23  and  C12_24 
REMARK   10  A    between atoms: C12_24  and  C13_25 
REMARK   11  A    between atoms: C13_25  and  N7_26 
REMARK   12  A    between atoms: N7_26  and  C14_29 
REMARK   13  A    between atoms: C14_29  and  C15_30 
REMARK   14  A    between atoms: C15_30  and  C16_31 
REMARK   15  A    between atoms: C16_31  and  N8_32 
REMARK   16  A    between atoms: N8_32  and  C17_34 
ROOT
HETATM    1  N2  UNL     1     -12.915  26.726  -2.928  1.00  0.00    -0.364 N 
ATOM      2  H2  UNL     1     -12.917  25.886  -2.350  1.00  0.00     0.162 HD
HETATM    3  C4  UNL     1     -12.273  26.736  -4.043  1.00  0.00     0.189 C 
HETATM    4  N3  UNL     1     -11.557  25.561  -4.478  1.00  0.00    -0.063 NA
HETATM    5  N4  UNL     1     -12.288  27.910  -4.830  1.00  0.00    -0.312 N 
ATOM      6  H4  UNL     1     -13.101  28.065  -5.425  1.00  0.00     0.170 HD
HETATM    7  C5  UNL     1     -11.367  28.789  -4.855  1.00  0.00     0.173 C 
HETATM    8  N5  UNL     1     -11.448  29.958  -5.682  1.00  0.00    -0.370 N 
ATOM      9  H5  UNL     1     -11.888  29.915  -6.601  1.00  0.00     0.161 HD
HETATM   10  C6  UNL     1     -10.902  31.186  -5.194  1.00  0.00     0.141 C 
HETATM   11  C7  UNL     1      -9.610  31.084  -4.466  1.00  0.00     0.145 C 
HETATM   12  N6  UNL     1      -9.184  29.732  -4.166  1.00  0.00    -0.344 N 
HETATM   13  C18 UNL     1     -10.144  28.676  -4.042  1.00  0.00     0.287 C 
HETATM   14  O2  UNL     1      -9.916  27.733  -3.275  1.00  0.00    -0.264 OA
ENDROOT
BRANCH  12  15
HETATM   15  C8  UNL     1      -7.781  29.475  -3.987  1.00  0.00     0.126 C 
BRANCH  15  16
HETATM   16  C9  UNL     1      -6.881  30.481  -4.651  1.00  0.00     0.020 C 
BRANCH  16  17
HETATM   17  C10 UNL     1      -6.039  31.281  -3.714  1.00  0.00     0.002 C 
BRANCH  17  18
HETATM   18  C11 UNL     1      -5.175  32.196  -4.560  1.00  0.00     0.002 C 
BRANCH  18  19
HETATM   19  C12 UNL     1      -5.516  31.930  -6.015  1.00  0.00     0.027 C 
BRANCH  19  20
HETATM   20  C13 UNL     1      -5.802  33.249  -6.658  1.00  0.00     0.232 C 
BRANCH  20  21
HETATM   21  N7  UNL     1      -6.927  33.120  -7.543  1.00  0.00    -0.075 N 
ATOM     22  H72 UNL     1      -7.054  32.154  -7.845  1.00  0.00     0.277 HD
ATOM     23  H71 UNL     1      -7.808  33.248  -7.045  1.00  0.00     0.277 HD
BRANCH  21  24
HETATM   24  C14 UNL     1      -6.825  34.013  -8.666  1.00  0.00     0.234 C 
BRANCH  24  25
HETATM   25  C15 UNL     1      -6.783  33.139  -9.930  1.00  0.00     0.047 C 
BRANCH  25  26
HETATM   26  C16 UNL     1      -7.929  32.173  -9.905  1.00  0.00     0.123 C 
BRANCH  26  27
HETATM   27  N8  UNL     1      -7.491  30.827 -10.163  1.00  0.00    -0.368 N 
ATOM     28  H8  UNL     1      -7.410  30.515 -11.131  1.00  0.00     0.161 HD
BRANCH  27  29
HETATM   29  C17 UNL     1      -7.168  29.911  -9.120  1.00  0.00     0.348 C 
HETATM   30  O1  UNL     1      -7.613  30.047  -7.952  1.00  0.00    -0.284 OA
ENDBRANCH  27  29
ENDBRANCH  26  27
ENDBRANCH  25  26
ENDBRANCH  24  25
ENDBRANCH  21  24
ENDBRANCH  20  21
ENDBRANCH  19  20
ENDBRANCH  18  19
ENDBRANCH  17  18
ENDBRANCH  16  17
ENDBRANCH  15  16
ENDBRANCH  12  15
BRANCH   1  31
HETATM   31  C3  UNL     1     -13.629  27.894  -2.495  1.00  0.00     0.124 C 
BRANCH  31  32
HETATM   32  C2  UNL     1     -15.115  27.606  -2.652  1.00  0.00     0.047 C 
BRANCH  32  33
HETATM   33  C1  UNL     1     -15.656  28.209  -3.930  1.00  0.00     0.231 C 
BRANCH  33  34
HETATM   34  N1  UNL     1     -17.096  28.040  -3.912  1.00  0.00    -0.079 N 
ATOM     35  H13 UNL     1     -17.577  28.772  -3.390  1.00  0.00     0.274 HD
ATOM     36  H12 UNL     1     -17.529  28.217  -4.818  1.00  0.00     0.274 HD
ATOM     37  H11 UNL     1     -17.288  27.104  -3.555  1.00  0.00     0.274 HD
ENDBRANCH  33  34
ENDBRANCH  32  33
ENDBRANCH  31  32
ENDBRANCH   1  31
TORSDOF 16
ENDMDL
MODEL 5
REMARK VINA RESULT: -6.776931545      1.805      2.437
REMARK  16 active torsions:
REMARK  status: ('A' for Active; 'I' for Inactive)
REMARK    1  A    between atoms: N1_1  and  C1_5 
REMARK    2  A    between atoms: C1_5  and  C2_6 
REMARK    3  A    between atoms: C2_6  and  C3_7 
REMARK    4  A    between atoms: C3_7  and  N2_8 
REMARK       I    between atoms: C4_10  and  N4_12 
REMARK    5  A    between atoms: N6_19  and  C8_20 
REMARK    6  A    between atoms: C8_20  and  C9_21 
REMARK    7  A    between atoms: C9_21  and  C10_22 
REMARK    8  A    between atoms: C10_22  and  C11_23 
REMARK    9  A    between atoms: C11_23  and  C12_24 
REMARK   10  A    between atoms: C12_24  and  C13_25 
REMARK   11  A    between atoms: C13_25  and  N7_26 
REMARK   12  A    between atoms: N7_26  and  C14_29 
REMARK   13  A    between atoms: C14_29  and  C15_30 
REMARK   14  A    between atoms: C15_30  and  C16_31 
REMARK   15  A    between atoms: C16_31  and  N8_32 
REMARK   16  A    between atoms: N8_32  and  C17_34 
ROOT
HETATM    1  N2  UNL     1     -12.561  26.990  -2.817  1.00  0.00    -0.364 N 
ATOM      2  H2  UNL     1     -12.462  26.170  -2.219  1.00  0.00     0.162 HD
HETATM    3  C4  UNL     1     -12.058  26.985  -4.001  1.00  0.00     0.189 C 
HETATM    4  N3  UNL     1     -11.356  25.820  -4.486  1.00  0.00    -0.063 NA
HETATM    5  N4  UNL     1     -12.211  28.131  -4.814  1.00  0.00    -0.312 N 
ATOM      6  H4  UNL     1     -13.095  28.239  -5.311  1.00  0.00     0.170 HD
HETATM    7  C5  UNL     1     -11.334  29.039  -4.977  1.00  0.00     0.173 C 
HETATM    8  N5  UNL     1     -11.557  30.177  -5.821  1.00  0.00    -0.370 N 
ATOM      9  H5  UNL     1     -12.102  30.088  -6.678  1.00  0.00     0.161 HD
HETATM   10  C6  UNL     1     -11.002  31.437  -5.438  1.00  0.00     0.141 C 
HETATM   11  C7  UNL     1      -9.629  31.402  -4.869  1.00  0.00     0.145 C 
HETATM   12  N6  UNL     1      -9.120  30.077  -4.585  1.00  0.00    -0.344 N 
HETATM   13  C18 UNL     1     -10.018  28.994  -4.315  1.00  0.00     0.287 C 
HETATM   14  O2  UNL     1      -9.665  28.084  -3.554  1.00  0.00    -0.264 OA
ENDROOT
BRANCH  12  15
HETATM   15  C8  UNL     1      -7.697  29.872  -4.570  1.00  0.00     0.126 C 
BRANCH  15  16
HETATM   16  C9  UNL     1      -6.914  31.039  -4.032  1.00  0.00     0.020 C 
BRANCH  16  17
HETATM   17  C10 UNL     1      -5.843  31.545  -4.940  1.00  0.00     0.002 C 
BRANCH  17  18
HETATM   18  C11 UNL     1      -4.825  32.261  -4.075  1.00  0.00     0.002 C 
BRANCH  18  19
HETATM   19  C12 UNL     1      -5.415  32.386  -2.682  1.00  0.00     0.027 C 
BRANCH  19  20
HETATM   20  C13 UNL     1      -4.279  32.375  -1.710  1.00  0.00     0.232 C 
BRANCH  20  21
HETATM   21  N7  UNL     1      -4.510  31.370  -0.710  1.00  0.00    -0.075 N 
ATOM     22  H72 UNL     1      -5.108  31.720   0.039  1.00  0.00     0.277 HD
ATOM     23  H71 UNL     1      -5.115  30.628  -1.062  1.00  0.00     0.277 HD
BRANCH  21  24
HETATM   24  C14 UNL     1      -3.277  30.841  -0.193  1.00  0.00     0.234 C 
BRANCH  24  25
HETATM   25  C15 UNL     1      -2.481  30.306  -1.394  1.00  0.00     0.047 C 
BRANCH  25  26
HETATM   26  C16 UNL     1      -1.063  30.052  -0.978  1.00  0.00     0.123 C 
BRANCH  26  27
HETATM   27  N8  UNL     1      -0.139  30.862  -1.727  1.00  0.00    -0.368 N 
ATOM     28  H8  UNL     1       0.664  30.411  -2.165  1.00  0.00     0.161 HD
BRANCH  27  29
HETATM   29  C17 UNL     1      -0.302  32.270  -1.880  1.00  0.00     0.348 C 
HETATM   30  O1  UNL     1       0.224  33.092  -1.088  1.00  0.00    -0.284 OA
ENDBRANCH  27  29
ENDBRANCH  26  27
ENDBRANCH  25  26
ENDBRANCH  24  25
ENDBRANCH  21  24
ENDBRANCH  20  21
ENDBRANCH  19  20
ENDBRANCH  18  19
ENDBRANCH  17  18
ENDBRANCH  16  17
ENDBRANCH  15  16
ENDBRANCH  12  15
BRANCH   1  31
HETATM   31  C3  UNL     1     -13.260  28.147  -2.334  1.00  0.00     0.124 C 
BRANCH  31  32
HETATM   32  C2  UNL     1     -14.741  27.798  -2.285  1.00  0.00     0.047 C 
BRANCH  32  33
HETATM   33  C1  UNL     1     -15.480  28.386  -3.468  1.00  0.00     0.231 C 
BRANCH  33  34
HETATM   34  N1  UNL     1     -15.742  27.304  -4.396  1.00  0.00    -0.079 N 
ATOM     35  H13 UNL     1     -16.456  27.535  -5.087  1.00  0.00     0.274 HD
ATOM     36  H12 UNL     1     -14.974  27.142  -5.046  1.00  0.00     0.274 HD
ATOM     37  H11 UNL     1     -15.976  26.479  -3.842  1.00  0.00     0.274 HD
ENDBRANCH  33  34
ENDBRANCH  32  33
ENDBRANCH  31  32
ENDBRANCH   1  31
TORSDOF 16
ENDMDL
