MODEL 1
REMARK VINA RESULT: -7.577965438      0.000      0.000
REMARK  16 active torsions:
REMARK  status: ('A' for Active; 'I' for Inactive)
REMARK    1  A    between atoms: C1_2  and  N1_3 
REMARK    2  A    between atoms: N1_3  and  C2_5 
REMARK    3  A    between atoms: C2_5  and  N2_6 
REMARK    4  A    between atoms: N2_6  and  C3_9 
REMARK    5  A    between atoms: C3_9  and  C4_10 
REMARK    6  A    between atoms: C4_10  and  C5_11 
REMARK    7  A    between atoms: C5_11  and  N3_12 
REMARK    8  A    between atoms: N3_12  and  C6_15 
REMARK    9  A    between atoms: C6_15  and  C7_16 
REMARK   10  A    between atoms: C7_16  and  C8_17 
REMARK   11  A    between atoms: C8_17  and  N4_18 
REMARK   12  A    between atoms: N4_18  and  C9_21 
REMARK   13  A    between atoms: C9_21  and  C10_22 
REMARK   14  A    between atoms: N5_26  and  C13_27 
REMARK   15  A    between atoms: C13_27  and  C14_28 
REMARK   16  A    between atoms: C14_28  and  C15_29 
ROOT
HETATM    1  N4  UNL     1      -9.668  28.967  -3.029  1.00  0.00    -0.073 N 
ATOM      2  H41 UNL     1      -9.858  28.402  -2.201  1.00  0.00     0.277 HD
ATOM      3  H42 UNL     1      -9.590  28.225  -3.725  1.00  0.00     0.277 HD
ENDROOT
BRANCH   1   4
HETATM    4  C8  UNL     1      -8.409  29.680  -2.890  1.00  0.00     0.234 C 
BRANCH   4   5
HETATM    5  C7  UNL     1      -7.324  28.721  -3.283  1.00  0.00     0.055 C 
BRANCH   5   6
HETATM    6  C6  UNL     1      -6.227  28.730  -2.278  1.00  0.00     0.233 C 
BRANCH   6   7
HETATM    7  N3  UNL     1      -6.533  29.518  -1.123  1.00  0.00    -0.075 N 
ATOM      8  H32 UNL     1      -7.366  29.161  -0.655  1.00  0.00     0.277 HD
ATOM      9  H31 UNL     1      -6.872  30.441  -1.398  1.00  0.00     0.277 HD
BRANCH   7  10
HETATM   10  C5  UNL     1      -5.449  29.636  -0.199  1.00  0.00     0.233 C 
BRANCH  10  11
HETATM   11  C4  UNL     1      -4.158  30.146  -0.826  1.00  0.00     0.055 C 
BRANCH  11  12
HETATM   12  C3  UNL     1      -3.426  31.053   0.138  1.00  0.00     0.236 C 
BRANCH  12  13
HETATM   13  N2  UNL     1      -2.028  30.689   0.260  1.00  0.00    -0.059 N 
ATOM     14  H22 UNL     1      -1.865  30.117   1.089  1.00  0.00     0.279 HD
ATOM     15  H21 UNL     1      -1.455  31.496   0.507  1.00  0.00     0.279 HD
BRANCH  13  16
HETATM   16  C2  UNL     1      -1.535  30.039  -0.929  1.00  0.00     0.356 C 
BRANCH  16  17
HETATM   17  N1  UNL     1      -0.165  29.636  -0.704  1.00  0.00    -0.345 N 
ATOM     18  H1  UNL     1       0.367  29.183  -1.448  1.00  0.00     0.163 HD
BRANCH  17  19
HETATM   19  C1  UNL     1       0.431  29.875   0.556  1.00  0.00     0.349 C 
HETATM   20  O1  UNL     1       0.202  29.110   1.512  1.00  0.00    -0.284 OA
ENDBRANCH  17  19
ENDBRANCH  16  17
ENDBRANCH  13  16
ENDBRANCH  12  13
ENDBRANCH  11  12
ENDBRANCH  10  11
ENDBRANCH   7  10
ENDBRANCH   6   7
ENDBRANCH   5   6
ENDBRANCH   4   5
ENDBRANCH   1   4
BRANCH   1  21
HETATM   21  C9  UNL     1     -10.787  29.835  -3.328  1.00  0.00     0.255 C 
BRANCH  21  22
HETATM   22  C10 UNL     1     -11.785  28.951  -4.073  1.00  0.00     0.134 C 
HETATM   23  C11 UNL     1     -11.140  27.592  -4.164  1.00  0.00     0.129 C 
HETATM   24  C12 UNL     1     -12.304  26.663  -4.086  1.00  0.00     0.236 C 
HETATM   25  O2  UNL     1     -12.162  25.431  -4.244  1.00  0.00    -0.272 OA
HETATM   26  N5  UNL     1     -13.446  27.452  -3.826  1.00  0.00    -0.264 N 
HETATM   27  N6  UNL     1     -13.011  28.742  -3.382  1.00  0.00    -0.129 NA
BRANCH  26  28
HETATM   28  C13 UNL     1     -14.807  27.038  -3.973  1.00  0.00     0.152 C 
BRANCH  28  29
HETATM   29  C14 UNL     1     -15.864  28.065  -3.985  1.00  0.00     0.060 C 
BRANCH  29  30
HETATM   30  C15 UNL     1     -16.578  28.195  -2.727  1.00  0.00    -0.057 A 
HETATM   31  C16 UNL     1     -17.809  28.868  -2.685  1.00  0.00     0.007 A 
HETATM   32  C17 UNL     1     -18.495  28.989  -1.496  1.00  0.00     0.001 A 
HETATM   33  C18 UNL     1     -18.009  28.462  -0.321  1.00  0.00     0.000 A 
HETATM   34  C19 UNL     1     -16.800  27.802  -0.371  1.00  0.00     0.001 A 
HETATM   35  C20 UNL     1     -16.083  27.665  -1.556  1.00  0.00     0.007 A 
ENDBRANCH  29  30
ENDBRANCH  28  29
ENDBRANCH  26  28
ENDBRANCH  21  22
ENDBRANCH   1  21
TORSDOF 16
ENDMDL
MODEL 2
REMARK VINA RESULT: -7.398449545      1.382      1.734
REMARK  16 active torsions:
REMARK  status: ('A' for Active; 'I' for Inactive)
REMARK    1  A    between atoms: C1_2  and  N1_3 
REMARK    2  A    between atoms: N1_3  and  C2_5 
REMARK    3  A    between atoms: C2_5  and  N2_6 
REMARK    4  A    between atoms: N2_6  and  C3_9 
REMARK    5  A    between atoms: C3_9  and  C4_10 
REMARK    6  A    between atoms: C4_10  and  C5_11 
REMARK    7  A    between atoms: C5_11  and  N3_12 
REMARK    8  A    between atoms: N3_12  and  C6_15 
REMARK    9  A    between atoms: C6_15  and  C7_16 
REMARK   10  A    between atoms: C7_16  and  C8_17 
REMARK   11  A    between atoms: C8_17  and  N4_18 
REMARK   12  A    between atoms: N4_18  and  C9_21 
REMARK   13  A    between atoms: C9_21  and  C10_22 
REMARK   14  A    between atoms: N5_26  and  C13_27 
REMARK   15  A    between atoms: C13_27  and  C14_28 
REMARK   16  A    between atoms: C14_28  and  C15_29 
ROOT
HETATM    1  N4  UNL     1      -9.496  29.085  -3.297  1.00  0.00    -0.073 N 
ATOM      2  H41 UNL     1      -9.383  28.511  -2.461  1.00  0.00     0.277 HD
ATOM      3  H42 UNL     1      -9.529  28.349  -4.003  1.00  0.00     0.277 HD
ENDROOT
BRANCH   1   4
HETATM    4  C8  UNL     1      -8.338  29.941  -3.496  1.00  0.00     0.234 C 
BRANCH   4   5
HETATM    5  C7  UNL     1      -7.397  29.666  -2.361  1.00  0.00     0.055 C 
BRANCH   5   6
HETATM    6  C6  UNL     1      -7.579  30.664  -1.274  1.00  0.00     0.233 C 
BRANCH   6   7
HETATM    7  N3  UNL     1      -6.964  30.269  -0.043  1.00  0.00    -0.075 N 
ATOM      8  H32 UNL     1      -7.624  29.755   0.540  1.00  0.00     0.277 HD
ATOM      9  H31 UNL     1      -6.802  31.080   0.555  1.00  0.00     0.277 HD
BRANCH   7  10
HETATM   10  C5  UNL     1      -5.757  29.522  -0.214  1.00  0.00     0.233 C 
BRANCH  10  11
HETATM   11  C4  UNL     1      -4.490  30.352  -0.058  1.00  0.00     0.055 C 
BRANCH  11  12
HETATM   12  C3  UNL     1      -3.684  30.329  -1.336  1.00  0.00     0.236 C 
BRANCH  12  13
HETATM   13  N2  UNL     1      -2.409  31.002  -1.178  1.00  0.00    -0.059 N 
ATOM     14  H22 UNL     1      -2.350  31.479  -0.279  1.00  0.00     0.279 HD
ATOM     15  H21 UNL     1      -2.338  31.812  -1.794  1.00  0.00     0.279 HD
BRANCH  13  16
HETATM   16  C2  UNL     1      -1.298  30.102  -1.367  1.00  0.00     0.356 C 
BRANCH  16  17
HETATM   17  N1  UNL     1      -0.131  30.873  -1.731  1.00  0.00    -0.345 N 
ATOM     18  H1  UNL     1       0.694  30.410  -2.113  1.00  0.00     0.163 HD
BRANCH  17  19
HETATM   19  C1  UNL     1      -0.144  32.276  -1.553  1.00  0.00     0.349 C 
HETATM   20  O1  UNL     1      -0.595  33.017  -2.447  1.00  0.00    -0.284 OA
ENDBRANCH  17  19
ENDBRANCH  16  17
ENDBRANCH  13  16
ENDBRANCH  12  13
ENDBRANCH  11  12
ENDBRANCH  10  11
ENDBRANCH   7  10
ENDBRANCH   6   7
ENDBRANCH   5   6
ENDBRANCH   4   5
ENDBRANCH   1   4
BRANCH   1  21
HETATM   21  C9  UNL     1     -10.746  29.813  -3.256  1.00  0.00     0.255 C 
BRANCH  21  22
HETATM   22  C10 UNL     1     -11.740  28.936  -4.014  1.00  0.00     0.134 C 
HETATM   23  C11 UNL     1     -11.097  27.577  -4.109  1.00  0.00     0.129 C 
HETATM   24  C12 UNL     1     -12.263  26.649  -4.046  1.00  0.00     0.236 C 
HETATM   25  O2  UNL     1     -12.121  25.417  -4.210  1.00  0.00    -0.272 OA
HETATM   26  N5  UNL     1     -13.405  27.438  -3.789  1.00  0.00    -0.264 N 
HETATM   27  N6  UNL     1     -12.971  28.724  -3.333  1.00  0.00    -0.129 NA
BRANCH  26  28
HETATM   28  C13 UNL     1     -14.765  27.027  -3.949  1.00  0.00     0.152 C 
BRANCH  28  29
HETATM   29  C14 UNL     1     -15.819  28.057  -3.988  1.00  0.00     0.060 C 
BRANCH  29  30
HETATM   30  C15 UNL     1     -16.562  28.193  -2.748  1.00  0.00    -0.057 A 
HETATM   31  C16 UNL     1     -16.047  27.651  -1.559  1.00  0.00     0.007 A 
HETATM   32  C17 UNL     1     -16.743  27.782  -0.377  1.00  0.00     0.001 A 
HETATM   33  C18 UNL     1     -17.950  28.440  -0.315  1.00  0.00     0.000 A 
HETATM   34  C19 UNL     1     -18.448  28.970  -1.486  1.00  0.00     0.001 A 
HETATM   35  C20 UNL     1     -17.769  28.852  -2.696  1.00  0.00     0.007 A 
ENDBRANCH  29  30
ENDBRANCH  28  29
ENDBRANCH  26  28
ENDBRANCH  21  22
ENDBRANCH   1  21
TORSDOF 16
ENDMDL
MODEL 3
REMARK VINA RESULT: -7.378489411      4.568      6.324
REMARK  16 active torsions:
REMARK  status: ('A' for Active; 'I' for Inactive)
REMARK    1  A    between atoms: C1_2  and  N1_3 
REMARK    2  A    between atoms: N1_3  and  C2_5 
REMARK    3  A    between atoms: C2_5  and  N2_6 
REMARK    4  A    between atoms: N2_6  and  C3_9 
REMARK    5  A    between atoms: C3_9  and  C4_10 
REMARK    6  A    between atoms: C4_10  and  C5_11 
REMARK    7  A    between atoms: C5_11  and  N3_12 
REMARK    8  A    between atoms: N3_12  and  C6_15 
REMARK    9  A    between atoms: C6_15  and  C7_16 
REMARK   10  A    between atoms: C7_16  and  C8_17 
REMARK   11  A    between atoms: C8_17  and  N4_18 
REMARK   12  A    between atoms: N4_18  and  C9_21 
REMARK   13  A    between atoms: C9_21  and  C10_22 
REMARK   14  A    between atoms: N5_26  and  C13_27 
REMARK   15  A    between atoms: C13_27  and  C14_28 
REMARK   16  A    between atoms: C14_28  and  C15_29 
ROOT
HETATM    1  N4  UNL     1      -9.614  28.938  -2.998  1.00  0.00    -0.073 N 
ATOM      2  H41 UNL     1      -9.769  28.477  -2.101  1.00  0.00     0.277 HD
ATOM      3  H42 UNL     1      -9.607  28.121  -3.609  1.00  0.00     0.277 HD
ENDROOT
BRANCH   1   4
HETATM    4  C8  UNL     1      -8.324  29.608  -3.017  1.00  0.00     0.234 C 
BRANCH   4   5
HETATM    5  C7  UNL     1      -7.726  29.356  -4.370  1.00  0.00     0.055 C 
BRANCH   5   6
HETATM    6  C6  UNL     1      -7.302  30.634  -5.002  1.00  0.00     0.233 C 
BRANCH   6   7
HETATM    7  N3  UNL     1      -7.328  30.585  -6.433  1.00  0.00    -0.075 N 
ATOM      8  H32 UNL     1      -8.239  30.877  -6.786  1.00  0.00     0.277 HD
ATOM      9  H31 UNL     1      -7.319  29.618  -6.759  1.00  0.00     0.277 HD
BRANCH   7  10
HETATM   10  C5  UNL     1      -6.284  31.336  -7.056  1.00  0.00     0.233 C 
BRANCH  10  11
HETATM   11  C4  UNL     1      -6.750  32.179  -8.236  1.00  0.00     0.055 C 
BRANCH  11  12
HETATM   12  C3  UNL     1      -6.935  31.314  -9.462  1.00  0.00     0.236 C 
BRANCH  12  13
HETATM   13  N2  UNL     1      -8.271  31.441 -10.012  1.00  0.00    -0.059 N 
ATOM     14  H22 UNL     1      -8.865  30.664  -9.725  1.00  0.00     0.279 HD
ATOM     15  H21 UNL     1      -8.274  31.282 -11.019  1.00  0.00     0.279 HD
BRANCH  13  16
HETATM   16  C2  UNL     1      -8.871  32.709  -9.679  1.00  0.00     0.356 C 
BRANCH  16  17
HETATM   17  N1  UNL     1     -10.238  32.483  -9.267  1.00  0.00    -0.345 N 
ATOM     18  H1  UNL     1     -11.009  32.714  -9.893  1.00  0.00     0.163 HD
BRANCH  17  19
HETATM   19  C1  UNL     1     -10.495  31.938  -7.987  1.00  0.00     0.349 C 
HETATM   20  O1  UNL     1     -10.059  30.811  -7.688  1.00  0.00    -0.284 OA
ENDBRANCH  17  19
ENDBRANCH  16  17
ENDBRANCH  13  16
ENDBRANCH  12  13
ENDBRANCH  11  12
ENDBRANCH  10  11
ENDBRANCH   7  10
ENDBRANCH   6   7
ENDBRANCH   5   6
ENDBRANCH   4   5
ENDBRANCH   1   4
BRANCH   1  21
HETATM   21  C9  UNL     1     -10.718  29.814  -3.324  1.00  0.00     0.255 C 
BRANCH  21  22
HETATM   22  C10 UNL     1     -11.716  28.931  -4.072  1.00  0.00     0.134 C 
HETATM   23  C11 UNL     1     -11.073  27.572  -4.159  1.00  0.00     0.129 C 
HETATM   24  C12 UNL     1     -12.239  26.644  -4.084  1.00  0.00     0.236 C 
HETATM   25  O2  UNL     1     -12.098  25.412  -4.240  1.00  0.00    -0.272 OA
HETATM   26  N5  UNL     1     -13.380  27.436  -3.828  1.00  0.00    -0.264 N 
HETATM   27  N6  UNL     1     -12.944  28.725  -3.383  1.00  0.00    -0.129 NA
BRANCH  26  28
HETATM   28  C13 UNL     1     -14.741  27.024  -3.979  1.00  0.00     0.152 C 
BRANCH  28  29
HETATM   29  C14 UNL     1     -15.797  28.052  -3.993  1.00  0.00     0.060 C 
BRANCH  29  30
HETATM   30  C15 UNL     1     -16.516  28.180  -2.738  1.00  0.00    -0.057 A 
HETATM   31  C16 UNL     1     -17.754  28.842  -2.703  1.00  0.00     0.007 A 
HETATM   32  C17 UNL     1     -18.446  28.961  -1.516  1.00  0.00     0.001 A 
HETATM   33  C18 UNL     1     -17.959  28.442  -0.338  1.00  0.00     0.000 A 
HETATM   34  C19 UNL     1     -16.744  27.794  -0.381  1.00  0.00     0.001 A 
HETATM   35  C20 UNL     1     -16.021  27.659  -1.564  1.00  0.00     0.007 A 
ENDBRANCH  29  30
ENDBRANCH  28  29
ENDBRANCH  26  28
ENDBRANCH  21  22
ENDBRANCH   1  21
TORSDOF 16
ENDMDL
MODEL 4
REMARK VINA RESULT: -7.234907403      2.196      2.389
REMARK  16 active torsions:
REMARK  status: ('A' for Active; 'I' for Inactive)
REMARK    1  A    between atoms: C1_2  and  N1_3 
REMARK    2  A    between atoms: N1_3  and  C2_5 
REMARK    3  A    between atoms: C2_5  and  N2_6 
REMARK    4  A    between atoms: N2_6  and  C3_9 
REMARK    5  A    between atoms: C3_9  and  C4_10 
REMARK    6  A    between atoms: C4_10  and  C5_11 
REMARK    7  A    between atoms: C5_11  and  N3_12 
REMARK    8  A    between atoms: N3_12  and  C6_15 
REMARK    9  A    between atoms: C6_15  and  C7_16 
REMARK   10  A    between atoms: C7_16  and  C8_17 
REMARK   11  A    between atoms: C8_17  and  N4_18 
REMARK   12  A    between atoms: N4_18  and  C9_21 
REMARK   13  A    between atoms: C9_21  and  C10_22 
REMARK   14  A    between atoms: N5_26  and  C13_27 
REMARK   15  A    between atoms: C13_27  and  C14_28 
REMARK   16  A    between atoms: C14_28  and  C15_29 
ROOT
HETATM    1  N4  UNL     1      -9.637  28.918  -3.025  1.00  0.00    -0.073 N 
ATOM      2  H41 UNL     1      -9.847  28.349  -2.204  1.00  0.00     0.277 HD
ATOM      3  H42 UNL     1      -9.544  28.179  -3.722  1.00  0.00     0.277 HD
ENDROOT
BRANCH   1   4
HETATM    4  C8  UNL     1      -8.380  29.627  -2.853  1.00  0.00     0.234 C 
BRANCH   4   5
HETATM    5  C7  UNL     1      -7.289  28.676  -3.246  1.00  0.00     0.055 C 
BRANCH   5   6
HETATM    6  C6  UNL     1      -6.293  28.537  -2.150  1.00  0.00     0.233 C 
BRANCH   6   7
HETATM    7  N3  UNL     1      -6.447  29.526  -1.126  1.00  0.00    -0.075 N 
ATOM      8  H32 UNL     1      -7.108  29.209  -0.418  1.00  0.00     0.277 HD
ATOM      9  H31 UNL     1      -6.954  30.336  -1.484  1.00  0.00     0.277 HD
BRANCH   7  10
HETATM   10  C5  UNL     1      -5.217  29.929  -0.521  1.00  0.00     0.233 C 
BRANCH  10  11
HETATM   11  C4  UNL     1      -4.193  30.472  -1.509  1.00  0.00     0.055 C 
BRANCH  11  12
HETATM   12  C3  UNL     1      -4.731  31.703  -2.202  1.00  0.00     0.236 C 
BRANCH  12  13
HETATM   13  N2  UNL     1      -3.692  32.403  -2.935  1.00  0.00    -0.059 N 
ATOM     14  H22 UNL     1      -4.006  33.327  -3.231  1.00  0.00     0.279 HD
ATOM     15  H21 UNL     1      -3.538  31.984  -3.851  1.00  0.00     0.279 HD
BRANCH  13  16
HETATM   16  C2  UNL     1      -2.465  32.484  -2.182  1.00  0.00     0.356 C 
BRANCH  16  17
HETATM   17  N1  UNL     1      -1.616  33.486  -2.785  1.00  0.00    -0.345 N 
ATOM     18  H1  UNL     1      -0.662  33.254  -3.063  1.00  0.00     0.163 HD
BRANCH  17  19
HETATM   19  C1  UNL     1      -2.120  34.793  -2.985  1.00  0.00     0.349 C 
HETATM   20  O1  UNL     1      -3.058  35.216  -2.284  1.00  0.00    -0.284 OA
ENDBRANCH  17  19
ENDBRANCH  16  17
ENDBRANCH  13  16
ENDBRANCH  12  13
ENDBRANCH  11  12
ENDBRANCH  10  11
ENDBRANCH   7  10
ENDBRANCH   6   7
ENDBRANCH   5   6
ENDBRANCH   4   5
ENDBRANCH   1   4
BRANCH   1  21
HETATM   21  C9  UNL     1     -10.747  29.789  -3.345  1.00  0.00     0.255 C 
BRANCH  21  22
HETATM   22  C10 UNL     1     -11.738  28.906  -4.100  1.00  0.00     0.134 C 
HETATM   23  C11 UNL     1     -11.124  27.531  -4.125  1.00  0.00     0.129 C 
HETATM   24  C12 UNL     1     -12.312  26.632  -4.063  1.00  0.00     0.236 C 
HETATM   25  O2  UNL     1     -12.194  25.392  -4.178  1.00  0.00    -0.272 OA
HETATM   26  N5  UNL     1     -13.443  27.455  -3.870  1.00  0.00    -0.264 N 
HETATM   27  N6  UNL     1     -12.993  28.748  -3.449  1.00  0.00    -0.129 NA
BRANCH  26  28
HETATM   28  C13 UNL     1     -14.807  27.068  -4.056  1.00  0.00     0.152 C 
BRANCH  28  29
HETATM   29  C14 UNL     1     -15.854  28.105  -3.994  1.00  0.00     0.060 C 
BRANCH  29  30
HETATM   30  C15 UNL     1     -16.530  28.189  -2.712  1.00  0.00    -0.057 A 
HETATM   31  C16 UNL     1     -17.756  28.866  -2.608  1.00  0.00     0.007 A 
HETATM   32  C17 UNL     1     -18.407  28.943  -1.396  1.00  0.00     0.001 A 
HETATM   33  C18 UNL     1     -17.891  28.367  -0.258  1.00  0.00     0.000 A 
HETATM   34  C19 UNL     1     -16.688  27.704  -0.368  1.00  0.00     0.001 A 
HETATM   35  C20 UNL     1     -16.006  27.610  -1.578  1.00  0.00     0.007 A 
ENDBRANCH  29  30
ENDBRANCH  28  29
ENDBRANCH  26  28
ENDBRANCH  21  22
ENDBRANCH   1  21
TORSDOF 16
ENDMDL
MODEL 5
REMARK VINA RESULT: -7.175769639      5.501      6.736
REMARK  16 active torsions:
REMARK  status: ('A' for Active; 'I' for Inactive)
REMARK    1  A    between atoms: C1_2  and  N1_3 
REMARK    2  A    between atoms: N1_3  and  C2_5 
REMARK    3  A    between atoms: C2_5  and  N2_6 
REMARK    4  A    between atoms: N2_6  and  C3_9 
REMARK    5  A    between atoms: C3_9  and  C4_10 
REMARK    6  A    between atoms: C4_10  and  C5_11 
REMARK    7  A    between atoms: C5_11  and  N3_12 
REMARK    8  A    between atoms: N3_12  and  C6_15 
REMARK    9  A    between atoms: C6_15  and  C7_16 
REMARK   10  A    between atoms: C7_16  and  C8_17 
REMARK   11  A    between atoms: C8_17  and  N4_18 
REMARK   12  A    between atoms: N4_18  and  C9_21 
REMARK   13  A    between atoms: C9_21  and  C10_22 
REMARK   14  A    between atoms: N5_26  and  C13_27 
REMARK   15  A    between atoms: C13_27  and  C14_28 
REMARK   16  A    between atoms: C14_28  and  C15_29 
ROOT
HETATM    1  N4  UNL     1     -10.280  30.774  -4.388  1.00  0.00    -0.073 N 
ATOM      2  H41 UNL     1      -9.708  31.511  -3.975  1.00  0.00     0.277 HD
ATOM      3  H42 UNL     1      -9.572  30.311  -4.959  1.00  0.00     0.277 HD
ENDROOT
BRANCH   1   4
HETATM    4  C8  UNL     1     -11.327  31.340  -5.223  1.00  0.00     0.234 C 
BRANCH   4   5
HETATM    5  C7  UNL     1     -10.796  31.366  -6.625  1.00  0.00     0.055 C 
BRANCH   5   6
HETATM    6  C6  UNL     1     -11.779  31.994  -7.548  1.00  0.00     0.233 C 
BRANCH   6   7
HETATM    7  N3  UNL     1     -11.270  32.161  -8.876  1.00  0.00    -0.075 N 
ATOM      8  H32 UNL     1     -12.023  32.399  -9.521  1.00  0.00     0.277 HD
ATOM      9  H31 UNL     1     -10.986  31.262  -9.267  1.00  0.00     0.277 HD
BRANCH   7  10
HETATM   10  C5  UNL     1     -10.207  33.111  -8.973  1.00  0.00     0.233 C 
BRANCH  10  11
HETATM   11  C4  UNL     1      -9.388  32.991 -10.251  1.00  0.00     0.055 C 
BRANCH  11  12
HETATM   12  C3  UNL     1      -8.009  32.452  -9.945  1.00  0.00     0.236 C 
BRANCH  12  13
HETATM   13  N2  UNL     1      -8.071  31.232  -9.162  1.00  0.00    -0.059 N 
ATOM     14  H22 UNL     1      -8.906  30.690  -9.387  1.00  0.00     0.279 HD
ATOM     15  H21 UNL     1      -8.268  31.431  -8.182  1.00  0.00     0.279 HD
BRANCH  13  16
HETATM   16  C2  UNL     1      -6.877  30.438  -9.308  1.00  0.00     0.356 C 
BRANCH  16  17
HETATM   17  N1  UNL     1      -6.139  30.915 -10.456  1.00  0.00    -0.345 N 
ATOM     18  H1  UNL     1      -6.341  31.833 -10.853  1.00  0.00     0.163 HD
BRANCH  17  19
HETATM   19  C1  UNL     1      -5.133  30.098 -11.023  1.00  0.00     0.349 C 
HETATM   20  O1  UNL     1      -5.042  28.900 -10.696  1.00  0.00    -0.284 OA
ENDBRANCH  17  19
ENDBRANCH  16  17
ENDBRANCH  13  16
ENDBRANCH  12  13
ENDBRANCH  11  12
ENDBRANCH  10  11
ENDBRANCH   7  10
ENDBRANCH   6   7
ENDBRANCH   5   6
ENDBRANCH   4   5
ENDBRANCH   1   4
BRANCH   1  21
HETATM   21  C9  UNL     1     -10.783  29.879  -3.369  1.00  0.00     0.255 C 
BRANCH  21  22
HETATM   22  C10 UNL     1     -11.772  28.968  -4.094  1.00  0.00     0.134 C 
HETATM   23  C11 UNL     1     -11.109  27.617  -4.163  1.00  0.00     0.129 C 
HETATM   24  C12 UNL     1     -12.261  26.674  -4.064  1.00  0.00     0.236 C 
HETATM   25  O2  UNL     1     -12.102  25.441  -4.200  1.00  0.00    -0.272 OA
HETATM   26  N5  UNL     1     -13.412  27.453  -3.814  1.00  0.00    -0.264 N 
HETATM   27  N6  UNL     1     -12.992  28.756  -3.394  1.00  0.00    -0.129 NA
BRANCH  26  28
HETATM   28  C13 UNL     1     -14.767  27.018  -3.948  1.00  0.00     0.152 C 
BRANCH  28  29
HETATM   29  C14 UNL     1     -15.838  28.030  -3.978  1.00  0.00     0.060 C 
BRANCH  29  30
HETATM   30  C15 UNL     1     -16.553  28.174  -2.722  1.00  0.00    -0.057 A 
HETATM   31  C16 UNL     1     -17.778  28.859  -2.687  1.00  0.00     0.007 A 
HETATM   32  C17 UNL     1     -18.466  28.993  -1.500  1.00  0.00     0.001 A 
HETATM   33  C18 UNL     1     -17.987  28.468  -0.321  1.00  0.00     0.000 A 
HETATM   34  C19 UNL     1     -16.784  27.796  -0.365  1.00  0.00     0.001 A 
HETATM   35  C20 UNL     1     -16.066  27.646  -1.548  1.00  0.00     0.007 A 
ENDBRANCH  29  30
ENDBRANCH  28  29
ENDBRANCH  26  28
ENDBRANCH  21  22
ENDBRANCH   1  21
TORSDOF 16
ENDMDL
