MODEL 1
REMARK VINA RESULT: -8.210868364      0.000      0.000
REMARK  18 active torsions:
REMARK  status: ('A' for Active; 'I' for Inactive)
REMARK    1  A    between atoms: C2_2  and  N2_6 
REMARK    2  A    between atoms: N2_6  and  C3_8 
REMARK    3  A    between atoms: C4_9  and  O1_10 
REMARK    4  A    between atoms: O1_10  and  C5_11 
REMARK    5  A    between atoms: C5_11  and  C6_12 
REMARK    6  A    between atoms: C6_12  and  O2_14 
REMARK    7  A    between atoms: C6_12  and  C8_16 
REMARK    8  A    between atoms: C8_16  and  O3_17 
REMARK    9  A    between atoms: C9_20  and  C10_21 
REMARK   10  A    between atoms: C10_21  and  S1_22 
REMARK   11  A    between atoms: S1_22  and  C11_23 
REMARK   12  A    between atoms: C11_23  and  N3_24 
REMARK   13  A    between atoms: C12_29  and  O6_30 
REMARK   14  A    between atoms: O6_30  and  C13_31 
REMARK   15  A    between atoms: C14_33  and  C15_34 
REMARK   16  A    between atoms: C15_34  and  N4_35 
REMARK   17  A    between atoms: C16_39  and  O8_40 
REMARK   18  A    between atoms: C17_42  and  O9_43 
ROOT
HETATM    1  C3  UNL     1     -22.742   2.834   4.481  1.00  0.00     0.193 C 
HETATM    2  C4  UNL     1     -21.723   1.742   4.103  1.00  0.00     0.290 C 
HETATM    3  O4  UNL     1     -22.473   0.696   3.579  1.00  0.00    -0.328 OA
HETATM    4  C9  UNL     1     -23.116   0.038   4.586  1.00  0.00     0.275 C 
HETATM    5  O5  UNL     1     -23.442   0.881   5.601  1.00  0.00    -0.328 OA
HETATM    6  C12 UNL     1     -23.834   2.169   5.215  1.00  0.00     0.293 C 
ENDROOT
BRANCH   6   7
HETATM    7  O6  UNL     1     -24.300   2.800   6.334  1.00  0.00    -0.326 OA
BRANCH   7   8
HETATM    8  C13 UNL     1     -25.481   2.396   6.853  1.00  0.00     0.294 C 
HETATM    9  O7  UNL     1     -25.344   2.404   8.249  1.00  0.00    -0.349 OA
HETATM   10  C14 UNL     1     -26.537   2.789   8.793  1.00  0.00     0.181 C 
HETATM   11  C16 UNL     1     -27.247   3.683   7.826  1.00  0.00     0.182 C 
HETATM   12  C17 UNL     1     -26.664   3.243   6.507  1.00  0.00     0.204 C 
BRANCH  10  13
HETATM   13  C15 UNL     1     -26.354   3.542  10.092  1.00  0.00     0.264 C 
BRANCH  13  14
HETATM   14  N4  UNL     1     -27.592   4.045  10.609  1.00  0.00    -0.077 N 
ATOM     15  H43 UNL     1     -28.280   4.165   9.866  1.00  0.00     0.274 HD
ATOM     16  H42 UNL     1     -28.073   3.337  11.165  1.00  0.00     0.274 HD
ATOM     17  H41 UNL     1     -27.469   4.907  11.139  1.00  0.00     0.274 HD
ENDBRANCH  13  14
ENDBRANCH  10  13
BRANCH  11  18
HETATM   18  O8  UNL     1     -27.015   5.042   8.054  1.00  0.00    -0.390 OA
ATOM     19  H8  UNL     1     -26.643   5.493   7.306  1.00  0.00     0.210 HD
ENDBRANCH  11  18
BRANCH  12  20
HETATM   20  O9  UNL     1     -26.352   4.374   5.780  1.00  0.00    -0.388 OA
ATOM     21  H9  UNL     1     -26.814   4.442   4.953  1.00  0.00     0.210 HD
ENDBRANCH  12  20
ENDBRANCH   7   8
ENDBRANCH   6   7
BRANCH   1  22
HETATM   22  N2  UNL     1     -23.060   3.544   3.297  1.00  0.00    -0.366 N 
ATOM     23  H2  UNL     1     -23.314   2.966   2.497  1.00  0.00     0.161 HD
BRANCH  22  24
HETATM   24  C2  UNL     1     -23.078   4.920   3.067  1.00  0.00     0.067 C 
HETATM   25  C1  UNL     1     -21.801   5.656   2.950  1.00  0.00     0.088 C 
HETATM   26  N1  UNL     1     -24.179   5.548   2.962  1.00  0.00    -0.389 N 
ATOM     27  H12 UNL     1     -24.192   6.554   2.794  1.00  0.00     0.157 HD
ATOM     28  H11 UNL     1     -25.059   5.040   3.043  1.00  0.00     0.157 HD
ENDBRANCH  22  24
ENDBRANCH   1  22
BRANCH   2  29
HETATM   29  O1  UNL     1     -20.873   2.175   3.113  1.00  0.00    -0.356 OA
BRANCH  29  30
HETATM   30  C5  UNL     1     -19.563   1.825   3.429  1.00  0.00     0.210 C 
BRANCH  30  31
HETATM   31  C6  UNL     1     -18.766   1.518   2.173  1.00  0.00     0.097 C 
HETATM   32  C7  UNL     1     -19.655   1.330   0.981  1.00  0.00     0.050 C 
BRANCH  31  33
HETATM   33  O2  UNL     1     -18.058   0.353   2.402  1.00  0.00    -0.386 OA
ATOM     34  H2  UNL     1     -17.794   0.007   1.558  1.00  0.00     0.210 HD
ENDBRANCH  31  33
BRANCH  31  35
HETATM   35  C8  UNL     1     -17.784   2.653   1.986  1.00  0.00     0.203 C 
BRANCH  35  36
HETATM   36  O3  UNL     1     -16.532   2.175   2.330  1.00  0.00    -0.398 OA
ATOM     37  H3  UNL     1     -16.590   1.228   2.361  1.00  0.00     0.209 HD
ENDBRANCH  35  36
ENDBRANCH  31  35
ENDBRANCH  30  31
ENDBRANCH  29  30
ENDBRANCH   2  29
BRANCH   4  38
HETATM   38  C10 UNL     1     -22.274  -1.099   5.170  1.00  0.00     0.136 C 
BRANCH  38  39
HETATM   39  S1  UNL     1     -23.348  -2.356   5.920  1.00  0.00    -0.137 SA
BRANCH  39  40
HETATM   40  C11 UNL     1     -24.776  -1.507   6.644  1.00  0.00     0.303 C 
BRANCH  40  41
HETATM   41  N3  UNL     1     -24.307  -0.758   7.801  1.00  0.00    -0.071 N 
ATOM     42  H33 UNL     1     -23.290  -0.674   7.833  1.00  0.00     0.275 HD
ATOM     43  H32 UNL     1     -24.522   0.238   7.741  1.00  0.00     0.275 HD
ATOM     44  H31 UNL     1     -24.694  -1.198   8.635  1.00  0.00     0.275 HD
ENDBRANCH  40  41
ENDBRANCH  39  40
ENDBRANCH  38  39
ENDBRANCH   4  38
TORSDOF 18
ENDMDL
MODEL 2
REMARK VINA RESULT: -8.009778383      2.876      4.831
REMARK  18 active torsions:
REMARK  status: ('A' for Active; 'I' for Inactive)
REMARK    1  A    between atoms: C2_2  and  N2_6 
REMARK    2  A    between atoms: N2_6  and  C3_8 
REMARK    3  A    between atoms: C4_9  and  O1_10 
REMARK    4  A    between atoms: O1_10  and  C5_11 
REMARK    5  A    between atoms: C5_11  and  C6_12 
REMARK    6  A    between atoms: C6_12  and  O2_14 
REMARK    7  A    between atoms: C6_12  and  C8_16 
REMARK    8  A    between atoms: C8_16  and  O3_17 
REMARK    9  A    between atoms: C9_20  and  C10_21 
REMARK   10  A    between atoms: C10_21  and  S1_22 
REMARK   11  A    between atoms: S1_22  and  C11_23 
REMARK   12  A    between atoms: C11_23  and  N3_24 
REMARK   13  A    between atoms: C12_29  and  O6_30 
REMARK   14  A    between atoms: O6_30  and  C13_31 
REMARK   15  A    between atoms: C14_33  and  C15_34 
REMARK   16  A    between atoms: C15_34  and  N4_35 
REMARK   17  A    between atoms: C16_39  and  O8_40 
REMARK   18  A    between atoms: C17_42  and  O9_43 
ROOT
HETATM    1  C3  UNL     1     -23.130   0.966   4.501  1.00  0.00     0.193 C 
HETATM    2  C4  UNL     1     -22.616   1.416   3.121  1.00  0.00     0.290 C 
HETATM    3  O4  UNL     1     -21.487   2.186   3.376  1.00  0.00    -0.328 OA
HETATM    4  C9  UNL     1     -21.857   3.403   3.865  1.00  0.00     0.275 C 
HETATM    5  O5  UNL     1     -22.999   3.318   4.597  1.00  0.00    -0.328 OA
HETATM    6  C12 UNL     1     -23.136   2.158   5.369  1.00  0.00     0.293 C 
ENDROOT
BRANCH   6   7
HETATM    7  O6  UNL     1     -24.231   2.334   6.168  1.00  0.00    -0.326 OA
BRANCH   7   8
HETATM    8  C13 UNL     1     -24.124   2.024   7.479  1.00  0.00     0.294 C 
HETATM    9  O7  UNL     1     -24.580   3.133   8.206  1.00  0.00    -0.349 OA
HETATM   10  C14 UNL     1     -25.224   2.677   9.322  1.00  0.00     0.181 C 
HETATM   11  C16 UNL     1     -25.807   1.331   9.032  1.00  0.00     0.182 C 
HETATM   12  C17 UNL     1     -24.908   0.832   7.929  1.00  0.00     0.204 C 
BRANCH  10  13
HETATM   13  C15 UNL     1     -26.344   3.599   9.750  1.00  0.00     0.264 C 
BRANCH  13  14
HETATM   14  N4  UNL     1     -26.736   4.499   8.707  1.00  0.00    -0.077 N 
ATOM     15  H43 UNL     1     -26.586   5.470   8.983  1.00  0.00     0.274 HD
ATOM     16  H42 UNL     1     -26.092   4.452   7.918  1.00  0.00     0.274 HD
ATOM     17  H41 UNL     1     -27.698   4.348   8.406  1.00  0.00     0.274 HD
ENDBRANCH  13  14
ENDBRANCH  10  13
BRANCH  11  18
HETATM   18  O8  UNL     1     -27.139   1.382   8.616  1.00  0.00    -0.390 OA
ATOM     19  H8  UNL     1     -27.323   0.826   7.867  1.00  0.00     0.210 HD
ENDBRANCH  11  18
BRANCH  12  20
HETATM   20  O9  UNL     1     -25.706   0.281   6.946  1.00  0.00    -0.388 OA
ATOM     21  H9  UNL     1     -26.244  -0.441   7.245  1.00  0.00     0.210 HD
ENDBRANCH  12  20
ENDBRANCH   7   8
ENDBRANCH   6   7
BRANCH   1  22
HETATM   22  N2  UNL     1     -22.356  -0.152   4.898  1.00  0.00    -0.366 N 
ATOM     23  H2  UNL     1     -21.433   0.068   5.270  1.00  0.00     0.161 HD
BRANCH  22  24
HETATM   24  C2  UNL     1     -22.672  -1.509   4.854  1.00  0.00     0.067 C 
HETATM   25  C1  UNL     1     -23.391  -2.128   5.988  1.00  0.00     0.088 C 
HETATM   26  N1  UNL     1     -22.346  -2.221   3.851  1.00  0.00    -0.389 N 
ATOM     27  H12 UNL     1     -22.578  -3.214   3.818  1.00  0.00     0.157 HD
ATOM     28  H11 UNL     1     -21.851  -1.794   3.068  1.00  0.00     0.157 HD
ENDBRANCH  22  24
ENDBRANCH   1  22
BRANCH   2  29
HETATM   29  O1  UNL     1     -22.218   0.341   2.362  1.00  0.00    -0.356 OA
BRANCH  29  30
HETATM   30  C5  UNL     1     -22.365   0.638   1.009  1.00  0.00     0.210 C 
BRANCH  30  31
HETATM   31  C6  UNL     1     -21.724  -0.434   0.147  1.00  0.00     0.097 C 
HETATM   32  C7  UNL     1     -22.584  -0.794  -1.027  1.00  0.00     0.050 C 
BRANCH  31  33
HETATM   33  O2  UNL     1     -21.541  -1.553   0.938  1.00  0.00    -0.386 OA
ATOM     34  H2  UNL     1     -22.219  -1.548   1.603  1.00  0.00     0.210 HD
ENDBRANCH  31  33
BRANCH  31  35
HETATM   35  C8  UNL     1     -20.368   0.089  -0.273  1.00  0.00     0.203 C 
BRANCH  35  36
HETATM   36  O3  UNL     1     -19.627   0.283   0.879  1.00  0.00    -0.398 OA
ATOM     37  H3  UNL     1     -18.928   0.890   0.667  1.00  0.00     0.209 HD
ENDBRANCH  35  36
ENDBRANCH  31  35
ENDBRANCH  30  31
ENDBRANCH  29  30
ENDBRANCH   2  29
BRANCH   4  38
HETATM   38  C10 UNL     1     -22.085   4.433   2.754  1.00  0.00     0.136 C 
BRANCH  38  39
HETATM   39  S1  UNL     1     -20.509   5.187   2.264  1.00  0.00    -0.137 SA
BRANCH  39  40
HETATM   40  C11 UNL     1     -20.266   6.675   3.271  1.00  0.00     0.303 C 
BRANCH  40  41
HETATM   41  N3  UNL     1     -18.884   7.101   3.107  1.00  0.00    -0.071 N 
ATOM     42  H33 UNL     1     -18.622   7.228   2.129  1.00  0.00     0.275 HD
ATOM     43  H32 UNL     1     -18.727   8.061   3.414  1.00  0.00     0.275 HD
ATOM     44  H31 UNL     1     -18.291   6.428   3.592  1.00  0.00     0.275 HD
ENDBRANCH  40  41
ENDBRANCH  39  40
ENDBRANCH  38  39
ENDBRANCH   4  38
TORSDOF 18
ENDMDL
MODEL 3
REMARK VINA RESULT: -7.985960302      1.300      1.525
REMARK  18 active torsions:
REMARK  status: ('A' for Active; 'I' for Inactive)
REMARK    1  A    between atoms: C2_2  and  N2_6 
REMARK    2  A    between atoms: N2_6  and  C3_8 
REMARK    3  A    between atoms: C4_9  and  O1_10 
REMARK    4  A    between atoms: O1_10  and  C5_11 
REMARK    5  A    between atoms: C5_11  and  C6_12 
REMARK    6  A    between atoms: C6_12  and  O2_14 
REMARK    7  A    between atoms: C6_12  and  C8_16 
REMARK    8  A    between atoms: C8_16  and  O3_17 
REMARK    9  A    between atoms: C9_20  and  C10_21 
REMARK   10  A    between atoms: C10_21  and  S1_22 
REMARK   11  A    between atoms: S1_22  and  C11_23 
REMARK   12  A    between atoms: C11_23  and  N3_24 
REMARK   13  A    between atoms: C12_29  and  O6_30 
REMARK   14  A    between atoms: O6_30  and  C13_31 
REMARK   15  A    between atoms: C14_33  and  C15_34 
REMARK   16  A    between atoms: C15_34  and  N4_35 
REMARK   17  A    between atoms: C16_39  and  O8_40 
REMARK   18  A    between atoms: C17_42  and  O9_43 
ROOT
HETATM    1  C3  UNL     1     -22.791   2.857   4.534  1.00  0.00     0.193 C 
HETATM    2  C4  UNL     1     -21.644   1.856   4.300  1.00  0.00     0.290 C 
HETATM    3  O4  UNL     1     -22.212   0.791   3.612  1.00  0.00    -0.328 OA
HETATM    4  C9  UNL     1     -22.969   0.041   4.464  1.00  0.00     0.275 C 
HETATM    5  O5  UNL     1     -23.528   0.808   5.437  1.00  0.00    -0.328 OA
HETATM    6  C12 UNL     1     -23.941   2.084   5.038  1.00  0.00     0.293 C 
ENDROOT
BRANCH   6   7
HETATM    7  O6  UNL     1     -24.639   2.625   6.081  1.00  0.00    -0.326 OA
BRANCH   7   8
HETATM    8  C13 UNL     1     -24.346   2.209   7.333  1.00  0.00     0.294 C 
HETATM    9  O7  UNL     1     -24.670   3.259   8.205  1.00  0.00    -0.349 OA
HETATM   10  C14 UNL     1     -25.150   2.717   9.365  1.00  0.00     0.181 C 
HETATM   11  C16 UNL     1     -25.793   1.402   9.058  1.00  0.00     0.182 C 
HETATM   12  C17 UNL     1     -25.076   0.989   7.798  1.00  0.00     0.204 C 
BRANCH  10  13
HETATM   13  C15 UNL     1     -26.179   3.608  10.025  1.00  0.00     0.264 C 
BRANCH  13  14
HETATM   14  N4  UNL     1     -26.781   4.523   9.102  1.00  0.00    -0.077 N 
ATOM     15  H43 UNL     1     -26.107   4.838   8.404  1.00  0.00     0.274 HD
ATOM     16  H42 UNL     1     -27.441   4.045   8.488  1.00  0.00     0.274 HD
ATOM     17  H41 UNL     1     -27.221   5.313   9.571  1.00  0.00     0.274 HD
ENDBRANCH  13  14
ENDBRANCH  10  13
BRANCH  11  18
HETATM   18  O8  UNL     1     -27.171   1.493   8.849  1.00  0.00    -0.390 OA
ATOM     19  H8  UNL     1     -27.417   1.472   7.932  1.00  0.00     0.210 HD
ENDBRANCH  11  18
BRANCH  12  20
HETATM   20  O9  UNL     1     -26.018   0.524   6.904  1.00  0.00    -0.388 OA
ATOM     21  H9  UNL     1     -25.650   0.060   6.161  1.00  0.00     0.210 HD
ENDBRANCH  12  20
ENDBRANCH   7   8
ENDBRANCH   6   7
BRANCH   1  22
HETATM   22  N2  UNL     1     -22.952   3.605   3.342  1.00  0.00    -0.366 N 
ATOM     23  H2  UNL     1     -23.063   3.051   2.493  1.00  0.00     0.161 HD
BRANCH  22  24
HETATM   24  C2  UNL     1     -22.980   4.987   3.159  1.00  0.00     0.067 C 
HETATM   25  C1  UNL     1     -21.715   5.751   3.188  1.00  0.00     0.088 C 
HETATM   26  N1  UNL     1     -24.081   5.597   2.973  1.00  0.00    -0.389 N 
ATOM     27  H12 UNL     1     -24.101   6.608   2.840  1.00  0.00     0.157 HD
ATOM     28  H11 UNL     1     -24.953   5.069   2.954  1.00  0.00     0.157 HD
ENDBRANCH  22  24
ENDBRANCH   1  22
BRANCH   2  29
HETATM   29  O1  UNL     1     -20.670   2.394   3.492  1.00  0.00    -0.356 OA
BRANCH  29  30
HETATM   30  C5  UNL     1     -19.482   1.686   3.650  1.00  0.00     0.210 C 
BRANCH  30  31
HETATM   31  C6  UNL     1     -18.797   1.473   2.311  1.00  0.00     0.097 C 
HETATM   32  C7  UNL     1     -19.785   1.365   1.190  1.00  0.00     0.050 C 
BRANCH  31  33
HETATM   33  O2  UNL     1     -18.072   0.298   2.395  1.00  0.00    -0.386 OA
ATOM     34  H2  UNL     1     -17.719   0.117   1.532  1.00  0.00     0.210 HD
ENDBRANCH  31  33
BRANCH  31  35
HETATM   35  C8  UNL     1     -17.833   2.623   2.121  1.00  0.00     0.203 C 
BRANCH  35  36
HETATM   36  O3  UNL     1     -16.561   2.140   2.366  1.00  0.00    -0.398 OA
ATOM     37  H3  UNL     1     -16.170   1.933   1.525  1.00  0.00     0.209 HD
ENDBRANCH  35  36
ENDBRANCH  31  35
ENDBRANCH  30  31
ENDBRANCH  29  30
ENDBRANCH   2  29
BRANCH   4  38
HETATM   38  C10 UNL     1     -22.158  -1.066   5.143  1.00  0.00     0.136 C 
BRANCH  38  39
HETATM   39  S1  UNL     1     -23.056  -2.642   5.064  1.00  0.00    -0.137 SA
BRANCH  39  40
HETATM   40  C11 UNL     1     -24.208  -2.696   6.463  1.00  0.00     0.303 C 
BRANCH  40  41
HETATM   41  N3  UNL     1     -24.805  -4.023   6.495  1.00  0.00    -0.071 N 
ATOM     42  H33 UNL     1     -24.610  -4.566   5.653  1.00  0.00     0.275 HD
ATOM     43  H32 UNL     1     -24.351  -4.645   7.164  1.00  0.00     0.275 HD
ATOM     44  H31 UNL     1     -25.803  -3.911   6.671  1.00  0.00     0.275 HD
ENDBRANCH  40  41
ENDBRANCH  39  40
ENDBRANCH  38  39
ENDBRANCH   4  38
TORSDOF 18
ENDMDL
MODEL 4
REMARK VINA RESULT: -7.854919439      2.692      4.569
REMARK  18 active torsions:
REMARK  status: ('A' for Active; 'I' for Inactive)
REMARK    1  A    between atoms: C2_2  and  N2_6 
REMARK    2  A    between atoms: N2_6  and  C3_8 
REMARK    3  A    between atoms: C4_9  and  O1_10 
REMARK    4  A    between atoms: O1_10  and  C5_11 
REMARK    5  A    between atoms: C5_11  and  C6_12 
REMARK    6  A    between atoms: C6_12  and  O2_14 
REMARK    7  A    between atoms: C6_12  and  C8_16 
REMARK    8  A    between atoms: C8_16  and  O3_17 
REMARK    9  A    between atoms: C9_20  and  C10_21 
REMARK   10  A    between atoms: C10_21  and  S1_22 
REMARK   11  A    between atoms: S1_22  and  C11_23 
REMARK   12  A    between atoms: C11_23  and  N3_24 
REMARK   13  A    between atoms: C12_29  and  O6_30 
REMARK   14  A    between atoms: O6_30  and  C13_31 
REMARK   15  A    between atoms: C14_33  and  C15_34 
REMARK   16  A    between atoms: C15_34  and  N4_35 
REMARK   17  A    between atoms: C16_39  and  O8_40 
REMARK   18  A    between atoms: C17_42  and  O9_43 
ROOT
HETATM    1  C3  UNL     1     -23.271   1.191   4.372  1.00  0.00     0.193 C 
HETATM    2  C4  UNL     1     -22.890   1.744   2.985  1.00  0.00     0.290 C 
HETATM    3  O4  UNL     1     -21.837   2.622   3.210  1.00  0.00    -0.328 OA
HETATM    4  C9  UNL     1     -22.307   3.774   3.769  1.00  0.00     0.275 C 
HETATM    5  O5  UNL     1     -23.388   3.538   4.558  1.00  0.00    -0.328 OA
HETATM    6  C12 UNL     1     -23.355   2.344   5.287  1.00  0.00     0.293 C 
ENDROOT
BRANCH   6   7
HETATM    7  O6  UNL     1     -24.413   2.371   6.151  1.00  0.00    -0.326 OA
BRANCH   7   8
HETATM    8  C13 UNL     1     -24.188   2.073   7.450  1.00  0.00     0.294 C 
HETATM    9  O7  UNL     1     -24.623   3.169   8.209  1.00  0.00    -0.349 OA
HETATM   10  C14 UNL     1     -25.156   2.697   9.375  1.00  0.00     0.181 C 
HETATM   11  C16 UNL     1     -25.711   1.329   9.138  1.00  0.00     0.182 C 
HETATM   12  C17 UNL     1     -24.887   0.856   7.967  1.00  0.00     0.204 C 
BRANCH  10  13
HETATM   13  C15 UNL     1     -26.271   3.580   9.890  1.00  0.00     0.264 C 
BRANCH  13  14
HETATM   14  N4  UNL     1     -26.766   4.474   8.886  1.00  0.00    -0.077 N 
ATOM     15  H43 UNL     1     -26.382   5.411   9.007  1.00  0.00     0.274 HD
ATOM     16  H42 UNL     1     -26.374   4.252   7.971  1.00  0.00     0.274 HD
ATOM     17  H41 UNL     1     -27.785   4.495   8.854  1.00  0.00     0.274 HD
ENDBRANCH  13  14
ENDBRANCH  10  13
BRANCH  11  18
HETATM   18  O8  UNL     1     -27.074   1.327   8.833  1.00  0.00    -0.390 OA
ATOM     19  H8  UNL     1     -27.275   1.733   7.998  1.00  0.00     0.210 HD
ENDBRANCH  11  18
BRANCH  12  20
HETATM   20  O9  UNL     1     -25.741   0.269   7.055  1.00  0.00    -0.388 OA
ATOM     21  H9  UNL     1     -26.660   0.447   7.216  1.00  0.00     0.210 HD
ENDBRANCH  12  20
ENDBRANCH   7   8
ENDBRANCH   6   7
BRANCH   1  22
HETATM   22  N2  UNL     1     -22.360   0.151   4.679  1.00  0.00    -0.366 N 
ATOM     23  H2  UNL     1     -21.469   0.455   5.070  1.00  0.00     0.161 HD
BRANCH  22  24
HETATM   24  C2  UNL     1     -22.504  -1.227   4.524  1.00  0.00     0.067 C 
HETATM   25  C1  UNL     1     -23.293  -1.994   5.511  1.00  0.00     0.088 C 
HETATM   26  N1  UNL     1     -21.960  -1.832   3.545  1.00  0.00    -0.389 N 
ATOM     27  H12 UNL     1     -22.065  -2.840   3.432  1.00  0.00     0.157 HD
ATOM     28  H11 UNL     1     -21.415  -1.303   2.865  1.00  0.00     0.157 HD
ENDBRANCH  22  24
ENDBRANCH   1  22
BRANCH   2  29
HETATM   29  O1  UNL     1     -22.425   0.746   2.161  1.00  0.00    -0.356 OA
BRANCH  29  30
HETATM   30  C5  UNL     1     -21.879   1.303   1.008  1.00  0.00     0.210 C 
BRANCH  30  31
HETATM   31  C6  UNL     1     -20.661   0.519   0.553  1.00  0.00     0.097 C 
HETATM   32  C7  UNL     1     -20.327   0.792  -0.883  1.00  0.00     0.050 C 
BRANCH  31  33
HETATM   33  O2  UNL     1     -20.947  -0.825   0.707  1.00  0.00    -0.386 OA
ATOM     34  H2  UNL     1     -21.126  -1.181  -0.155  1.00  0.00     0.210 HD
ENDBRANCH  31  33
BRANCH  31  35
HETATM   35  C8  UNL     1     -19.528   0.883   1.486  1.00  0.00     0.203 C 
BRANCH  35  36
HETATM   36  O3  UNL     1     -19.769   0.253   2.693  1.00  0.00    -0.398 OA
ATOM     37  H3  UNL     1     -20.643   0.502   2.972  1.00  0.00     0.209 HD
ENDBRANCH  35  36
ENDBRANCH  31  35
ENDBRANCH  30  31
ENDBRANCH  29  30
ENDBRANCH   2  29
BRANCH   4  38
HETATM   38  C10 UNL     1     -22.708   4.811   2.716  1.00  0.00     0.136 C 
BRANCH  38  39
HETATM   39  S1  UNL     1     -21.497   6.162   2.671  1.00  0.00    -0.137 SA
BRANCH  39  40
HETATM   40  C11 UNL     1     -19.870   5.440   2.329  1.00  0.00     0.303 C 
BRANCH  40  41
HETATM   41  N3  UNL     1     -20.030   4.479   1.247  1.00  0.00    -0.071 N 
ATOM     42  H33 UNL     1     -19.457   3.644   1.370  1.00  0.00     0.275 HD
ATOM     43  H32 UNL     1     -20.941   4.020   1.256  1.00  0.00     0.275 HD
ATOM     44  H31 UNL     1     -19.840   4.964   0.370  1.00  0.00     0.275 HD
ENDBRANCH  40  41
ENDBRANCH  39  40
ENDBRANCH  38  39
ENDBRANCH   4  38
TORSDOF 18
ENDMDL
MODEL 5
REMARK VINA RESULT: -7.759665052      2.725      4.701
REMARK  18 active torsions:
REMARK  status: ('A' for Active; 'I' for Inactive)
REMARK    1  A    between atoms: C2_2  and  N2_6 
REMARK    2  A    between atoms: N2_6  and  C3_8 
REMARK    3  A    between atoms: C4_9  and  O1_10 
REMARK    4  A    between atoms: O1_10  and  C5_11 
REMARK    5  A    between atoms: C5_11  and  C6_12 
REMARK    6  A    between atoms: C6_12  and  O2_14 
REMARK    7  A    between atoms: C6_12  and  C8_16 
REMARK    8  A    between atoms: C8_16  and  O3_17 
REMARK    9  A    between atoms: C9_20  and  C10_21 
REMARK   10  A    between atoms: C10_21  and  S1_22 
REMARK   11  A    between atoms: S1_22  and  C11_23 
REMARK   12  A    between atoms: C11_23  and  N3_24 
REMARK   13  A    between atoms: C12_29  and  O6_30 
REMARK   14  A    between atoms: O6_30  and  C13_31 
REMARK   15  A    between atoms: C14_33  and  C15_34 
REMARK   16  A    between atoms: C15_34  and  N4_35 
REMARK   17  A    between atoms: C16_39  and  O8_40 
REMARK   18  A    between atoms: C17_42  and  O9_43 
ROOT
HETATM    1  C3  UNL     1     -22.972   0.748   4.319  1.00  0.00     0.193 C 
HETATM    2  C4  UNL     1     -22.494   1.082   2.893  1.00  0.00     0.290 C 
HETATM    3  O4  UNL     1     -21.304   1.782   3.052  1.00  0.00    -0.328 OA
HETATM    4  C9  UNL     1     -21.566   3.048   3.483  1.00  0.00     0.275 C 
HETATM    5  O5  UNL     1     -22.675   3.086   4.269  1.00  0.00    -0.328 OA
HETATM    6  C12 UNL     1     -22.855   1.985   5.113  1.00  0.00     0.293 C 
ENDROOT
BRANCH   6   7
HETATM    7  O6  UNL     1     -23.895   2.283   5.948  1.00  0.00    -0.326 OA
BRANCH   7   8
HETATM    8  C13 UNL     1     -23.799   1.922   7.246  1.00  0.00     0.294 C 
HETATM    9  O7  UNL     1     -24.217   3.019   8.014  1.00  0.00    -0.349 OA
HETATM   10  C14 UNL     1     -24.877   2.545   9.113  1.00  0.00     0.181 C 
HETATM   11  C16 UNL     1     -25.506   1.231   8.774  1.00  0.00     0.182 C 
HETATM   12  C17 UNL     1     -24.624   0.742   7.653  1.00  0.00     0.204 C 
BRANCH  10  13
HETATM   13  C15 UNL     1     -25.965   3.489   9.575  1.00  0.00     0.264 C 
BRANCH  13  14
HETATM   14  N4  UNL     1     -26.505   4.265   8.499  1.00  0.00    -0.077 N 
ATOM     15  H43 UNL     1     -26.052   4.034   7.615  1.00  0.00     0.274 HD
ATOM     16  H42 UNL     1     -27.457   3.973   8.277  1.00  0.00     0.274 HD
ATOM     17  H41 UNL     1     -26.461   5.267   8.684  1.00  0.00     0.274 HD
ENDBRANCH  13  14
ENDBRANCH  10  13
BRANCH  11  18
HETATM   18  O8  UNL     1     -26.835   1.342   8.362  1.00  0.00    -0.390 OA
ATOM     19  H8  UNL     1     -27.037   2.177   7.955  1.00  0.00     0.210 HD
ENDBRANCH  11  18
BRANCH  12  20
HETATM   20  O9  UNL     1     -25.440   0.255   6.652  1.00  0.00    -0.388 OA
ATOM     21  H9  UNL     1     -24.969  -0.154   5.935  1.00  0.00     0.210 HD
ENDBRANCH  12  20
ENDBRANCH   7   8
ENDBRANCH   6   7
BRANCH   1  22
HETATM   22  N2  UNL     1     -22.259  -0.398   4.747  1.00  0.00    -0.366 N 
ATOM     23  H2  UNL     1     -21.321  -0.219   5.104  1.00  0.00     0.161 HD
BRANCH  22  24
HETATM   24  C2  UNL     1     -22.653  -1.736   4.752  1.00  0.00     0.067 C 
HETATM   25  C1  UNL     1     -23.379  -2.278   5.919  1.00  0.00     0.088 C 
HETATM   26  N1  UNL     1     -22.390  -2.496   3.765  1.00  0.00    -0.389 N 
ATOM     27  H12 UNL     1     -22.678  -3.474   3.769  1.00  0.00     0.157 HD
ATOM     28  H11 UNL     1     -21.888  -2.121   2.960  1.00  0.00     0.157 HD
ENDBRANCH  22  24
ENDBRANCH   1  22
BRANCH   2  29
HETATM   29  O1  UNL     1     -22.209  -0.060   2.182  1.00  0.00    -0.356 OA
BRANCH  29  30
HETATM   30  C5  UNL     1     -22.421   0.164   0.824  1.00  0.00     0.210 C 
BRANCH  30  31
HETATM   31  C6  UNL     1     -21.542  -0.743  -0.018  1.00  0.00     0.097 C 
HETATM   32  C7  UNL     1     -22.225  -1.163  -1.284  1.00  0.00     0.050 C 
BRANCH  31  33
HETATM   33  O2  UNL     1     -21.252  -1.864   0.738  1.00  0.00    -0.386 OA
ATOM     34  H2  UNL     1     -21.804  -2.571   0.426  1.00  0.00     0.210 HD
ENDBRANCH  31  33
BRANCH  31  35
HETATM   35  C8  UNL     1     -20.256   0.010  -0.281  1.00  0.00     0.203 C 
BRANCH  35  36
HETATM   36  O3  UNL     1     -19.648   0.226   0.943  1.00  0.00    -0.398 OA
ATOM     37  H3  UNL     1     -20.268  -0.028   1.616  1.00  0.00     0.209 HD
ENDBRANCH  35  36
ENDBRANCH  31  35
ENDBRANCH  30  31
ENDBRANCH  29  30
ENDBRANCH   2  29
BRANCH   4  38
HETATM   38  C10 UNL     1     -21.775   4.027   2.325  1.00  0.00     0.136 C 
BRANCH  38  39
HETATM   39  S1  UNL     1     -21.427   5.725   2.866  1.00  0.00    -0.137 SA
BRANCH  39  40
HETATM   40  C11 UNL     1     -22.965   6.677   2.734  1.00  0.00     0.303 C 
BRANCH  40  41
HETATM   41  N3  UNL     1     -24.075   5.751   2.906  1.00  0.00    -0.071 N 
ATOM     42  H33 UNL     1     -24.077   5.002   2.213  1.00  0.00     0.275 HD
ATOM     43  H32 UNL     1     -23.978   5.166   3.736  1.00  0.00     0.275 HD
ATOM     44  H31 UNL     1     -24.937   6.296   2.903  1.00  0.00     0.275 HD
ENDBRANCH  40  41
ENDBRANCH  39  40
ENDBRANCH  38  39
ENDBRANCH   4  38
TORSDOF 18
ENDMDL
