MODEL 1
REMARK VINA RESULT: -7.247143165      0.000      0.000
REMARK  18 active torsions:
REMARK  status: ('A' for Active; 'I' for Inactive)
REMARK    1  A    between atoms: N1_1  and  C1_5 
REMARK    2  A    between atoms: C3_7  and  N2_8 
REMARK    3  A    between atoms: C4_12  and  O1_13 
REMARK    4  A    between atoms: C5_15  and  O2_16 
REMARK    5  A    between atoms: O2_16  and  C6_17 
REMARK    6  A    between atoms: C7_18  and  N3_19 
REMARK    7  A    between atoms: C9_24  and  N4_25 
REMARK    8  A    between atoms: C10_29  and  O3_30 
REMARK    9  A    between atoms: O3_30  and  C11_31 
REMARK   10  A    between atoms: C13_33  and  C14_34 
REMARK   11  A    between atoms: C14_34  and  O4_35 
REMARK   12  A    between atoms: O4_35  and  C15_36 
REMARK   13  A    between atoms: C15_36  and  O5_37 
REMARK   14  A    between atoms: C15_36  and  N5_39 
REMARK   15  A    between atoms: N5_39  and  C16_42 
REMARK   16  A    between atoms: C16_42  and  C17_43 
REMARK   17  A    between atoms: C17_43  and  C18_44 
REMARK   18  A    between atoms: C19_48  and  N6_49 
ROOT
HETATM    1  C6  UNL     1     -21.464   1.113   0.791  1.00  0.00     0.183 C 
HETATM    2  C7  UNL     1     -22.616   0.949  -0.211  1.00  0.00     0.217 C 
HETATM    3  C8  UNL     1     -22.877  -0.533  -0.338  1.00  0.00     0.071 C 
HETATM    4  C9  UNL     1     -21.562  -1.141   0.050  1.00  0.00     0.217 C 
HETATM    5  C10 UNL     1     -21.280  -0.320   1.321  1.00  0.00     0.186 C 
ENDROOT
BRANCH   1   6
HETATM    6  O2  UNL     1     -21.815   1.937   1.744  1.00  0.00    -0.371 OA
BRANCH   6   7
HETATM    7  C5  UNL     1     -21.045   2.925   2.238  1.00  0.00     0.185 C 
HETATM    8  C4  UNL     1     -20.219   2.610   3.434  1.00  0.00     0.179 C 
HETATM    9  C3  UNL     1     -18.859   2.081   3.184  1.00  0.00     0.216 C 
HETATM   10  C2  UNL     1     -18.125   2.570   2.007  1.00  0.00     0.070 C 
HETATM   11  C1  UNL     1     -18.927   3.154   0.891  1.00  0.00     0.218 C 
HETATM   12  C19 UNL     1     -20.226   3.757   1.308  1.00  0.00     0.245 C 
BRANCH   8  13
HETATM   13  O1  UNL     1     -20.947   1.671   4.200  1.00  0.00    -0.391 OA
ATOM     14  H1  UNL     1     -21.818   1.577   3.830  1.00  0.00     0.210 HD
ENDBRANCH   8  13
BRANCH   9  15
HETATM   15  N2  UNL     1     -18.926   0.624   3.192  1.00  0.00    -0.072 N 
ATOM     16  H23 UNL     1     -19.228   0.257   2.289  1.00  0.00     0.274 HD
ATOM     17  H22 UNL     1     -17.997   0.204   3.227  1.00  0.00     0.274 HD
ATOM     18  H21 UNL     1     -19.518   0.289   3.951  1.00  0.00     0.274 HD
ENDBRANCH   9  15
BRANCH  11  19
HETATM   19  N1  UNL     1     -18.164   4.254   0.268  1.00  0.00    -0.073 N 
ATOM     20  H13 UNL     1     -17.367   4.542   0.836  1.00  0.00     0.274 HD
ATOM     21  H12 UNL     1     -17.649   3.950  -0.558  1.00  0.00     0.274 HD
ATOM     22  H11 UNL     1     -18.796   5.029   0.066  1.00  0.00     0.274 HD
ENDBRANCH  11  19
BRANCH  12  23
HETATM   23  N6  UNL     1     -20.930   4.269   0.175  1.00  0.00    -0.070 N 
ATOM     24  H63 UNL     1     -21.457   5.111   0.406  1.00  0.00     0.274 HD
ATOM     25  H62 UNL     1     -20.296   4.669  -0.516  1.00  0.00     0.274 HD
ATOM     26  H61 UNL     1     -21.527   3.548  -0.232  1.00  0.00     0.274 HD
ENDBRANCH  12  23
ENDBRANCH   6   7
ENDBRANCH   1   6
BRANCH   2  27
HETATM   27  N3  UNL     1     -22.242   1.445  -1.522  1.00  0.00    -0.072 N 
ATOM     28  H33 UNL     1     -21.376   1.019  -1.853  1.00  0.00     0.274 HD
ATOM     29  H32 UNL     1     -22.871   1.100  -2.248  1.00  0.00     0.274 HD
ATOM     30  H31 UNL     1     -22.186   2.464  -1.528  1.00  0.00     0.274 HD
ENDBRANCH   2  27
BRANCH   5  31
HETATM   31  O3  UNL     1     -22.248  -0.644   2.235  1.00  0.00    -0.351 OA
BRANCH  31  32
HETATM   32  C11 UNL     1     -21.727  -1.584   3.116  1.00  0.00     0.263 C 
HETATM   33  C12 UNL     1     -22.704  -2.402   3.890  1.00  0.00     0.095 C 
HETATM   34  C13 UNL     1     -22.360  -1.393   4.949  1.00  0.00     0.153 C 
HETATM   35  O8  UNL     1     -21.213  -1.013   4.270  1.00  0.00    -0.354 OA
BRANCH  34  36
HETATM   36  C14 UNL     1     -23.417  -0.335   5.052  1.00  0.00     0.205 C 
BRANCH  36  37
HETATM   37  O4  UNL     1     -23.143   0.508   6.100  1.00  0.00    -0.337 OA
BRANCH  37  38
HETATM   38  C15 UNL     1     -23.928   1.624   6.204  1.00  0.00     0.466 C 
BRANCH  38  39
HETATM   39  O5  UNL     1     -23.284   2.664   6.910  1.00  0.00    -0.350 OA
ATOM     40  H5  UNL     1     -23.850   3.417   7.034  1.00  0.00     0.214 HD
ENDBRANCH  38  39
BRANCH  38  41
HETATM   41  N5  UNL     1     -25.156   1.328   6.924  1.00  0.00    -0.025 N 
ATOM     42  H52 UNL     1     -25.857   2.060   6.814  1.00  0.00     0.283 HD
ATOM     43  H51 UNL     1     -25.680   0.563   6.499  1.00  0.00     0.283 HD
BRANCH  41  44
HETATM   44  C16 UNL     1     -24.834   1.069   8.334  1.00  0.00     0.249 C 
BRANCH  44  45
HETATM   45  C17 UNL     1     -25.950   1.550   9.224  1.00  0.00     0.141 C 
BRANCH  45  46
HETATM   46  C18 UNL     1     -25.780   3.014   9.419  1.00  0.00     0.174 C 
HETATM   47  O6  UNL     1     -25.652   3.798   8.463  1.00  0.00    -0.648 OA
HETATM   48  O7  UNL     1     -25.759   3.566  10.701  1.00  0.00    -0.648 OA
ENDBRANCH  45  46
ENDBRANCH  44  45
ENDBRANCH  41  44
ENDBRANCH  38  41
ENDBRANCH  37  38
ENDBRANCH  36  37
ENDBRANCH  34  36
ENDBRANCH  31  32
ENDBRANCH   5  31
BRANCH   4  49
HETATM   49  N4  UNL     1     -20.544  -0.876  -0.934  1.00  0.00    -0.072 N 
ATOM     50  H43 UNL     1     -20.510  -1.610  -1.641  1.00  0.00     0.274 HD
ATOM     51  H42 UNL     1     -20.800  -0.091  -1.532  1.00  0.00     0.274 HD
ATOM     52  H41 UNL     1     -19.632  -0.733  -0.502  1.00  0.00     0.274 HD
ENDBRANCH   4  49
TORSDOF 18
ENDMDL
MODEL 2
REMARK VINA RESULT: -7.209777736      2.002      4.390
REMARK  18 active torsions:
REMARK  status: ('A' for Active; 'I' for Inactive)
REMARK    1  A    between atoms: N1_1  and  C1_5 
REMARK    2  A    between atoms: C3_7  and  N2_8 
REMARK    3  A    between atoms: C4_12  and  O1_13 
REMARK    4  A    between atoms: C5_15  and  O2_16 
REMARK    5  A    between atoms: O2_16  and  C6_17 
REMARK    6  A    between atoms: C7_18  and  N3_19 
REMARK    7  A    between atoms: C9_24  and  N4_25 
REMARK    8  A    between atoms: C10_29  and  O3_30 
REMARK    9  A    between atoms: O3_30  and  C11_31 
REMARK   10  A    between atoms: C13_33  and  C14_34 
REMARK   11  A    between atoms: C14_34  and  O4_35 
REMARK   12  A    between atoms: O4_35  and  C15_36 
REMARK   13  A    between atoms: C15_36  and  O5_37 
REMARK   14  A    between atoms: C15_36  and  N5_39 
REMARK   15  A    between atoms: N5_39  and  C16_42 
REMARK   16  A    between atoms: C16_42  and  C17_43 
REMARK   17  A    between atoms: C17_43  and  C18_44 
REMARK   18  A    between atoms: C19_48  and  N6_49 
ROOT
HETATM    1  C6  UNL     1     -21.608   2.778   0.359  1.00  0.00     0.183 C 
HETATM    2  C7  UNL     1     -20.378   3.434  -0.285  1.00  0.00     0.217 C 
HETATM    3  C8  UNL     1     -19.538   3.990   0.841  1.00  0.00     0.071 C 
HETATM    4  C9  UNL     1     -20.541   4.195   1.937  1.00  0.00     0.217 C 
HETATM    5  C10 UNL     1     -21.270   2.843   1.859  1.00  0.00     0.186 C 
ENDROOT
BRANCH   1   6
HETATM    6  O2  UNL     1     -21.725   1.543  -0.056  1.00  0.00    -0.371 OA
BRANCH   6   7
HETATM    7  C5  UNL     1     -21.162   1.043  -1.172  1.00  0.00     0.185 C 
HETATM    8  C4  UNL     1     -20.260  -0.129  -1.011  1.00  0.00     0.179 C 
HETATM    9  C3  UNL     1     -20.886  -1.468  -1.085  1.00  0.00     0.216 C 
HETATM   10  C2  UNL     1     -22.028  -1.656  -1.993  1.00  0.00     0.070 C 
HETATM   11  C1  UNL     1     -22.793  -0.439  -2.395  1.00  0.00     0.218 C 
HETATM   12  C19 UNL     1     -22.002   0.825  -2.387  1.00  0.00     0.245 C 
BRANCH   8  13
HETATM   13  O1  UNL     1     -19.620   0.015   0.241  1.00  0.00    -0.391 OA
ATOM     14  H1  UNL     1     -20.056   0.699   0.736  1.00  0.00     0.210 HD
ENDBRANCH   8  13
BRANCH   9  15
HETATM   15  N2  UNL     1     -21.220  -1.892   0.270  1.00  0.00    -0.072 N 
ATOM     16  H23 UNL     1     -21.043  -1.153   0.950  1.00  0.00     0.274 HD
ATOM     17  H22 UNL     1     -22.228  -1.983   0.398  1.00  0.00     0.274 HD
ATOM     18  H21 UNL     1     -20.731  -2.753   0.516  1.00  0.00     0.274 HD
ENDBRANCH   9  15
BRANCH  11  19
HETATM   19  N1  UNL     1     -23.265  -0.599  -3.786  1.00  0.00    -0.073 N 
ATOM     20  H13 UNL     1     -22.529  -0.934  -4.408  1.00  0.00     0.274 HD
ATOM     21  H12 UNL     1     -23.909  -1.383  -3.889  1.00  0.00     0.274 HD
ATOM     22  H11 UNL     1     -23.671   0.280  -4.106  1.00  0.00     0.274 HD
ENDBRANCH  11  19
BRANCH  12  23
HETATM   23  N6  UNL     1     -22.820   1.934  -2.763  1.00  0.00    -0.070 N 
ATOM     24  H63 UNL     1     -23.221   1.811  -3.693  1.00  0.00     0.274 HD
ATOM     25  H62 UNL     1     -23.686   1.965  -2.226  1.00  0.00     0.274 HD
ATOM     26  H61 UNL     1     -22.297   2.807  -2.689  1.00  0.00     0.274 HD
ENDBRANCH  12  23
ENDBRANCH   6   7
ENDBRANCH   1   6
BRANCH   2  27
HETATM   27  N3  UNL     1     -20.763   4.543  -1.137  1.00  0.00    -0.072 N 
ATOM     28  H33 UNL     1     -20.622   4.326  -2.124  1.00  0.00     0.274 HD
ATOM     29  H32 UNL     1     -21.775   4.674  -1.150  1.00  0.00     0.274 HD
ATOM     30  H31 UNL     1     -20.278   5.399  -0.869  1.00  0.00     0.274 HD
ENDBRANCH   2  27
BRANCH   5  31
HETATM   31  O3  UNL     1     -20.365   1.874   2.210  1.00  0.00    -0.351 OA
BRANCH  31  32
HETATM   32  C11 UNL     1     -20.171   1.928   3.585  1.00  0.00     0.263 C 
HETATM   33  C12 UNL     1     -19.617   0.709   4.239  1.00  0.00     0.095 C 
HETATM   34  C13 UNL     1     -21.068   0.508   4.571  1.00  0.00     0.153 C 
HETATM   35  O8  UNL     1     -21.356   1.836   4.299  1.00  0.00    -0.354 OA
BRANCH  34  36
HETATM   36  C14 UNL     1     -21.704  -0.482   3.642  1.00  0.00     0.205 C 
BRANCH  36  37
HETATM   37  O4  UNL     1     -22.959  -0.813   4.088  1.00  0.00    -0.337 OA
BRANCH  37  38
HETATM   38  C15 UNL     1     -23.036  -1.348   5.345  1.00  0.00     0.466 C 
BRANCH  38  39
HETATM   39  O5  UNL     1     -22.982  -2.760   5.327  1.00  0.00    -0.350 OA
ATOM     40  H5  UNL     1     -22.113  -3.088   5.527  1.00  0.00     0.214 HD
ENDBRANCH  38  39
BRANCH  38  41
HETATM   41  N5  UNL     1     -24.290  -0.986   5.986  1.00  0.00    -0.025 N 
ATOM     42  H52 UNL     1     -25.091  -1.456   5.564  1.00  0.00     0.283 HD
ATOM     43  H51 UNL     1     -24.373  -1.377   6.924  1.00  0.00     0.283 HD
BRANCH  41  44
HETATM   44  C16 UNL     1     -24.429   0.477   5.974  1.00  0.00     0.249 C 
BRANCH  44  45
HETATM   45  C17 UNL     1     -23.816   1.072   7.215  1.00  0.00     0.141 C 
BRANCH  45  46
HETATM   46  C18 UNL     1     -24.549   0.534   8.390  1.00  0.00     0.174 C 
HETATM   47  O6  UNL     1     -24.340  -0.608   8.835  1.00  0.00    -0.648 OA
HETATM   48  O7  UNL     1     -25.513   1.303   9.045  1.00  0.00    -0.648 OA
ENDBRANCH  45  46
ENDBRANCH  44  45
ENDBRANCH  41  44
ENDBRANCH  38  41
ENDBRANCH  37  38
ENDBRANCH  36  37
ENDBRANCH  34  36
ENDBRANCH  31  32
ENDBRANCH   5  31
BRANCH   4  49
HETATM   49  N4  UNL     1     -21.459   5.260   1.623  1.00  0.00    -0.072 N 
ATOM     50  H43 UNL     1     -20.993   6.022   1.133  1.00  0.00     0.274 HD
ATOM     51  H42 UNL     1     -22.116   4.981   0.894  1.00  0.00     0.274 HD
ATOM     52  H41 UNL     1     -21.945   5.594   2.455  1.00  0.00     0.274 HD
ENDBRANCH   4  49
TORSDOF 18
ENDMDL
MODEL 3
REMARK VINA RESULT: -7.156185921      2.296      4.669
REMARK  18 active torsions:
REMARK  status: ('A' for Active; 'I' for Inactive)
REMARK    1  A    between atoms: N1_1  and  C1_5 
REMARK    2  A    between atoms: C3_7  and  N2_8 
REMARK    3  A    between atoms: C4_12  and  O1_13 
REMARK    4  A    between atoms: C5_15  and  O2_16 
REMARK    5  A    between atoms: O2_16  and  C6_17 
REMARK    6  A    between atoms: C7_18  and  N3_19 
REMARK    7  A    between atoms: C9_24  and  N4_25 
REMARK    8  A    between atoms: C10_29  and  O3_30 
REMARK    9  A    between atoms: O3_30  and  C11_31 
REMARK   10  A    between atoms: C13_33  and  C14_34 
REMARK   11  A    between atoms: C14_34  and  O4_35 
REMARK   12  A    between atoms: O4_35  and  C15_36 
REMARK   13  A    between atoms: C15_36  and  O5_37 
REMARK   14  A    between atoms: C15_36  and  N5_39 
REMARK   15  A    between atoms: N5_39  and  C16_42 
REMARK   16  A    between atoms: C16_42  and  C17_43 
REMARK   17  A    between atoms: C17_43  and  C18_44 
REMARK   18  A    between atoms: C19_48  and  N6_49 
ROOT
HETATM    1  C6  UNL     1     -21.165   3.011   1.004  1.00  0.00     0.183 C 
HETATM    2  C7  UNL     1     -20.115   3.532   0.012  1.00  0.00     0.217 C 
HETATM    3  C8  UNL     1     -18.878   3.856   0.815  1.00  0.00     0.071 C 
HETATM    4  C9  UNL     1     -19.425   4.110   2.188  1.00  0.00     0.217 C 
HETATM    5  C10 UNL     1     -20.357   2.892   2.309  1.00  0.00     0.186 C 
ENDROOT
BRANCH   1   6
HETATM    6  O2  UNL     1     -21.616   1.849   0.609  1.00  0.00    -0.371 OA
BRANCH   6   7
HETATM    7  C5  UNL     1     -21.683   1.437  -0.671  1.00  0.00     0.185 C 
HETATM    8  C4  UNL     1     -20.986   0.168  -1.014  1.00  0.00     0.179 C 
HETATM    9  C3  UNL     1     -21.769  -1.081  -0.884  1.00  0.00     0.216 C 
HETATM   10  C2  UNL     1     -23.208  -1.037  -1.186  1.00  0.00     0.070 C 
HETATM   11  C1  UNL     1     -23.885   0.293  -1.116  1.00  0.00     0.218 C 
HETATM   12  C19 UNL     1     -22.994   1.458  -1.384  1.00  0.00     0.245 C 
BRANCH   8  13
HETATM   13  O1  UNL     1     -19.846   0.089  -0.182  1.00  0.00    -0.391 OA
ATOM     14  H1  UNL     1     -19.065   0.081  -0.723  1.00  0.00     0.210 HD
ENDBRANCH   8  13
BRANCH   9  15
HETATM   15  N2  UNL     1     -21.529  -1.634   0.444  1.00  0.00    -0.072 N 
ATOM     16  H23 UNL     1     -22.402  -1.798   0.946  1.00  0.00     0.274 HD
ATOM     17  H22 UNL     1     -21.195  -2.597   0.396  1.00  0.00     0.274 HD
ATOM     18  H21 UNL     1     -20.893  -1.042   0.978  1.00  0.00     0.274 HD
ENDBRANCH   9  15
BRANCH  11  19
HETATM   19  N1  UNL     1     -24.939   0.356  -2.149  1.00  0.00    -0.073 N 
ATOM     20  H13 UNL     1     -25.562   1.152  -2.017  1.00  0.00     0.274 HD
ATOM     21  H12 UNL     1     -24.569   0.613  -3.064  1.00  0.00     0.274 HD
ATOM     22  H11 UNL     1     -25.442  -0.530  -2.169  1.00  0.00     0.274 HD
ENDBRANCH  11  19
BRANCH  12  23
HETATM   23  N6  UNL     1     -23.721   2.683  -1.275  1.00  0.00    -0.070 N 
ATOM     24  H63 UNL     1     -23.677   3.229  -2.136  1.00  0.00     0.274 HD
ATOM     25  H62 UNL     1     -24.728   2.524  -1.246  1.00  0.00     0.274 HD
ATOM     26  H61 UNL     1     -23.400   3.221  -0.469  1.00  0.00     0.274 HD
ENDBRANCH  12  23
ENDBRANCH   6   7
ENDBRANCH   1   6
BRANCH   2  27
HETATM   27  N3  UNL     1     -20.561   4.757  -0.625  1.00  0.00    -0.072 N 
ATOM     28  H33 UNL     1     -21.435   4.621  -1.133  1.00  0.00     0.274 HD
ATOM     29  H32 UNL     1     -20.886   5.440   0.060  1.00  0.00     0.274 HD
ATOM     30  H31 UNL     1     -19.834   5.145  -1.226  1.00  0.00     0.274 HD
ENDBRANCH   2  27
BRANCH   5  31
HETATM   31  O3  UNL     1     -19.565   1.774   2.306  1.00  0.00    -0.351 OA
BRANCH  31  32
HETATM   32  C11 UNL     1     -19.322   1.401   3.623  1.00  0.00     0.263 C 
HETATM   33  C12 UNL     1     -19.378  -0.056   3.936  1.00  0.00     0.095 C 
HETATM   34  C13 UNL     1     -20.744   0.337   4.423  1.00  0.00     0.153 C 
HETATM   35  O8  UNL     1     -20.389   1.675   4.465  1.00  0.00    -0.354 OA
BRANCH  34  36
HETATM   36  C14 UNL     1     -21.798  -0.009   3.415  1.00  0.00     0.205 C 
BRANCH  36  37
HETATM   37  O4  UNL     1     -22.746  -0.824   3.981  1.00  0.00    -0.337 OA
BRANCH  37  38
HETATM   38  C15 UNL     1     -22.355  -2.103   4.269  1.00  0.00     0.466 C 
BRANCH  38  39
HETATM   39  O5  UNL     1     -22.048  -2.841   3.103  1.00  0.00    -0.350 OA
ATOM     40  H5  UNL     1     -22.096  -3.778   3.250  1.00  0.00     0.214 HD
ENDBRANCH  38  39
BRANCH  38  41
HETATM   41  N5  UNL     1     -23.415  -2.826   4.953  1.00  0.00    -0.025 N 
ATOM     42  H52 UNL     1     -24.322  -2.703   4.503  1.00  0.00     0.283 HD
ATOM     43  H51 UNL     1     -23.333  -3.836   4.837  1.00  0.00     0.283 HD
BRANCH  41  44
HETATM   44  C16 UNL     1     -23.433  -2.425   6.367  1.00  0.00     0.249 C 
BRANCH  44  45
HETATM   45  C17 UNL     1     -24.648  -1.583   6.659  1.00  0.00     0.141 C 
BRANCH  45  46
HETATM   46  C18 UNL     1     -24.220  -0.442   7.509  1.00  0.00     0.174 C 
HETATM   47  O6  UNL     1     -23.595   0.529   7.048  1.00  0.00    -0.648 OA
HETATM   48  O7  UNL     1     -24.509  -0.421   8.874  1.00  0.00    -0.648 OA
ENDBRANCH  45  46
ENDBRANCH  44  45
ENDBRANCH  41  44
ENDBRANCH  38  41
ENDBRANCH  37  38
ENDBRANCH  36  37
ENDBRANCH  34  36
ENDBRANCH  31  32
ENDBRANCH   5  31
BRANCH   4  49
HETATM   49  N4  UNL     1     -20.202   5.322   2.233  1.00  0.00    -0.072 N 
ATOM     50  H43 UNL     1     -20.343   5.639   3.192  1.00  0.00     0.274 HD
ATOM     51  H42 UNL     1     -19.672   6.118   1.880  1.00  0.00     0.274 HD
ATOM     52  H41 UNL     1     -21.089   5.217   1.743  1.00  0.00     0.274 HD
ENDBRANCH   4  49
TORSDOF 18
ENDMDL
MODEL 4
REMARK VINA RESULT: -7.146824444      1.996      3.534
REMARK  18 active torsions:
REMARK  status: ('A' for Active; 'I' for Inactive)
REMARK    1  A    between atoms: N1_1  and  C1_5 
REMARK    2  A    between atoms: C3_7  and  N2_8 
REMARK    3  A    between atoms: C4_12  and  O1_13 
REMARK    4  A    between atoms: C5_15  and  O2_16 
REMARK    5  A    between atoms: O2_16  and  C6_17 
REMARK    6  A    between atoms: C7_18  and  N3_19 
REMARK    7  A    between atoms: C9_24  and  N4_25 
REMARK    8  A    between atoms: C10_29  and  O3_30 
REMARK    9  A    between atoms: O3_30  and  C11_31 
REMARK   10  A    between atoms: C13_33  and  C14_34 
REMARK   11  A    between atoms: C14_34  and  O4_35 
REMARK   12  A    between atoms: O4_35  and  C15_36 
REMARK   13  A    between atoms: C15_36  and  O5_37 
REMARK   14  A    between atoms: C15_36  and  N5_39 
REMARK   15  A    between atoms: N5_39  and  C16_42 
REMARK   16  A    between atoms: C16_42  and  C17_43 
REMARK   17  A    between atoms: C17_43  and  C18_44 
REMARK   18  A    between atoms: C19_48  and  N6_49 
ROOT
HETATM    1  C6  UNL     1     -21.400   3.110   2.556  1.00  0.00     0.183 C 
HETATM    2  C7  UNL     1     -21.430   4.591   2.961  1.00  0.00     0.217 C 
HETATM    3  C8  UNL     1     -22.631   4.775   3.859  1.00  0.00     0.071 C 
HETATM    4  C9  UNL     1     -23.534   3.651   3.446  1.00  0.00     0.217 C 
HETATM    5  C10 UNL     1     -22.508   2.504   3.435  1.00  0.00     0.186 C 
ENDROOT
BRANCH   1   6
HETATM    6  O2  UNL     1     -20.230   2.595   2.833  1.00  0.00    -0.371 OA
BRANCH   6   7
HETATM    7  C5  UNL     1     -19.366   2.099   1.928  1.00  0.00     0.185 C 
HETATM    8  C4  UNL     1     -19.623   0.723   1.426  1.00  0.00     0.179 C 
HETATM    9  C3  UNL     1     -20.485   0.598   0.229  1.00  0.00     0.216 C 
HETATM   10  C2  UNL     1     -20.414   1.652  -0.795  1.00  0.00     0.070 C 
HETATM   11  C1  UNL     1     -19.891   2.986  -0.373  1.00  0.00     0.218 C 
HETATM   12  C19 UNL     1     -18.940   2.946   0.775  1.00  0.00     0.245 C 
BRANCH   8  13
HETATM   13  O1  UNL     1     -20.205  -0.000   2.493  1.00  0.00    -0.391 OA
ATOM     14  H1  UNL     1     -19.599  -0.676   2.777  1.00  0.00     0.210 HD
ENDBRANCH   8  13
BRANCH   9  15
HETATM   15  N2  UNL     1     -21.859   0.393   0.674  1.00  0.00    -0.072 N 
ATOM     16  H23 UNL     1     -22.270   1.253   1.037  1.00  0.00     0.274 HD
ATOM     17  H22 UNL     1     -22.490   0.239  -0.112  1.00  0.00     0.274 HD
ATOM     18  H21 UNL     1     -21.914  -0.366   1.354  1.00  0.00     0.274 HD
ENDBRANCH   9  15
BRANCH  11  19
HETATM   19  N1  UNL     1     -19.136   3.587  -1.491  1.00  0.00    -0.073 N 
ATOM     20  H13 UNL     1     -18.131   3.438  -1.403  1.00  0.00     0.274 HD
ATOM     21  H12 UNL     1     -19.279   3.088  -2.368  1.00  0.00     0.274 HD
ATOM     22  H11 UNL     1     -19.375   4.576  -1.564  1.00  0.00     0.274 HD
ENDBRANCH  11  19
BRANCH  12  23
HETATM   23  N6  UNL     1     -18.511   4.265   1.119  1.00  0.00    -0.070 N 
ATOM     24  H63 UNL     1     -17.617   4.498   0.685  1.00  0.00     0.274 HD
ATOM     25  H62 UNL     1     -19.088   4.978   0.675  1.00  0.00     0.274 HD
ATOM     26  H61 UNL     1     -18.481   4.379   2.133  1.00  0.00     0.274 HD
ENDBRANCH  12  23
ENDBRANCH   6   7
ENDBRANCH   1   6
BRANCH   2  27
HETATM   27  N3  UNL     1     -21.610   5.446   1.802  1.00  0.00    -0.072 N 
ATOM     28  H33 UNL     1     -22.146   4.979   1.071  1.00  0.00     0.274 HD
ATOM     29  H32 UNL     1     -22.252   6.214   1.998  1.00  0.00     0.274 HD
ATOM     30  H31 UNL     1     -20.714   5.785   1.453  1.00  0.00     0.274 HD
ENDBRANCH   2  27
BRANCH   5  31
HETATM   31  O3  UNL     1     -22.083   2.330   4.727  1.00  0.00    -0.351 OA
BRANCH  31  32
HETATM   32  C11 UNL     1     -22.053   0.968   5.003  1.00  0.00     0.263 C 
HETATM   33  C12 UNL     1     -23.229   0.162   4.567  1.00  0.00     0.095 C 
HETATM   34  C13 UNL     1     -23.588   0.328   6.017  1.00  0.00     0.153 C 
HETATM   35  O8  UNL     1     -22.289   0.685   6.339  1.00  0.00    -0.354 OA
BRANCH  34  36
HETATM   36  C14 UNL     1     -24.609   1.411   6.201  1.00  0.00     0.205 C 
BRANCH  36  37
HETATM   37  O4  UNL     1     -25.553   1.021   7.117  1.00  0.00    -0.337 OA
BRANCH  37  38
HETATM   38  C15 UNL     1     -25.206   1.137   8.435  1.00  0.00     0.466 C 
BRANCH  38  39
HETATM   39  O5  UNL     1     -24.907  -0.115   9.019  1.00  0.00    -0.350 OA
ATOM     40  H5  UNL     1     -24.024  -0.403   8.816  1.00  0.00     0.214 HD
ENDBRANCH  38  39
BRANCH  38  41
HETATM   41  N5  UNL     1     -26.296   1.709   9.209  1.00  0.00    -0.025 N 
ATOM     42  H52 UNL     1     -27.187   1.668   8.713  1.00  0.00     0.283 HD
ATOM     43  H51 UNL     1     -26.552   1.128  10.008  1.00  0.00     0.283 HD
BRANCH  41  44
HETATM   44  C16 UNL     1     -25.937   3.077   9.603  1.00  0.00     0.249 C 
BRANCH  44  45
HETATM   45  C17 UNL     1     -27.121   3.997   9.446  1.00  0.00     0.141 C 
BRANCH  45  46
HETATM   46  C18 UNL     1     -27.404   4.133   7.994  1.00  0.00     0.174 C 
HETATM   47  O6  UNL     1     -26.976   5.088   7.322  1.00  0.00    -0.648 OA
HETATM   48  O7  UNL     1     -28.172   3.180   7.323  1.00  0.00    -0.648 OA
ENDBRANCH  45  46
ENDBRANCH  44  45
ENDBRANCH  41  44
ENDBRANCH  38  41
ENDBRANCH  37  38
ENDBRANCH  36  37
ENDBRANCH  34  36
ENDBRANCH  31  32
ENDBRANCH   5  31
BRANCH   4  49
HETATM   49  N4  UNL     1     -24.053   3.848   2.117  1.00  0.00    -0.072 N 
ATOM     50  H43 UNL     1     -23.640   3.193   1.454  1.00  0.00     0.274 HD
ATOM     51  H42 UNL     1     -25.026   3.550   2.049  1.00  0.00     0.274 HD
ATOM     52  H41 UNL     1     -23.936   4.812   1.807  1.00  0.00     0.274 HD
ENDBRANCH   4  49
TORSDOF 18
ENDMDL
MODEL 5
REMARK VINA RESULT: -7.057020853      1.909      2.918
REMARK  18 active torsions:
REMARK  status: ('A' for Active; 'I' for Inactive)
REMARK    1  A    between atoms: N1_1  and  C1_5 
REMARK    2  A    between atoms: C3_7  and  N2_8 
REMARK    3  A    between atoms: C4_12  and  O1_13 
REMARK    4  A    between atoms: C5_15  and  O2_16 
REMARK    5  A    between atoms: O2_16  and  C6_17 
REMARK    6  A    between atoms: C7_18  and  N3_19 
REMARK    7  A    between atoms: C9_24  and  N4_25 
REMARK    8  A    between atoms: C10_29  and  O3_30 
REMARK    9  A    between atoms: O3_30  and  C11_31 
REMARK   10  A    between atoms: C13_33  and  C14_34 
REMARK   11  A    between atoms: C14_34  and  O4_35 
REMARK   12  A    between atoms: O4_35  and  C15_36 
REMARK   13  A    between atoms: C15_36  and  O5_37 
REMARK   14  A    between atoms: C15_36  and  N5_39 
REMARK   15  A    between atoms: N5_39  and  C16_42 
REMARK   16  A    between atoms: C16_42  and  C17_43 
REMARK   17  A    between atoms: C17_43  and  C18_44 
REMARK   18  A    between atoms: C19_48  and  N6_49 
ROOT
HETATM    1  C6  UNL     1     -21.811   0.920   2.361  1.00  0.00     0.183 C 
HETATM    2  C7  UNL     1     -21.767  -0.336   1.478  1.00  0.00     0.217 C 
HETATM    3  C8  UNL     1     -21.522  -1.509   2.396  1.00  0.00     0.071 C 
HETATM    4  C9  UNL     1     -20.842  -0.877   3.574  1.00  0.00     0.217 C 
HETATM    5  C10 UNL     1     -21.779   0.326   3.780  1.00  0.00     0.186 C 
ENDROOT
BRANCH   1   6
HETATM    6  O2  UNL     1     -22.916   1.582   2.141  1.00  0.00    -0.371 OA
BRANCH   6   7
HETATM    7  C5  UNL     1     -22.995   2.783   1.537  1.00  0.00     0.185 C 
HETATM    8  C4  UNL     1     -22.329   3.929   2.213  1.00  0.00     0.179 C 
HETATM    9  C3  UNL     1     -20.913   4.179   1.863  1.00  0.00     0.216 C 
HETATM   10  C2  UNL     1     -20.474   3.903   0.487  1.00  0.00     0.070 C 
HETATM   11  C1  UNL     1     -21.296   2.951  -0.318  1.00  0.00     0.218 C 
HETATM   12  C19 UNL     1     -22.735   2.889   0.071  1.00  0.00     0.245 C 
BRANCH   8  13
HETATM   13  O1  UNL     1     -22.430   3.698   3.604  1.00  0.00    -0.391 OA
ATOM     14  H1  UNL     1     -23.005   4.351   3.987  1.00  0.00     0.210 HD
ENDBRANCH   8  13
BRANCH   9  15
HETATM   15  N2  UNL     1     -20.073   3.482   2.830  1.00  0.00    -0.072 N 
ATOM     16  H23 UNL     1     -20.630   2.931   3.484  1.00  0.00     0.274 HD
ATOM     17  H22 UNL     1     -19.549   2.722   2.395  1.00  0.00     0.274 HD
ATOM     18  H21 UNL     1     -19.457   4.133   3.317  1.00  0.00     0.274 HD
ENDBRANCH   9  15
BRANCH  11  19
HETATM   19  N1  UNL     1     -21.289   3.378  -1.732  1.00  0.00    -0.073 N 
ATOM     20  H13 UNL     1     -20.862   4.296  -1.857  1.00  0.00     0.274 HD
ATOM     21  H12 UNL     1     -20.635   2.837  -2.297  1.00  0.00     0.274 HD
ATOM     22  H11 UNL     1     -22.240   3.340  -2.099  1.00  0.00     0.274 HD
ENDBRANCH  11  19
BRANCH  12  23
HETATM   23  N6  UNL     1     -23.434   1.940  -0.737  1.00  0.00    -0.070 N 
ATOM     24  H63 UNL     1     -23.763   1.144  -0.189  1.00  0.00     0.274 HD
ATOM     25  H62 UNL     1     -24.338   2.298  -1.044  1.00  0.00     0.274 HD
ATOM     26  H61 UNL     1     -22.857   1.644  -1.525  1.00  0.00     0.274 HD
ENDBRANCH  12  23
ENDBRANCH   6   7
ENDBRANCH   1   6
BRANCH   2  27
HETATM   27  N3  UNL     1     -20.664  -0.274   0.537  1.00  0.00    -0.072 N 
ATOM     28  H33 UNL     1     -20.850   0.387  -0.218  1.00  0.00     0.274 HD
ATOM     29  H32 UNL     1     -19.848   0.181   0.944  1.00  0.00     0.274 HD
ATOM     30  H31 UNL     1     -20.436  -1.201   0.176  1.00  0.00     0.274 HD
ENDBRANCH   2  27
BRANCH   5  31
HETATM   31  O3  UNL     1     -23.003  -0.172   4.143  1.00  0.00    -0.351 OA
BRANCH  31  32
HETATM   32  C11 UNL     1     -22.862  -0.870   5.336  1.00  0.00     0.263 C 
HETATM   33  C12 UNL     1     -24.099  -1.446   5.935  1.00  0.00     0.095 C 
HETATM   34  C13 UNL     1     -23.988  -0.211   6.782  1.00  0.00     0.153 C 
HETATM   35  O8  UNL     1     -22.661  -0.037   6.425  1.00  0.00    -0.354 OA
BRANCH  34  36
HETATM   36  C14 UNL     1     -24.920   0.861   6.300  1.00  0.00     0.205 C 
BRANCH  36  37
HETATM   37  O4  UNL     1     -25.816   1.188   7.287  1.00  0.00    -0.337 OA
BRANCH  37  38
HETATM   38  C15 UNL     1     -25.287   1.483   8.514  1.00  0.00     0.466 C 
BRANCH  38  39
HETATM   39  O5  UNL     1     -26.006   0.871   9.565  1.00  0.00    -0.350 OA
ATOM     40  H5  UNL     1     -25.463   0.281  10.074  1.00  0.00     0.214 HD
ENDBRANCH  38  39
BRANCH  38  41
HETATM   41  N5  UNL     1     -25.324   2.916   8.762  1.00  0.00    -0.025 N 
ATOM     42  H52 UNL     1     -24.393   3.334   8.763  1.00  0.00     0.283 HD
ATOM     43  H51 UNL     1     -25.713   3.436   7.975  1.00  0.00     0.283 HD
BRANCH  41  44
HETATM   44  C16 UNL     1     -26.052   3.167  10.013  1.00  0.00     0.249 C 
BRANCH  44  45
HETATM   45  C17 UNL     1     -27.151   4.173   9.789  1.00  0.00     0.141 C 
BRANCH  45  46
HETATM   46  C18 UNL     1     -27.450   4.206   8.334  1.00  0.00     0.174 C 
HETATM   47  O6  UNL     1     -28.233   3.400   7.801  1.00  0.00    -0.648 OA
HETATM   48  O7  UNL     1     -26.856   5.157   7.503  1.00  0.00    -0.648 OA
ENDBRANCH  45  46
ENDBRANCH  44  45
ENDBRANCH  41  44
ENDBRANCH  38  41
ENDBRANCH  37  38
ENDBRANCH  36  37
ENDBRANCH  34  36
ENDBRANCH  31  32
ENDBRANCH   5  31
BRANCH   4  49
HETATM   49  N4  UNL     1     -19.521  -0.411   3.237  1.00  0.00    -0.072 N 
ATOM     50  H43 UNL     1     -19.272   0.421   3.772  1.00  0.00     0.274 HD
ATOM     51  H42 UNL     1     -18.802  -1.045   3.585  1.00  0.00     0.274 HD
ATOM     52  H41 UNL     1     -19.424  -0.251   2.235  1.00  0.00     0.274 HD
ENDBRANCH   4  49
TORSDOF 18
ENDMDL
