MODEL 1
REMARK VINA RESULT: -7.747809126      0.000      0.000
REMARK  19 active torsions:
REMARK  status: ('A' for Active; 'I' for Inactive)
REMARK    1  A    between atoms: N1_1  and  C1_5 
REMARK    2  A    between atoms: C1_5  and  C2_6 
REMARK    3  A    between atoms: C2_6  and  C3_7 
REMARK    4  A    between atoms: C3_7  and  C4_8 
REMARK    5  A    between atoms: C4_8  and  C5_9 
REMARK    6  A    between atoms: C5_9  and  C6_10 
REMARK    7  A    between atoms: C6_10  and  N2_11 
REMARK    8  A    between atoms: C7_13  and  N3_14 
REMARK    9  A    between atoms: N3_14  and  C8_16 
REMARK   10  A    between atoms: C8_16  and  C9_17 
REMARK   11  A    between atoms: C10_19  and  O2_20 
REMARK   12  A    between atoms: O2_20  and  C11_21 
REMARK   13  A    between atoms: C12_22  and  O3_23 
REMARK   14  A    between atoms: C13_25  and  O4_26 
REMARK   15  A    between atoms: C14_28  and  O5_29 
REMARK   16  A    between atoms: C15_31  and  O6_32 
REMARK   17  A    between atoms: C16_34  and  O7_35 
REMARK   18  A    between atoms: C17_37  and  N4_38 
REMARK   19  A    between atoms: C19_44  and  N5_45 
ROOT
HETATM    1  C9  UNL     1      44.207   1.906   4.818  1.00  0.00     0.178 C 
HETATM    2  O1  UNL     1      42.907   1.480   4.556  1.00  0.00    -0.349 OA
HETATM    3  C10 UNL     1      42.253   0.872   5.585  1.00  0.00     0.294 C 
HETATM    4  C17 UNL     1      42.816  -0.532   5.853  1.00  0.00     0.274 C 
HETATM    5  C18 UNL     1      43.488  -0.933   4.539  1.00  0.00     0.238 C 
HETATM    6  F1  UNL     1      42.728  -0.574   3.451  1.00  0.00    -0.245 F 
HETATM    7  C19 UNL     1      44.902  -0.512   4.462  1.00  0.00     0.255 C 
HETATM    8  C20 UNL     1      45.227   0.924   4.395  1.00  0.00     0.234 C 
HETATM    9  F2  UNL     1      46.368   1.060   5.222  1.00  0.00    -0.244 F 
ENDROOT
BRANCH   3  10
HETATM   10  O2  UNL     1      42.092   1.605   6.733  1.00  0.00    -0.348 OA
BRANCH  10  11
HETATM   11  C11 UNL     1      40.850   2.210   6.819  1.00  0.00     0.187 C 
HETATM   12  C12 UNL     1      40.876   3.518   7.580  1.00  0.00     0.181 C 
HETATM   13  C13 UNL     1      39.603   4.266   7.164  1.00  0.00     0.180 C 
HETATM   14  C14 UNL     1      38.409   3.367   7.200  1.00  0.00     0.180 C 
HETATM   15  C15 UNL     1      38.704   2.160   8.100  1.00  0.00     0.180 C 
HETATM   16  C16 UNL     1      39.795   1.322   7.424  1.00  0.00     0.181 C 
BRANCH  12  17
HETATM   17  O3  UNL     1      41.963   4.248   7.071  1.00  0.00    -0.390 OA
ATOM     18  H3  UNL     1      42.392   4.646   7.820  1.00  0.00     0.210 HD
ENDBRANCH  12  17
BRANCH  13  19
HETATM   19  O4  UNL     1      39.384   5.385   7.934  1.00  0.00    -0.390 OA
ATOM     20  H4  UNL     1      39.283   6.169   7.407  1.00  0.00     0.210 HD
ENDBRANCH  13  19
BRANCH  14  21
HETATM   21  O5  UNL     1      38.061   2.868   5.956  1.00  0.00    -0.390 OA
ATOM     22  H5  UNL     1      38.464   2.030   5.761  1.00  0.00     0.210 HD
ENDBRANCH  14  21
BRANCH  15  23
HETATM   23  O6  UNL     1      37.535   1.394   8.109  1.00  0.00    -0.390 OA
ATOM     24  H6  UNL     1      37.524   0.927   7.282  1.00  0.00     0.210 HD
ENDBRANCH  15  23
BRANCH  16  25
HETATM   25  O7  UNL     1      40.322   0.486   8.414  1.00  0.00    -0.390 OA
ATOM     26  H7  UNL     1      40.184  -0.433   8.213  1.00  0.00     0.210 HD
ENDBRANCH  16  25
ENDBRANCH  10  11
ENDBRANCH   3  10
BRANCH   4  27
HETATM   27  N4  UNL     1      41.758  -1.439   6.173  1.00  0.00    -0.068 N 
ATOM     28  H43 UNL     1      41.192  -1.103   6.952  1.00  0.00     0.275 HD
ATOM     29  H42 UNL     1      41.036  -1.449   5.454  1.00  0.00     0.275 HD
ATOM     30  H41 UNL     1      42.132  -2.372   6.350  1.00  0.00     0.275 HD
ENDBRANCH   4  27
BRANCH   1  31
HETATM   31  C8  UNL     1      44.331   3.235   4.155  1.00  0.00     0.155 C 
BRANCH  31  32
HETATM   32  N3  UNL     1      45.053   3.349   2.948  1.00  0.00    -0.384 N 
ATOM     33  H3  UNL     1      45.821   2.690   2.828  1.00  0.00     0.160 HD
BRANCH  32  34
HETATM   34  C7  UNL     1      44.852   4.257   1.880  1.00  0.00     0.171 C 
HETATM   35  N2  UNL     1      44.103   4.009   0.894  1.00  0.00    -0.386 N 
ATOM     36  H2  UNL     1      44.042   4.745   0.190  1.00  0.00     0.160 HD
BRANCH  35  37
HETATM   37  C6  UNL     1      43.332   2.837   0.631  1.00  0.00     0.120 C 
BRANCH  37  38
HETATM   38  C5  UNL     1      43.977   1.934  -0.400  1.00  0.00     0.020 C 
BRANCH  38  39
HETATM   39  C4  UNL     1      44.733   0.814   0.288  1.00  0.00     0.002 C 
BRANCH  39  40
HETATM   40  C3  UNL     1      46.192   0.791  -0.049  1.00  0.00     0.002 C 
BRANCH  40  41
HETATM   41  C2  UNL     1      47.000   1.246   1.124  1.00  0.00     0.027 C 
BRANCH  41  42
HETATM   42  C1  UNL     1      47.756   2.528   0.839  1.00  0.00     0.229 C 
BRANCH  42  43
HETATM   43  N1  UNL     1      48.866   2.709   1.736  1.00  0.00    -0.079 N 
ATOM     44  H13 UNL     1      48.594   3.252   2.556  1.00  0.00     0.274 HD
ATOM     45  H12 UNL     1      49.116   1.834   2.198  1.00  0.00     0.274 HD
ATOM     46  H11 UNL     1      49.671   3.124   1.268  1.00  0.00     0.274 HD
ENDBRANCH  42  43
ENDBRANCH  41  42
ENDBRANCH  40  41
ENDBRANCH  39  40
ENDBRANCH  38  39
ENDBRANCH  37  38
ENDBRANCH  35  37
ENDBRANCH  32  34
ENDBRANCH  31  32
ENDBRANCH   1  31
BRANCH   7  47
HETATM   47  N5  UNL     1      45.456  -1.155   3.249  1.00  0.00    -0.069 N 
ATOM     48  H53 UNL     1      45.997  -1.997   3.445  1.00  0.00     0.275 HD
ATOM     49  H52 UNL     1      44.747  -1.597   2.663  1.00  0.00     0.275 HD
ATOM     50  H51 UNL     1      45.990  -0.434   2.764  1.00  0.00     0.275 HD
ENDBRANCH   7  47
TORSDOF 19
ENDMDL
MODEL 2
REMARK VINA RESULT: -7.718972400      3.317      8.163
REMARK  19 active torsions:
REMARK  status: ('A' for Active; 'I' for Inactive)
REMARK    1  A    between atoms: N1_1  and  C1_5 
REMARK    2  A    between atoms: C1_5  and  C2_6 
REMARK    3  A    between atoms: C2_6  and  C3_7 
REMARK    4  A    between atoms: C3_7  and  C4_8 
REMARK    5  A    between atoms: C4_8  and  C5_9 
REMARK    6  A    between atoms: C5_9  and  C6_10 
REMARK    7  A    between atoms: C6_10  and  N2_11 
REMARK    8  A    between atoms: C7_13  and  N3_14 
REMARK    9  A    between atoms: N3_14  and  C8_16 
REMARK   10  A    between atoms: C8_16  and  C9_17 
REMARK   11  A    between atoms: C10_19  and  O2_20 
REMARK   12  A    between atoms: O2_20  and  C11_21 
REMARK   13  A    between atoms: C12_22  and  O3_23 
REMARK   14  A    between atoms: C13_25  and  O4_26 
REMARK   15  A    between atoms: C14_28  and  O5_29 
REMARK   16  A    between atoms: C15_31  and  O6_32 
REMARK   17  A    between atoms: C16_34  and  O7_35 
REMARK   18  A    between atoms: C17_37  and  N4_38 
REMARK   19  A    between atoms: C19_44  and  N5_45 
ROOT
HETATM    1  C9  UNL     1      42.763   1.943   5.558  1.00  0.00     0.178 C 
HETATM    2  O1  UNL     1      43.929   1.251   5.239  1.00  0.00    -0.349 OA
HETATM    3  C10 UNL     1      43.966   0.667   4.009  1.00  0.00     0.294 C 
HETATM    4  C17 UNL     1      43.045  -0.560   3.945  1.00  0.00     0.274 C 
HETATM    5  C18 UNL     1      42.880  -0.992   5.402  1.00  0.00     0.238 C 
HETATM    6  F1  UNL     1      44.069  -0.924   6.090  1.00  0.00    -0.245 F 
HETATM    7  C19 UNL     1      41.745  -0.327   6.076  1.00  0.00     0.255 C 
HETATM    8  C20 UNL     1      41.804   1.124   6.328  1.00  0.00     0.234 C 
HETATM    9  F2  UNL     1      40.490   1.576   6.056  1.00  0.00    -0.244 F 
ENDROOT
BRANCH   3  10
HETATM   10  O2  UNL     1      43.817   1.497   2.928  1.00  0.00    -0.348 OA
BRANCH  10  11
HETATM   11  C11 UNL     1      45.002   1.720   2.249  1.00  0.00     0.187 C 
HETATM   12  C12 UNL     1      45.106   3.116   1.673  1.00  0.00     0.181 C 
HETATM   13  C13 UNL     1      46.600   3.350   1.417  1.00  0.00     0.180 C 
HETATM   14  C14 UNL     1      47.223   2.176   0.732  1.00  0.00     0.180 C 
HETATM   15  C15 UNL     1      46.131   1.341   0.051  1.00  0.00     0.180 C 
HETATM   16  C16 UNL     1      45.254   0.725   1.147  1.00  0.00     0.181 C 
BRANCH  12  17
HETATM   17  O3  UNL     1      44.726   3.995   2.701  1.00  0.00    -0.390 OA
ATOM     18  H3  UNL     1      45.522   4.216   3.171  1.00  0.00     0.210 HD
ENDBRANCH  12  17
BRANCH  13  19
HETATM   19  O4  UNL     1      46.829   4.502   0.699  1.00  0.00    -0.390 OA
ATOM     20  H4  UNL     1      47.068   4.319  -0.203  1.00  0.00     0.210 HD
ENDBRANCH  13  19
BRANCH  14  21
HETATM   21  O5  UNL     1      47.897   1.331   1.597  1.00  0.00    -0.390 OA
ATOM     22  H5  UNL     1      48.832   1.493   1.628  1.00  0.00     0.210 HD
ENDBRANCH  14  21
BRANCH  15  23
HETATM   23  O6  UNL     1      46.795   0.294  -0.592  1.00  0.00    -0.390 OA
ATOM     24  H6  UNL     1      46.706   0.461  -1.523  1.00  0.00     0.210 HD
ENDBRANCH  15  23
BRANCH  16  25
HETATM   25  O7  UNL     1      44.068   0.323   0.525  1.00  0.00    -0.390 OA
ATOM     26  H7  UNL     1      43.569   1.064   0.201  1.00  0.00     0.210 HD
ENDBRANCH  16  25
ENDBRANCH  10  11
ENDBRANCH   3  10
BRANCH   4  27
HETATM   27  N4  UNL     1      43.656  -1.602   3.179  1.00  0.00    -0.068 N 
ATOM     28  H43 UNL     1      43.163  -1.768   2.302  1.00  0.00     0.275 HD
ATOM     29  H42 UNL     1      44.555  -1.312   2.795  1.00  0.00     0.275 HD
ATOM     30  H41 UNL     1      43.737  -2.452   3.737  1.00  0.00     0.275 HD
ENDBRANCH   4  27
BRANCH   1  31
HETATM   31  C8  UNL     1      43.213   3.176   6.264  1.00  0.00     0.155 C 
BRANCH  31  32
HETATM   32  N3  UNL     1      42.471   3.664   7.361  1.00  0.00    -0.384 N 
ATOM     33  H3  UNL     1      42.749   3.308   8.275  1.00  0.00     0.160 HD
BRANCH  32  34
HETATM   34  C7  UNL     1      41.393   4.581   7.361  1.00  0.00     0.171 C 
HETATM   35  N2  UNL     1      40.356   4.429   8.066  1.00  0.00    -0.386 N 
ATOM     36  H2  UNL     1      39.650   5.160   7.977  1.00  0.00     0.160 HD
BRANCH  35  37
HETATM   37  C6  UNL     1      40.039   3.370   8.970  1.00  0.00     0.120 C 
BRANCH  37  38
HETATM   38  C5  UNL     1      38.650   2.811   8.748  1.00  0.00     0.020 C 
BRANCH  38  39
HETATM   39  C4  UNL     1      37.865   3.716   7.820  1.00  0.00     0.002 C 
BRANCH  39  40
HETATM   40  C3  UNL     1      37.395   3.026   6.577  1.00  0.00     0.002 C 
BRANCH  40  41
HETATM   41  C2  UNL     1      36.330   2.032   6.909  1.00  0.00     0.027 C 
BRANCH  41  42
HETATM   42  C1  UNL     1      35.271   1.940   5.828  1.00  0.00     0.229 C 
BRANCH  42  43
HETATM   43  N1  UNL     1      34.084   2.678   6.173  1.00  0.00    -0.079 N 
ATOM     44  H13 UNL     1      34.315   3.542   6.663  1.00  0.00     0.274 HD
ATOM     45  H12 UNL     1      33.642   3.075   5.344  1.00  0.00     0.274 HD
ATOM     46  H11 UNL     1      33.427   2.113   6.709  1.00  0.00     0.274 HD
ENDBRANCH  42  43
ENDBRANCH  41  42
ENDBRANCH  40  41
ENDBRANCH  39  40
ENDBRANCH  38  39
ENDBRANCH  37  38
ENDBRANCH  35  37
ENDBRANCH  32  34
ENDBRANCH  31  32
ENDBRANCH   1  31
BRANCH   7  47
HETATM   47  N5  UNL     1      41.591  -1.004   7.384  1.00  0.00    -0.069 N 
ATOM     48  H53 UNL     1      40.750  -0.726   7.890  1.00  0.00     0.275 HD
ATOM     49  H52 UNL     1      41.367  -1.996   7.305  1.00  0.00     0.275 HD
ATOM     50  H51 UNL     1      42.452  -0.823   7.900  1.00  0.00     0.275 HD
ENDBRANCH   7  47
TORSDOF 19
ENDMDL
MODEL 3
REMARK VINA RESULT: -7.544929080      1.202      1.710
REMARK  19 active torsions:
REMARK  status: ('A' for Active; 'I' for Inactive)
REMARK    1  A    between atoms: N1_1  and  C1_5 
REMARK    2  A    between atoms: C1_5  and  C2_6 
REMARK    3  A    between atoms: C2_6  and  C3_7 
REMARK    4  A    between atoms: C3_7  and  C4_8 
REMARK    5  A    between atoms: C4_8  and  C5_9 
REMARK    6  A    between atoms: C5_9  and  C6_10 
REMARK    7  A    between atoms: C6_10  and  N2_11 
REMARK    8  A    between atoms: C7_13  and  N3_14 
REMARK    9  A    between atoms: N3_14  and  C8_16 
REMARK   10  A    between atoms: C8_16  and  C9_17 
REMARK   11  A    between atoms: C10_19  and  O2_20 
REMARK   12  A    between atoms: O2_20  and  C11_21 
REMARK   13  A    between atoms: C12_22  and  O3_23 
REMARK   14  A    between atoms: C13_25  and  O4_26 
REMARK   15  A    between atoms: C14_28  and  O5_29 
REMARK   16  A    between atoms: C15_31  and  O6_32 
REMARK   17  A    between atoms: C16_34  and  O7_35 
REMARK   18  A    between atoms: C17_37  and  N4_38 
REMARK   19  A    between atoms: C19_44  and  N5_45 
ROOT
HETATM    1  C9  UNL     1      44.267   1.871   4.760  1.00  0.00     0.178 C 
HETATM    2  O1  UNL     1      42.957   1.474   4.504  1.00  0.00    -0.349 OA
HETATM    3  C10 UNL     1      42.280   0.918   5.547  1.00  0.00     0.294 C 
HETATM    4  C17 UNL     1      42.801  -0.492   5.863  1.00  0.00     0.274 C 
HETATM    5  C18 UNL     1      43.469  -0.953   4.567  1.00  0.00     0.238 C 
HETATM    6  F1  UNL     1      42.725  -0.608   3.462  1.00  0.00    -0.245 F 
HETATM    7  C19 UNL     1      44.895  -0.576   4.485  1.00  0.00     0.255 C 
HETATM    8  C20 UNL     1      45.261   0.848   4.375  1.00  0.00     0.234 C 
HETATM    9  F2  UNL     1      46.401   0.978   5.205  1.00  0.00    -0.244 F 
ENDROOT
BRANCH   3  10
HETATM   10  O2  UNL     1      42.134   1.691   6.670  1.00  0.00    -0.348 OA
BRANCH  10  11
HETATM   11  C11 UNL     1      40.895   2.304   6.748  1.00  0.00     0.187 C 
HETATM   12  C12 UNL     1      40.929   3.625   7.485  1.00  0.00     0.181 C 
HETATM   13  C13 UNL     1      39.659   4.372   7.058  1.00  0.00     0.180 C 
HETATM   14  C14 UNL     1      38.461   3.479   7.111  1.00  0.00     0.180 C 
HETATM   15  C15 UNL     1      38.751   2.287   8.032  1.00  0.00     0.180 C 
HETATM   16  C16 UNL     1      39.837   1.432   7.369  1.00  0.00     0.181 C 
BRANCH  12  17
HETATM   17  O3  UNL     1      42.019   4.341   6.961  1.00  0.00    -0.390 OA
ATOM     18  H3  UNL     1      41.898   4.358   6.019  1.00  0.00     0.210 HD
ENDBRANCH  12  17
BRANCH  13  19
HETATM   19  O4  UNL     1      39.447   5.506   7.809  1.00  0.00    -0.390 OA
ATOM     20  H4  UNL     1      39.051   6.203   7.300  1.00  0.00     0.210 HD
ENDBRANCH  13  19
BRANCH  14  21
HETATM   21  O5  UNL     1      38.108   2.960   5.877  1.00  0.00    -0.390 OA
ATOM     22  H5  UNL     1      37.259   3.258   5.573  1.00  0.00     0.210 HD
ENDBRANCH  14  21
BRANCH  15  23
HETATM   23  O6  UNL     1      37.578   1.528   8.057  1.00  0.00    -0.390 OA
ATOM     24  H6  UNL     1      37.487   1.219   8.951  1.00  0.00     0.210 HD
ENDBRANCH  15  23
BRANCH  16  25
HETATM   25  O7  UNL     1      40.361   0.611   8.373  1.00  0.00    -0.390 OA
ATOM     26  H7  UNL     1      39.873  -0.200   8.459  1.00  0.00     0.210 HD
ENDBRANCH  16  25
ENDBRANCH  10  11
ENDBRANCH   3  10
BRANCH   4  27
HETATM   27  N4  UNL     1      41.717  -1.359   6.205  1.00  0.00    -0.068 N 
ATOM     28  H43 UNL     1      41.777  -2.252   5.717  1.00  0.00     0.275 HD
ATOM     29  H42 UNL     1      41.793  -1.703   7.161  1.00  0.00     0.275 HD
ATOM     30  H41 UNL     1      40.824  -0.893   6.038  1.00  0.00     0.275 HD
ENDBRANCH   4  27
BRANCH   1  31
HETATM   31  C8  UNL     1      44.432   3.175   4.056  1.00  0.00     0.155 C 
BRANCH  31  32
HETATM   32  N3  UNL     1      45.050   3.211   2.788  1.00  0.00    -0.384 N 
ATOM     33  H3  UNL     1      45.738   2.480   2.611  1.00  0.00     0.160 HD
BRANCH  32  34
HETATM   34  C7  UNL     1      44.841   4.126   1.728  1.00  0.00     0.171 C 
HETATM   35  N2  UNL     1      44.104   3.875   0.734  1.00  0.00    -0.386 N 
ATOM     36  H2  UNL     1      44.034   4.617   0.037  1.00  0.00     0.160 HD
BRANCH  35  37
HETATM   37  C6  UNL     1      43.355   2.692   0.453  1.00  0.00     0.120 C 
BRANCH  37  38
HETATM   38  C5  UNL     1      44.121   1.707  -0.405  1.00  0.00     0.020 C 
BRANCH  38  39
HETATM   39  C4  UNL     1      44.564   0.523   0.430  1.00  0.00     0.002 C 
BRANCH  39  40
HETATM   40  C3  UNL     1      43.969  -0.776  -0.021  1.00  0.00     0.002 C 
BRANCH  40  41
HETATM   41  C2  UNL     1      44.231  -0.985  -1.478  1.00  0.00     0.027 C 
BRANCH  41  42
HETATM   42  C1  UNL     1      45.179  -2.140  -1.732  1.00  0.00     0.229 C 
BRANCH  42  43
HETATM   43  N1  UNL     1      46.556  -1.721  -1.709  1.00  0.00    -0.079 N 
ATOM     44  H13 UNL     1      47.186  -2.513  -1.841  1.00  0.00     0.274 HD
ATOM     45  H12 UNL     1      46.793  -1.185  -2.544  1.00  0.00     0.274 HD
ATOM     46  H11 UNL     1      46.784  -1.205  -0.860  1.00  0.00     0.274 HD
ENDBRANCH  42  43
ENDBRANCH  41  42
ENDBRANCH  40  41
ENDBRANCH  39  40
ENDBRANCH  38  39
ENDBRANCH  37  38
ENDBRANCH  35  37
ENDBRANCH  32  34
ENDBRANCH  31  32
ENDBRANCH   1  31
BRANCH   7  47
HETATM   47  N5  UNL     1      45.437  -1.272   3.296  1.00  0.00    -0.069 N 
ATOM     48  H53 UNL     1      44.770  -1.345   2.528  1.00  0.00     0.275 HD
ATOM     49  H52 UNL     1      46.143  -0.732   2.796  1.00  0.00     0.275 HD
ATOM     50  H51 UNL     1      45.777  -2.175   3.627  1.00  0.00     0.275 HD
ENDBRANCH   7  47
TORSDOF 19
ENDMDL
MODEL 4
REMARK VINA RESULT: -7.509538687      3.255      7.758
REMARK  19 active torsions:
REMARK  status: ('A' for Active; 'I' for Inactive)
REMARK    1  A    between atoms: N1_1  and  C1_5 
REMARK    2  A    between atoms: C1_5  and  C2_6 
REMARK    3  A    between atoms: C2_6  and  C3_7 
REMARK    4  A    between atoms: C3_7  and  C4_8 
REMARK    5  A    between atoms: C4_8  and  C5_9 
REMARK    6  A    between atoms: C5_9  and  C6_10 
REMARK    7  A    between atoms: C6_10  and  N2_11 
REMARK    8  A    between atoms: C7_13  and  N3_14 
REMARK    9  A    between atoms: N3_14  and  C8_16 
REMARK   10  A    between atoms: C8_16  and  C9_17 
REMARK   11  A    between atoms: C10_19  and  O2_20 
REMARK   12  A    between atoms: O2_20  and  C11_21 
REMARK   13  A    between atoms: C12_22  and  O3_23 
REMARK   14  A    between atoms: C13_25  and  O4_26 
REMARK   15  A    between atoms: C14_28  and  O5_29 
REMARK   16  A    between atoms: C15_31  and  O6_32 
REMARK   17  A    between atoms: C16_34  and  O7_35 
REMARK   18  A    between atoms: C17_37  and  N4_38 
REMARK   19  A    between atoms: C19_44  and  N5_45 
ROOT
HETATM    1  C9  UNL     1      42.818   1.847   5.495  1.00  0.00     0.178 C 
HETATM    2  O1  UNL     1      43.984   1.164   5.158  1.00  0.00    -0.349 OA
HETATM    3  C10 UNL     1      44.009   0.584   3.925  1.00  0.00     0.294 C 
HETATM    4  C17 UNL     1      43.096  -0.649   3.869  1.00  0.00     0.274 C 
HETATM    5  C18 UNL     1      42.952  -1.087   5.327  1.00  0.00     0.238 C 
HETATM    6  F1  UNL     1      44.150  -1.013   5.999  1.00  0.00    -0.245 F 
HETATM    7  C19 UNL     1      41.823  -0.432   6.018  1.00  0.00     0.255 C 
HETATM    8  C20 UNL     1      41.874   1.019   6.274  1.00  0.00     0.234 C 
HETATM    9  F2  UNL     1      40.554   1.463   6.021  1.00  0.00    -0.244 F 
ENDROOT
BRANCH   3  10
HETATM   10  O2  UNL     1      43.840   1.417   2.849  1.00  0.00    -0.348 OA
BRANCH  10  11
HETATM   11  C11 UNL     1      45.022   1.681   2.178  1.00  0.00     0.187 C 
HETATM   12  C12 UNL     1      45.090   3.088   1.623  1.00  0.00     0.181 C 
HETATM   13  C13 UNL     1      46.579   3.365   1.377  1.00  0.00     0.180 C 
HETATM   14  C14 UNL     1      47.235   2.218   0.677  1.00  0.00     0.180 C 
HETATM   15  C15 UNL     1      46.168   1.365  -0.021  1.00  0.00     0.180 C 
HETATM   16  C16 UNL     1      45.304   0.709   1.063  1.00  0.00     0.181 C 
BRANCH  12  17
HETATM   17  O3  UNL     1      44.684   3.941   2.663  1.00  0.00    -0.390 OA
ATOM     18  H3  UNL     1      44.215   4.659   2.251  1.00  0.00     0.210 HD
ENDBRANCH  12  17
BRANCH  13  19
HETATM   19  O4  UNL     1      46.780   4.532   0.676  1.00  0.00    -0.390 OA
ATOM     20  H4  UNL     1      47.639   4.903   0.838  1.00  0.00     0.210 HD
ENDBRANCH  13  19
BRANCH  14  21
HETATM   21  O5  UNL     1      47.928   1.378   1.533  1.00  0.00    -0.390 OA
ATOM     22  H5  UNL     1      47.713   0.460   1.414  1.00  0.00     0.210 HD
ENDBRANCH  14  21
BRANCH  15  23
HETATM   23  O6  UNL     1      46.862   0.344  -0.676  1.00  0.00    -0.390 OA
ATOM     24  H6  UNL     1      47.284  -0.164   0.007  1.00  0.00     0.210 HD
ENDBRANCH  15  23
BRANCH  16  25
HETATM   25  O7  UNL     1      44.131   0.285   0.431  1.00  0.00    -0.390 OA
ATOM     26  H7  UNL     1      43.632   1.015   0.082  1.00  0.00     0.210 HD
ENDBRANCH  16  25
ENDBRANCH  10  11
ENDBRANCH   3  10
BRANCH   4  27
HETATM   27  N4  UNL     1      43.704  -1.684   3.092  1.00  0.00    -0.068 N 
ATOM     28  H43 UNL     1      44.418  -2.185   3.619  1.00  0.00     0.275 HD
ATOM     29  H42 UNL     1      43.064  -2.461   2.928  1.00  0.00     0.275 HD
ATOM     30  H41 UNL     1      44.072  -1.303   2.220  1.00  0.00     0.275 HD
ENDBRANCH   4  27
BRANCH   1  31
HETATM   31  C8  UNL     1      43.269   3.081   6.198  1.00  0.00     0.155 C 
BRANCH  31  32
HETATM   32  N3  UNL     1      42.548   3.551   7.316  1.00  0.00    -0.384 N 
ATOM     33  H3  UNL     1      42.296   2.845   8.008  1.00  0.00     0.160 HD
BRANCH  32  34
HETATM   34  C7  UNL     1      42.127   4.871   7.606  1.00  0.00     0.171 C 
HETATM   35  N2  UNL     1      41.035   5.354   7.195  1.00  0.00    -0.386 N 
ATOM     36  H2  UNL     1      40.846   6.318   7.472  1.00  0.00     0.160 HD
BRANCH  35  37
HETATM   37  C6  UNL     1      40.029   4.733   6.395  1.00  0.00     0.120 C 
BRANCH  37  38
HETATM   38  C5  UNL     1      38.673   4.722   7.068  1.00  0.00     0.020 C 
BRANCH  38  39
HETATM   39  C4  UNL     1      37.958   3.417   6.778  1.00  0.00     0.002 C 
BRANCH  39  40
HETATM   40  C3  UNL     1      37.906   2.495   7.957  1.00  0.00     0.002 C 
BRANCH  40  41
HETATM   41  C2  UNL     1      38.561   3.132   9.140  1.00  0.00     0.027 C 
BRANCH  41  42
HETATM   42  C1  UNL     1      39.866   2.453   9.508  1.00  0.00     0.229 C 
BRANCH  42  43
HETATM   43  N1  UNL     1      39.811   1.031   9.299  1.00  0.00    -0.079 N 
ATOM     44  H13 UNL     1      39.328   0.562  10.065  1.00  0.00     0.274 HD
ATOM     45  H12 UNL     1      39.174   0.793   8.538  1.00  0.00     0.274 HD
ATOM     46  H11 UNL     1      40.736   0.632   9.145  1.00  0.00     0.274 HD
ENDBRANCH  42  43
ENDBRANCH  41  42
ENDBRANCH  40  41
ENDBRANCH  39  40
ENDBRANCH  38  39
ENDBRANCH  37  38
ENDBRANCH  35  37
ENDBRANCH  32  34
ENDBRANCH  31  32
ENDBRANCH   1  31
BRANCH   7  47
HETATM   47  N5  UNL     1      41.690  -1.114   7.326  1.00  0.00    -0.069 N 
ATOM     48  H53 UNL     1      42.581  -1.416   7.720  1.00  0.00     0.275 HD
ATOM     49  H52 UNL     1      41.424  -0.488   8.086  1.00  0.00     0.275 HD
ATOM     50  H51 UNL     1      41.031  -1.878   7.181  1.00  0.00     0.275 HD
ENDBRANCH   7  47
TORSDOF 19
ENDMDL
MODEL 5
REMARK VINA RESULT: -7.464610480      3.239      7.720
REMARK  19 active torsions:
REMARK  status: ('A' for Active; 'I' for Inactive)
REMARK    1  A    between atoms: N1_1  and  C1_5 
REMARK    2  A    between atoms: C1_5  and  C2_6 
REMARK    3  A    between atoms: C2_6  and  C3_7 
REMARK    4  A    between atoms: C3_7  and  C4_8 
REMARK    5  A    between atoms: C4_8  and  C5_9 
REMARK    6  A    between atoms: C5_9  and  C6_10 
REMARK    7  A    between atoms: C6_10  and  N2_11 
REMARK    8  A    between atoms: C7_13  and  N3_14 
REMARK    9  A    between atoms: N3_14  and  C8_16 
REMARK   10  A    between atoms: C8_16  and  C9_17 
REMARK   11  A    between atoms: C10_19  and  O2_20 
REMARK   12  A    between atoms: O2_20  and  C11_21 
REMARK   13  A    between atoms: C12_22  and  O3_23 
REMARK   14  A    between atoms: C13_25  and  O4_26 
REMARK   15  A    between atoms: C14_28  and  O5_29 
REMARK   16  A    between atoms: C15_31  and  O6_32 
REMARK   17  A    between atoms: C16_34  and  O7_35 
REMARK   18  A    between atoms: C17_37  and  N4_38 
REMARK   19  A    between atoms: C19_44  and  N5_45 
ROOT
HETATM    1  C9  UNL     1      42.839   1.609   5.278  1.00  0.00     0.178 C 
HETATM    2  O1  UNL     1      44.084   1.129   4.881  1.00  0.00    -0.349 OA
HETATM    3  C10 UNL     1      44.153   0.593   3.631  1.00  0.00     0.294 C 
HETATM    4  C17 UNL     1      43.444  -0.767   3.565  1.00  0.00     0.274 C 
HETATM    5  C18 UNL     1      43.426  -1.260   5.012  1.00  0.00     0.238 C 
HETATM    6  F1  UNL     1      44.622  -1.016   5.646  1.00  0.00    -0.245 F 
HETATM    7  C19 UNL     1      42.234  -0.811   5.761  1.00  0.00     0.255 C 
HETATM    8  C20 UNL     1      42.067   0.623   6.061  1.00  0.00     0.234 C 
HETATM    9  F2  UNL     1      40.685   0.859   5.866  1.00  0.00    -0.244 F 
ENDROOT
BRANCH   3  10
HETATM   10  O2  UNL     1      43.815   1.417   2.588  1.00  0.00    -0.348 OA
BRANCH  10  11
HETATM   11  C11 UNL     1      44.914   1.869   1.877  1.00  0.00     0.187 C 
HETATM   12  C12 UNL     1      44.969   3.378   1.762  1.00  0.00     0.181 C 
HETATM   13  C13 UNL     1      46.425   3.715   1.417  1.00  0.00     0.180 C 
HETATM   14  C14 UNL     1      46.943   2.830   0.328  1.00  0.00     0.180 C 
HETATM   15  C15 UNL     1      45.765   2.227  -0.446  1.00  0.00     0.180 C 
HETATM   16  C16 UNL     1      45.017   1.277   0.497  1.00  0.00     0.181 C 
BRANCH  12  17
HETATM   17  O3  UNL     1      44.730   3.880   3.052  1.00  0.00    -0.390 OA
ATOM     18  H3  UNL     1      45.427   3.544   3.603  1.00  0.00     0.210 HD
ENDBRANCH  12  17
BRANCH  13  19
HETATM   19  O4  UNL     1      46.584   5.039   1.075  1.00  0.00    -0.390 OA
ATOM     20  H4  UNL     1      47.434   5.375   1.333  1.00  0.00     0.210 HD
ENDBRANCH  13  19
BRANCH  14  21
HETATM   21  O5  UNL     1      47.703   1.772   0.797  1.00  0.00    -0.390 OA
ATOM     22  H5  UNL     1      47.556   0.964   0.321  1.00  0.00     0.210 HD
ENDBRANCH  14  21
BRANCH  15  23
HETATM   23  O6  UNL     1      46.330   1.450  -1.460  1.00  0.00    -0.390 OA
ATOM     24  H6  UNL     1      46.209   1.942  -2.263  1.00  0.00     0.210 HD
ENDBRANCH  15  23
BRANCH  16  25
HETATM   25  O7  UNL     1      43.758   1.063  -0.074  1.00  0.00    -0.390 OA
ATOM     26  H7  UNL     1      43.759   0.322  -0.668  1.00  0.00     0.210 HD
ENDBRANCH  16  25
ENDBRANCH  10  11
ENDBRANCH   3  10
BRANCH   4  27
HETATM   27  N4  UNL     1      44.177  -1.671   2.735  1.00  0.00    -0.068 N 
ATOM     28  H43 UNL     1      45.184  -1.571   2.861  1.00  0.00     0.275 HD
ATOM     29  H42 UNL     1      44.082  -2.637   3.049  1.00  0.00     0.275 HD
ATOM     30  H41 UNL     1      43.903  -1.560   1.759  1.00  0.00     0.275 HD
ENDBRANCH   4  27
BRANCH   1  31
HETATM   31  C8  UNL     1      43.116   2.880   6.006  1.00  0.00     0.155 C 
BRANCH  31  32
HETATM   32  N3  UNL     1      42.085   3.506   6.738  1.00  0.00    -0.384 N 
ATOM     33  H3  UNL     1      41.205   3.635   6.239  1.00  0.00     0.160 HD
BRANCH  32  34
HETATM   34  C7  UNL     1      42.109   3.978   8.072  1.00  0.00     0.171 C 
HETATM   35  N2  UNL     1      41.437   3.452   9.003  1.00  0.00    -0.386 N 
ATOM     36  H2  UNL     1      41.540   3.885   9.921  1.00  0.00     0.160 HD
BRANCH  35  37
HETATM   37  C6  UNL     1      40.552   2.334   8.944  1.00  0.00     0.120 C 
BRANCH  37  38
HETATM   38  C5  UNL     1      39.094   2.742   8.960  1.00  0.00     0.020 C 
BRANCH  38  39
HETATM   39  C4  UNL     1      38.412   2.291   7.684  1.00  0.00     0.002 C 
BRANCH  39  40
HETATM   40  C3  UNL     1      38.424   3.330   6.606  1.00  0.00     0.002 C 
BRANCH  40  41
HETATM   41  C2  UNL     1      38.592   4.691   7.202  1.00  0.00     0.027 C 
BRANCH  41  42
HETATM   42  C1  UNL     1      39.375   5.622   6.298  1.00  0.00     0.229 C 
BRANCH  42  43
HETATM   43  N1  UNL     1      39.990   6.695   7.033  1.00  0.00    -0.079 N 
ATOM     44  H13 UNL     1      39.751   6.650   8.023  1.00  0.00     0.274 HD
ATOM     45  H12 UNL     1      40.999   6.564   7.104  1.00  0.00     0.274 HD
ATOM     46  H11 UNL     1      39.763   7.607   6.638  1.00  0.00     0.274 HD
ENDBRANCH  42  43
ENDBRANCH  41  42
ENDBRANCH  40  41
ENDBRANCH  39  40
ENDBRANCH  38  39
ENDBRANCH  37  38
ENDBRANCH  35  37
ENDBRANCH  32  34
ENDBRANCH  31  32
ENDBRANCH   1  31
BRANCH   7  47
HETATM   47  N5  UNL     1      42.260  -1.540   7.050  1.00  0.00    -0.069 N 
ATOM     48  H53 UNL     1      41.987  -2.520   6.968  1.00  0.00     0.275 HD
ATOM     49  H52 UNL     1      43.201  -1.702   7.406  1.00  0.00     0.275 HD
ATOM     50  H51 UNL     1      41.671  -1.007   7.688  1.00  0.00     0.275 HD
ENDBRANCH   7  47
TORSDOF 19
ENDMDL
