MODEL 1
REMARK VINA RESULT: -8.184080982      0.000      0.000
REMARK  16 active torsions:
REMARK  status: ('A' for Active; 'I' for Inactive)
REMARK       I    between atoms: C1_4  and  N3_6 
REMARK    1  A    between atoms: N3_6  and  C2_8 
REMARK    2  A    between atoms: C2_8  and  C3_9 
REMARK    3  A    between atoms: C3_9  and  C4_10 
REMARK    4  A    between atoms: C4_10  and  S1_11 
REMARK    5  A    between atoms: S1_11  and  C5_12 
REMARK    6  A    between atoms: C5_12  and  C6_13 
REMARK    7  A    between atoms: C7_17  and  C8_18 
REMARK    8  A    between atoms: C8_18  and  N5_19 
REMARK    9  A    between atoms: N5_19  and  C9_21 
REMARK   10  A    between atoms: N6_22  and  O1_24 
REMARK   11  A    between atoms: C10_27  and  O3_28 
REMARK   12  A    between atoms: O3_28  and  C11_29 
REMARK   13  A    between atoms: C12_31  and  C13_32 
REMARK   14  A    between atoms: C13_32  and  O5_33 
REMARK   15  A    between atoms: C14_35  and  N7_36 
REMARK   16  A    between atoms: C16_41  and  N8_42 
ROOT
HETATM    1  C6  UNL     1      43.301  -0.848   4.229  1.00  0.00     0.275 C 
HETATM    2  N4  UNL     1      43.756   0.106   5.256  1.00  0.00    -0.036 N 
ATOM      3  H41 UNL     1      44.620  -0.212   5.696  1.00  0.00     0.281 HD
ATOM      4  H42 UNL     1      43.143   0.090   6.071  1.00  0.00     0.281 HD
HETATM    5  C7  UNL     1      43.897   1.426   4.746  1.00  0.00     0.342 C 
HETATM    6  O2  UNL     1      43.924   1.452   3.382  1.00  0.00    -0.321 OA
HETATM    7  C10 UNL     1      44.798   0.513   2.800  1.00  0.00     0.340 C 
HETATM    8  C17 UNL     1      44.300  -0.902   3.126  1.00  0.00     0.321 C 
HETATM    9  F1  UNL     1      43.640  -1.326   1.997  1.00  0.00    -0.198 F 
HETATM   10  F2  UNL     1      45.355  -1.734   3.392  1.00  0.00    -0.198 F 
ENDROOT
BRANCH   7  11
HETATM   11  O3  UNL     1      44.869   0.669   1.451  1.00  0.00    -0.323 OA
BRANCH  11  12
HETATM   12  C11 UNL     1      46.144   0.791   0.913  1.00  0.00     0.294 C 
HETATM   13  O4  UNL     1      46.532   2.095   1.260  1.00  0.00    -0.350 OA
HETATM   14  C12 UNL     1      45.717   3.066   0.721  1.00  0.00     0.178 C 
HETATM   15  C14 UNL     1      45.531   2.913  -0.772  1.00  0.00     0.216 C 
HETATM   16  C15 UNL     1      44.999   1.509  -1.096  1.00  0.00     0.073 C 
HETATM   17  C16 UNL     1      46.097   0.581  -0.548  1.00  0.00     0.240 C 
BRANCH  14  18
HETATM   18  C13 UNL     1      46.146   4.459   1.117  1.00  0.00     0.198 C 
BRANCH  18  19
HETATM   19  O5  UNL     1      47.244   4.810   0.343  1.00  0.00    -0.398 OA
ATOM     20  H5  UNL     1      47.107   5.693   0.018  1.00  0.00     0.209 HD
ENDBRANCH  18  19
ENDBRANCH  14  18
BRANCH  15  21
HETATM   21  N7  UNL     1      44.717   3.926  -1.365  1.00  0.00    -0.072 N 
ATOM     22  H73 UNL     1      44.293   4.511  -0.646  1.00  0.00     0.274 HD
ATOM     23  H72 UNL     1      45.297   4.622  -1.834  1.00  0.00     0.274 HD
ATOM     24  H71 UNL     1      44.004   3.569  -2.001  1.00  0.00     0.274 HD
ENDBRANCH  15  21
BRANCH  17  25
HETATM   25  N8  UNL     1      45.892  -0.764  -0.961  1.00  0.00    -0.070 N 
ATOM     26  H83 UNL     1      46.712  -1.329  -0.739  1.00  0.00     0.274 HD
ATOM     27  H82 UNL     1      45.199  -1.213  -0.362  1.00  0.00     0.274 HD
ATOM     28  H81 UNL     1      45.638  -0.884  -1.941  1.00  0.00     0.274 HD
ENDBRANCH  17  25
ENDBRANCH  11  12
ENDBRANCH   7  11
BRANCH   5  29
HETATM   29  C8  UNL     1      42.666   2.235   5.178  1.00  0.00     0.181 C 
BRANCH  29  30
HETATM   30  N5  UNL     1      42.763   2.622   6.563  1.00  0.00    -0.381 N 
ATOM     31  H5  UNL     1      42.630   1.933   7.303  1.00  0.00     0.160 HD
BRANCH  30  32
HETATM   32  C9  UNL     1      43.043   3.966   6.880  1.00  0.00     0.199 C 
HETATM   33  N6  UNL     1      42.210   4.715   7.556  1.00  0.00    -0.265 N 
ATOM     34  H6  UNL     1      42.450   5.684   7.767  1.00  0.00     0.194 HD
BRANCH  33  35
HETATM   35  O1  UNL     1      41.001   4.190   7.987  1.00  0.00    -0.289 OA
ATOM     36  H1  UNL     1      40.617   4.491   8.802  1.00  0.00     0.244 HD
ENDBRANCH  33  35
ENDBRANCH  30  32
ENDBRANCH  29  30
ENDBRANCH   5  29
BRANCH   1  37
HETATM   37  C5  UNL     1      42.887  -2.117   4.847  1.00  0.00     0.113 C 
BRANCH  37  38
HETATM   38  S1  UNL     1      42.003  -2.199   6.346  1.00  0.00    -0.167 SA
BRANCH  38  39
HETATM   39  C4  UNL     1      40.945  -0.851   6.793  1.00  0.00     0.075 C 
BRANCH  39  40
HETATM   40  C3  UNL     1      41.476  -0.252   8.102  1.00  0.00     0.030 C 
BRANCH  40  41
HETATM   41  C2  UNL     1      40.519   0.719   8.716  1.00  0.00     0.123 C 
BRANCH  41  42
HETATM   42  N3  UNL     1      39.713   1.387   7.718  1.00  0.00    -0.365 N 
HETATM   43  C1  UNL     1      38.406   1.851   8.034  1.00  0.00     0.181 C 
HETATM   44  N1  UNL     1      38.289   2.838   8.875  1.00  0.00    -0.374 N 
HETATM   45  N2  UNL     1      37.282   1.249   7.446  1.00  0.00    -0.064 NA
ATOM     46  H12 UNL     1      37.352   3.171   9.101  1.00  0.00     0.158 HD
ATOM     47  H11 UNL     1      39.106   3.275   9.302  1.00  0.00     0.158 HD
ATOM     48  H3  UNL     1      40.086   1.528   6.779  1.00  0.00     0.162 HD
ENDBRANCH  41  42
ENDBRANCH  40  41
ENDBRANCH  39  40
ENDBRANCH  38  39
ENDBRANCH  37  38
ENDBRANCH   1  37
TORSDOF 16
ENDMDL
MODEL 2
REMARK VINA RESULT: -8.102547124      2.210      3.020
REMARK  16 active torsions:
REMARK  status: ('A' for Active; 'I' for Inactive)
REMARK       I    between atoms: C1_4  and  N3_6 
REMARK    1  A    between atoms: N3_6  and  C2_8 
REMARK    2  A    between atoms: C2_8  and  C3_9 
REMARK    3  A    between atoms: C3_9  and  C4_10 
REMARK    4  A    between atoms: C4_10  and  S1_11 
REMARK    5  A    between atoms: S1_11  and  C5_12 
REMARK    6  A    between atoms: C5_12  and  C6_13 
REMARK    7  A    between atoms: C7_17  and  C8_18 
REMARK    8  A    between atoms: C8_18  and  N5_19 
REMARK    9  A    between atoms: N5_19  and  C9_21 
REMARK   10  A    between atoms: N6_22  and  O1_24 
REMARK   11  A    between atoms: C10_27  and  O3_28 
REMARK   12  A    between atoms: O3_28  and  C11_29 
REMARK   13  A    between atoms: C12_31  and  C13_32 
REMARK   14  A    between atoms: C13_32  and  O5_33 
REMARK   15  A    between atoms: C14_35  and  N7_36 
REMARK   16  A    between atoms: C16_41  and  N8_42 
ROOT
HETATM    1  C6  UNL     1      41.971   1.129   6.461  1.00  0.00     0.275 C 
HETATM    2  N4  UNL     1      42.768   2.042   7.300  1.00  0.00    -0.036 N 
ATOM      3  H41 UNL     1      43.470   1.531   7.834  1.00  0.00     0.281 HD
ATOM      4  H42 UNL     1      42.212   2.411   8.072  1.00  0.00     0.281 HD
HETATM    5  C7  UNL     1      43.360   3.093   6.547  1.00  0.00     0.342 C 
HETATM    6  O2  UNL     1      43.357   2.833   5.207  1.00  0.00    -0.321 OA
HETATM    7  C10 UNL     1      43.817   1.548   4.863  1.00  0.00     0.340 C 
HETATM    8  C17 UNL     1      42.853   0.501   5.439  1.00  0.00     0.321 C 
HETATM    9  F1  UNL     1      42.054   0.123   4.386  1.00  0.00    -0.198 F 
HETATM   10  F2  UNL     1      43.544  -0.582   5.913  1.00  0.00    -0.198 F 
ENDROOT
BRANCH   7  11
HETATM   11  O3  UNL     1      43.903   1.393   3.515  1.00  0.00    -0.323 OA
BRANCH  11  12
HETATM   12  C11 UNL     1      45.177   1.195   2.999  1.00  0.00     0.294 C 
HETATM   13  O4  UNL     1      45.628   2.494   2.710  1.00  0.00    -0.350 OA
HETATM   14  C12 UNL     1      44.853   3.142   1.773  1.00  0.00     0.178 C 
HETATM   15  C14 UNL     1      44.646   2.325   0.516  1.00  0.00     0.216 C 
HETATM   16  C15 UNL     1      44.049   0.955   0.871  1.00  0.00     0.073 C 
HETATM   17  C16 UNL     1      45.108   0.337   1.799  1.00  0.00     0.240 C 
BRANCH  14  18
HETATM   18  C13 UNL     1      45.349   4.539   1.486  1.00  0.00     0.198 C 
BRANCH  18  19
HETATM   19  O5  UNL     1      44.262   5.317   1.111  1.00  0.00    -0.398 OA
ATOM     20  H5  UNL     1      43.752   5.510   1.889  1.00  0.00     0.209 HD
ENDBRANCH  18  19
ENDBRANCH  14  18
BRANCH  15  21
HETATM   21  N7  UNL     1      43.875   2.985  -0.488  1.00  0.00    -0.072 N 
ATOM     22  H73 UNL     1      44.291   3.885  -0.725  1.00  0.00     0.274 HD
ATOM     23  H72 UNL     1      43.972   2.509  -1.385  1.00  0.00     0.274 HD
ATOM     24  H71 UNL     1      42.890   3.098  -0.249  1.00  0.00     0.274 HD
ENDBRANCH  15  21
BRANCH  17  25
HETATM   25  N8  UNL     1      44.837  -1.036   2.052  1.00  0.00    -0.070 N 
ATOM     26  H83 UNL     1      45.635  -1.608   1.775  1.00  0.00     0.274 HD
ATOM     27  H82 UNL     1      44.830  -1.213   3.056  1.00  0.00     0.274 HD
ATOM     28  H81 UNL     1      43.983  -1.395   1.626  1.00  0.00     0.274 HD
ENDBRANCH  17  25
ENDBRANCH  11  12
ENDBRANCH   7  11
BRANCH   5  29
HETATM   29  C8  UNL     1      42.515   4.358   6.752  1.00  0.00     0.181 C 
BRANCH  29  30
HETATM   30  N5  UNL     1      42.589   4.812   8.119  1.00  0.00    -0.381 N 
ATOM     31  H5  UNL     1      41.740   4.927   8.672  1.00  0.00     0.160 HD
BRANCH  30  32
HETATM   32  C9  UNL     1      43.851   5.094   8.679  1.00  0.00     0.199 C 
HETATM   33  N6  UNL     1      44.311   6.314   8.792  1.00  0.00    -0.265 N 
ATOM     34  H6  UNL     1      45.229   6.478   9.204  1.00  0.00     0.194 HD
BRANCH  33  35
HETATM   35  O1  UNL     1      43.547   7.384   8.350  1.00  0.00    -0.289 OA
ATOM     36  H1  UNL     1      43.142   7.969   8.980  1.00  0.00     0.244 HD
ENDBRANCH  33  35
ENDBRANCH  30  32
ENDBRANCH  29  30
ENDBRANCH   5  29
BRANCH   1  37
HETATM   37  C5  UNL     1      41.145   0.245   7.297  1.00  0.00     0.113 C 
BRANCH  37  38
HETATM   38  S1  UNL     1      39.861   0.830   8.318  1.00  0.00    -0.167 SA
BRANCH  38  39
HETATM   39  C4  UNL     1      40.157   2.241   9.344  1.00  0.00     0.075 C 
BRANCH  39  40
HETATM   40  C3  UNL     1      38.899   3.120   9.308  1.00  0.00     0.030 C 
BRANCH  40  41
HETATM   41  C2  UNL     1      37.950   2.716   8.224  1.00  0.00     0.123 C 
BRANCH  41  42
HETATM   42  N3  UNL     1      37.679   3.804   7.311  1.00  0.00    -0.365 N 
HETATM   43  C1  UNL     1      38.728   4.393   6.553  1.00  0.00     0.181 C 
HETATM   44  N1  UNL     1      39.293   3.675   5.624  1.00  0.00    -0.374 N 
HETATM   45  N2  UNL     1      39.131   5.712   6.810  1.00  0.00    -0.064 NA
ATOM     46  H12 UNL     1      40.045   4.098   5.080  1.00  0.00     0.158 HD
ATOM     47  H11 UNL     1      38.999   2.716   5.437  1.00  0.00     0.158 HD
ATOM     48  H3  UNL     1      36.725   4.152   7.210  1.00  0.00     0.162 HD
ENDBRANCH  41  42
ENDBRANCH  40  41
ENDBRANCH  39  40
ENDBRANCH  38  39
ENDBRANCH  37  38
ENDBRANCH   1  37
TORSDOF 16
ENDMDL
MODEL 3
REMARK VINA RESULT: -7.870721897      0.975      1.045
REMARK  16 active torsions:
REMARK  status: ('A' for Active; 'I' for Inactive)
REMARK       I    between atoms: C1_4  and  N3_6 
REMARK    1  A    between atoms: N3_6  and  C2_8 
REMARK    2  A    between atoms: C2_8  and  C3_9 
REMARK    3  A    between atoms: C3_9  and  C4_10 
REMARK    4  A    between atoms: C4_10  and  S1_11 
REMARK    5  A    between atoms: S1_11  and  C5_12 
REMARK    6  A    between atoms: C5_12  and  C6_13 
REMARK    7  A    between atoms: C7_17  and  C8_18 
REMARK    8  A    between atoms: C8_18  and  N5_19 
REMARK    9  A    between atoms: N5_19  and  C9_21 
REMARK   10  A    between atoms: N6_22  and  O1_24 
REMARK   11  A    between atoms: C10_27  and  O3_28 
REMARK   12  A    between atoms: O3_28  and  C11_29 
REMARK   13  A    between atoms: C12_31  and  C13_32 
REMARK   14  A    between atoms: C13_32  and  O5_33 
REMARK   15  A    between atoms: C14_35  and  N7_36 
REMARK   16  A    between atoms: C16_41  and  N8_42 
ROOT
HETATM    1  C6  UNL     1      43.344  -0.842   4.193  1.00  0.00     0.275 C 
HETATM    2  N4  UNL     1      43.709   0.190   5.180  1.00  0.00    -0.036 N 
ATOM      3  H41 UNL     1      44.584  -0.044   5.649  1.00  0.00     0.281 HD
ATOM      4  H42 UNL     1      43.082   0.167   5.985  1.00  0.00     0.281 HD
HETATM    5  C7  UNL     1      43.765   1.492   4.610  1.00  0.00     0.342 C 
HETATM    6  O2  UNL     1      43.817   1.456   3.246  1.00  0.00    -0.321 OA
HETATM    7  C10 UNL     1      44.767   0.556   2.724  1.00  0.00     0.340 C 
HETATM    8  C17 UNL     1      44.365  -0.875   3.110  1.00  0.00     0.321 C 
HETATM    9  F1  UNL     1      43.761  -1.398   1.993  1.00  0.00    -0.198 F 
HETATM   10  F2  UNL     1      45.472  -1.615   3.434  1.00  0.00    -0.198 F 
ENDROOT
BRANCH   7  11
HETATM   11  O3  UNL     1      44.854   0.654   1.371  1.00  0.00    -0.323 OA
BRANCH  11  12
HETATM   12  C11 UNL     1      46.124   0.862   0.850  1.00  0.00     0.294 C 
HETATM   13  O4  UNL     1      46.401   2.202   1.167  1.00  0.00    -0.350 OA
HETATM   14  C12 UNL     1      45.521   3.090   0.588  1.00  0.00     0.178 C 
HETATM   15  C14 UNL     1      45.375   2.884  -0.903  1.00  0.00     0.216 C 
HETATM   16  C15 UNL     1      44.962   1.433  -1.196  1.00  0.00     0.073 C 
HETATM   17  C16 UNL     1      46.121   0.611  -0.606  1.00  0.00     0.240 C 
BRANCH  14  18
HETATM   18  C13 UNL     1      45.832   4.523   0.952  1.00  0.00     0.198 C 
BRANCH  18  19
HETATM   19  O5  UNL     1      44.634   5.219   1.035  1.00  0.00    -0.398 OA
ATOM     20  H5  UNL     1      44.616   5.680   1.866  1.00  0.00     0.209 HD
ENDBRANCH  18  19
ENDBRANCH  14  18
BRANCH  15  21
HETATM   21  N7  UNL     1      44.494   3.812  -1.536  1.00  0.00    -0.072 N 
ATOM     22  H73 UNL     1      44.507   4.708  -1.048  1.00  0.00     0.274 HD
ATOM     23  H72 UNL     1      44.870   4.103  -2.440  1.00  0.00     0.274 HD
ATOM     24  H71 UNL     1      43.537   3.475  -1.639  1.00  0.00     0.274 HD
ENDBRANCH  15  21
BRANCH  17  25
HETATM   25  N8  UNL     1      46.029  -0.757  -0.983  1.00  0.00    -0.070 N 
ATOM     26  H83 UNL     1      46.892  -1.054  -1.441  1.00  0.00     0.274 HD
ATOM     27  H82 UNL     1      46.053  -1.353  -0.156  1.00  0.00     0.274 HD
ATOM     28  H81 UNL     1      45.225  -0.995  -1.563  1.00  0.00     0.274 HD
ENDBRANCH  17  25
ENDBRANCH  11  12
ENDBRANCH   7  11
BRANCH   5  29
HETATM   29  C8  UNL     1      42.470   2.228   4.982  1.00  0.00     0.181 C 
BRANCH  29  30
HETATM   30  N5  UNL     1      42.601   2.890   6.255  1.00  0.00    -0.381 N 
ATOM     31  H5  UNL     1      41.907   2.743   6.988  1.00  0.00     0.160 HD
BRANCH  30  32
HETATM   32  C9  UNL     1      43.703   3.742   6.474  1.00  0.00     0.199 C 
HETATM   33  N6  UNL     1      43.811   4.485   7.545  1.00  0.00    -0.265 N 
ATOM     34  H6  UNL     1      44.624   5.088   7.668  1.00  0.00     0.194 HD
BRANCH  33  35
HETATM   35  O1  UNL     1      42.818   4.452   8.514  1.00  0.00    -0.289 OA
ATOM     36  H1  UNL     1      42.146   3.782   8.480  1.00  0.00     0.244 HD
ENDBRANCH  33  35
ENDBRANCH  30  32
ENDBRANCH  29  30
ENDBRANCH   5  29
BRANCH   1  37
HETATM   37  C5  UNL     1      43.010  -2.107   4.865  1.00  0.00     0.113 C 
BRANCH  37  38
HETATM   38  S1  UNL     1      42.196  -2.179   6.403  1.00  0.00    -0.167 SA
BRANCH  38  39
HETATM   39  C4  UNL     1      40.990  -0.944   6.794  1.00  0.00     0.075 C 
BRANCH  39  40
HETATM   40  C3  UNL     1      41.523  -0.125   7.978  1.00  0.00     0.030 C 
BRANCH  40  41
HETATM   41  C2  UNL     1      40.431   0.562   8.736  1.00  0.00     0.123 C 
BRANCH  41  42
HETATM   42  N3  UNL     1      40.725   1.961   8.956  1.00  0.00    -0.365 N 
HETATM   43  C1  UNL     1      39.741   2.956   8.707  1.00  0.00     0.181 C 
HETATM   44  N1  UNL     1      38.693   2.993   9.479  1.00  0.00    -0.374 N 
HETATM   45  N2  UNL     1      39.909   3.867   7.652  1.00  0.00    -0.064 NA
ATOM     46  H12 UNL     1      37.987   3.708   9.301  1.00  0.00     0.158 HD
ATOM     47  H11 UNL     1      38.571   2.331  10.246  1.00  0.00     0.158 HD
ATOM     48  H3  UNL     1      41.648   2.236   9.294  1.00  0.00     0.162 HD
ENDBRANCH  41  42
ENDBRANCH  40  41
ENDBRANCH  39  40
ENDBRANCH  38  39
ENDBRANCH  37  38
ENDBRANCH   1  37
TORSDOF 16
ENDMDL
MODEL 4
REMARK VINA RESULT: -7.868051568      2.666      3.880
REMARK  16 active torsions:
REMARK  status: ('A' for Active; 'I' for Inactive)
REMARK       I    between atoms: C1_4  and  N3_6 
REMARK    1  A    between atoms: N3_6  and  C2_8 
REMARK    2  A    between atoms: C2_8  and  C3_9 
REMARK    3  A    between atoms: C3_9  and  C4_10 
REMARK    4  A    between atoms: C4_10  and  S1_11 
REMARK    5  A    between atoms: S1_11  and  C5_12 
REMARK    6  A    between atoms: C5_12  and  C6_13 
REMARK    7  A    between atoms: C7_17  and  C8_18 
REMARK    8  A    between atoms: C8_18  and  N5_19 
REMARK    9  A    between atoms: N5_19  and  C9_21 
REMARK   10  A    between atoms: N6_22  and  O1_24 
REMARK   11  A    between atoms: C10_27  and  O3_28 
REMARK   12  A    between atoms: O3_28  and  C11_29 
REMARK   13  A    between atoms: C12_31  and  C13_32 
REMARK   14  A    between atoms: C13_32  and  O5_33 
REMARK   15  A    between atoms: C14_35  and  N7_36 
REMARK   16  A    between atoms: C16_41  and  N8_42 
ROOT
HETATM    1  C6  UNL     1      41.841   2.435   6.063  1.00  0.00     0.275 C 
HETATM    2  N4  UNL     1      42.533   2.951   7.257  1.00  0.00    -0.036 N 
ATOM      3  H41 UNL     1      42.695   2.209   7.937  1.00  0.00     0.281 HD
ATOM      4  H42 UNL     1      41.917   3.547   7.810  1.00  0.00     0.281 HD
HETATM    5  C7  UNL     1      43.744   3.625   6.935  1.00  0.00     0.342 C 
HETATM    6  O2  UNL     1      44.168   3.345   5.668  1.00  0.00    -0.321 OA
HETATM    7  C10 UNL     1      44.167   1.975   5.344  1.00  0.00     0.340 C 
HETATM    8  C17 UNL     1      42.721   1.457   5.365  1.00  0.00     0.321 C 
HETATM    9  F1  UNL     1      42.328   1.419   4.049  1.00  0.00    -0.198 F 
HETATM   10  F2  UNL     1      42.668   0.200   5.906  1.00  0.00    -0.198 F 
ENDROOT
BRANCH   7  11
HETATM   11  O3  UNL     1      44.710   1.752   4.117  1.00  0.00    -0.323 OA
BRANCH  11  12
HETATM   12  C11 UNL     1      45.661   0.742   4.039  1.00  0.00     0.294 C 
HETATM   13  O4  UNL     1      46.793   1.387   3.515  1.00  0.00    -0.350 OA
HETATM   14  C12 UNL     1      46.586   1.914   2.259  1.00  0.00     0.178 C 
HETATM   15  C14 UNL     1      46.012   0.906   1.288  1.00  0.00     0.216 C 
HETATM   16  C15 UNL     1      44.715   0.309   1.854  1.00  0.00     0.073 C 
HETATM   17  C16 UNL     1      45.172  -0.346   3.169  1.00  0.00     0.240 C 
BRANCH  14  18
HETATM   18  C13 UNL     1      47.812   2.611   1.721  1.00  0.00     0.198 C 
BRANCH  18  19
HETATM   19  O5  UNL     1      48.931   1.905   2.140  1.00  0.00    -0.398 OA
ATOM     20  H5  UNL     1      49.553   1.881   1.422  1.00  0.00     0.209 HD
ENDBRANCH  18  19
ENDBRANCH  14  18
BRANCH  15  21
HETATM   21  N7  UNL     1      45.817   1.414  -0.032  1.00  0.00    -0.072 N 
ATOM     22  H73 UNL     1      45.267   2.272  -0.008  1.00  0.00     0.274 HD
ATOM     23  H72 UNL     1      46.693   1.781  -0.407  1.00  0.00     0.274 HD
ATOM     24  H71 UNL     1      45.405   0.743  -0.680  1.00  0.00     0.274 HD
ENDBRANCH  15  21
BRANCH  17  25
HETATM   25  N8  UNL     1      44.144  -1.154   3.729  1.00  0.00    -0.070 N 
ATOM     26  H83 UNL     1      43.301  -0.599   3.876  1.00  0.00     0.274 HD
ATOM     27  H82 UNL     1      43.802  -1.818   3.036  1.00  0.00     0.274 HD
ATOM     28  H81 UNL     1      44.396  -1.643   4.588  1.00  0.00     0.274 HD
ENDBRANCH  17  25
ENDBRANCH  11  12
ENDBRANCH   7  11
BRANCH   5  29
HETATM   29  C8  UNL     1      43.474   5.135   6.985  1.00  0.00     0.181 C 
BRANCH  29  30
HETATM   30  N5  UNL     1      43.827   5.679   8.273  1.00  0.00    -0.381 N 
ATOM     31  H5  UNL     1      43.485   6.597   8.558  1.00  0.00     0.160 HD
BRANCH  30  32
HETATM   32  C9  UNL     1      44.651   4.925   9.132  1.00  0.00     0.199 C 
HETATM   33  N6  UNL     1      45.743   5.412   9.662  1.00  0.00    -0.265 N 
ATOM     34  H6  UNL     1      46.312   4.835  10.281  1.00  0.00     0.194 HD
BRANCH  33  35
HETATM   35  O1  UNL     1      46.125   6.716   9.382  1.00  0.00    -0.289 OA
ATOM     36  H1  UNL     1      47.014   6.998   9.563  1.00  0.00     0.244 HD
ENDBRANCH  33  35
ENDBRANCH  30  32
ENDBRANCH  29  30
ENDBRANCH   5  29
BRANCH   1  37
HETATM   37  C5  UNL     1      40.472   2.014   6.398  1.00  0.00     0.113 C 
BRANCH  37  38
HETATM   38  S1  UNL     1      39.861   1.985   8.028  1.00  0.00    -0.167 SA
BRANCH  38  39
HETATM   39  C4  UNL     1      38.972   3.390   8.636  1.00  0.00     0.075 C 
BRANCH  39  40
HETATM   40  C3  UNL     1      37.895   3.747   7.603  1.00  0.00     0.030 C 
BRANCH  40  41
HETATM   41  C2  UNL     1      37.022   2.581   7.259  1.00  0.00     0.123 C 
BRANCH  41  42
HETATM   42  N3  UNL     1      36.405   2.733   5.960  1.00  0.00    -0.365 N 
HETATM   43  C1  UNL     1      35.149   2.128   5.679  1.00  0.00     0.181 C 
HETATM   44  N1  UNL     1      34.096   2.580   6.298  1.00  0.00    -0.374 N 
HETATM   45  N2  UNL     1      35.064   1.073   4.757  1.00  0.00    -0.064 NA
ATOM     46  H12 UNL     1      33.195   2.146   6.096  1.00  0.00     0.158 HD
ATOM     47  H11 UNL     1      34.159   3.346   6.968  1.00  0.00     0.158 HD
ATOM     48  H3  UNL     1      36.876   3.280   5.238  1.00  0.00     0.162 HD
ENDBRANCH  41  42
ENDBRANCH  40  41
ENDBRANCH  39  40
ENDBRANCH  38  39
ENDBRANCH  37  38
ENDBRANCH   1  37
TORSDOF 16
ENDMDL
MODEL 5
REMARK VINA RESULT: -7.859171661      1.997      2.612
REMARK  16 active torsions:
REMARK  status: ('A' for Active; 'I' for Inactive)
REMARK       I    between atoms: C1_4  and  N3_6 
REMARK    1  A    between atoms: N3_6  and  C2_8 
REMARK    2  A    between atoms: C2_8  and  C3_9 
REMARK    3  A    between atoms: C3_9  and  C4_10 
REMARK    4  A    between atoms: C4_10  and  S1_11 
REMARK    5  A    between atoms: S1_11  and  C5_12 
REMARK    6  A    between atoms: C5_12  and  C6_13 
REMARK    7  A    between atoms: C7_17  and  C8_18 
REMARK    8  A    between atoms: C8_18  and  N5_19 
REMARK    9  A    between atoms: N5_19  and  C9_21 
REMARK   10  A    between atoms: N6_22  and  O1_24 
REMARK   11  A    between atoms: C10_27  and  O3_28 
REMARK   12  A    between atoms: O3_28  and  C11_29 
REMARK   13  A    between atoms: C12_31  and  C13_32 
REMARK   14  A    between atoms: C13_32  and  O5_33 
REMARK   15  A    between atoms: C14_35  and  N7_36 
REMARK   16  A    between atoms: C16_41  and  N8_42 
ROOT
HETATM    1  C6  UNL     1      42.362   1.393   5.759  1.00  0.00     0.275 C 
HETATM    2  N4  UNL     1      43.066   2.181   6.787  1.00  0.00    -0.036 N 
ATOM      3  H41 UNL     1      43.670   1.588   7.355  1.00  0.00     0.281 HD
ATOM      4  H42 UNL     1      42.422   2.499   7.511  1.00  0.00     0.281 HD
HETATM    5  C7  UNL     1      43.792   3.271   6.233  1.00  0.00     0.342 C 
HETATM    6  O2  UNL     1      43.966   3.144   4.885  1.00  0.00    -0.321 OA
HETATM    7  C10 UNL     1      44.425   1.877   4.475  1.00  0.00     0.340 C 
HETATM    8  C17 UNL     1      43.355   0.826   4.805  1.00  0.00     0.321 C 
HETATM    9  F1  UNL     1      42.697   0.592   3.621  1.00  0.00    -0.198 F 
HETATM   10  F2  UNL     1      43.937  -0.330   5.253  1.00  0.00    -0.198 F 
ENDROOT
BRANCH   7  11
HETATM   11  O3  UNL     1      44.691   1.851   3.142  1.00  0.00    -0.323 OA
BRANCH  11  12
HETATM   12  C11 UNL     1      45.883   1.245   2.764  1.00  0.00     0.294 C 
HETATM   13  O4  UNL     1      46.675   2.315   2.315  1.00  0.00    -0.350 OA
HETATM   14  C12 UNL     1      46.135   2.973   1.231  1.00  0.00     0.178 C 
HETATM   15  C14 UNL     1      45.762   2.036   0.103  1.00  0.00     0.216 C 
HETATM   16  C15 UNL     1      44.807   0.948   0.616  1.00  0.00     0.073 C 
HETATM   17  C16 UNL     1      45.628   0.244   1.709  1.00  0.00     0.240 C 
BRANCH  14  18
HETATM   18  C13 UNL     1      46.998   4.124   0.772  1.00  0.00     0.198 C 
BRANCH  18  19
HETATM   19  O5  UNL     1      48.167   3.603   0.235  1.00  0.00    -0.398 OA
ATOM     20  H5  UNL     1      48.831   4.283   0.255  1.00  0.00     0.209 HD
ENDBRANCH  18  19
ENDBRANCH  14  18
BRANCH  15  21
HETATM   21  N7  UNL     1      45.231   2.693  -1.048  1.00  0.00    -0.072 N 
ATOM     22  H73 UNL     1      45.421   3.694  -1.009  1.00  0.00     0.274 HD
ATOM     23  H72 UNL     1      45.770   2.448  -1.880  1.00  0.00     0.274 HD
ATOM     24  H71 UNL     1      44.237   2.523  -1.204  1.00  0.00     0.274 HD
ENDBRANCH  15  21
BRANCH  17  25
HETATM   25  N8  UNL     1      44.990  -0.949   2.149  1.00  0.00    -0.070 N 
ATOM     26  H83 UNL     1      44.870  -0.931   3.161  1.00  0.00     0.274 HD
ATOM     27  H82 UNL     1      44.015  -0.955   1.853  1.00  0.00     0.274 HD
ATOM     28  H81 UNL     1      45.448  -1.815   1.866  1.00  0.00     0.274 HD
ENDBRANCH  17  25
ENDBRANCH  11  12
ENDBRANCH   7  11
BRANCH   5  29
HETATM   29  C8  UNL     1      42.970   4.549   6.452  1.00  0.00     0.181 C 
BRANCH  29  30
HETATM   30  N5  UNL     1      42.796   4.816   7.858  1.00  0.00    -0.381 N 
ATOM     31  H5  UNL     1      41.868   4.785   8.279  1.00  0.00     0.160 HD
BRANCH  30  32
HETATM   32  C9  UNL     1      43.928   5.119   8.642  1.00  0.00     0.199 C 
HETATM   33  N6  UNL     1      44.302   6.348   8.886  1.00  0.00    -0.265 N 
ATOM     34  H6  UNL     1      45.126   6.527   9.459  1.00  0.00     0.194 HD
BRANCH  33  35
HETATM   35  O1  UNL     1      43.575   7.409   8.365  1.00  0.00    -0.289 OA
ATOM     36  H1  UNL     1      42.982   7.897   8.924  1.00  0.00     0.244 HD
ENDBRANCH  33  35
ENDBRANCH  30  32
ENDBRANCH  29  30
ENDBRANCH   5  29
BRANCH   1  37
HETATM   37  C5  UNL     1      41.400   0.472   6.381  1.00  0.00     0.113 C 
BRANCH  37  38
HETATM   38  S1  UNL     1      41.281   0.243   8.103  1.00  0.00    -0.167 SA
BRANCH  38  39
HETATM   39  C4  UNL     1      40.033   1.120   9.001  1.00  0.00     0.075 C 
BRANCH  39  40
HETATM   40  C3  UNL     1      40.491   2.578   9.140  1.00  0.00     0.030 C 
BRANCH  40  41
HETATM   41  C2  UNL     1      39.458   3.442   9.791  1.00  0.00     0.123 C 
BRANCH  41  42
HETATM   42  N3  UNL     1      39.121   4.588   8.975  1.00  0.00    -0.365 N 
HETATM   43  C1  UNL     1      38.760   4.425   7.609  1.00  0.00     0.181 C 
HETATM   44  N1  UNL     1      37.636   3.826   7.337  1.00  0.00    -0.374 N 
HETATM   45  N2  UNL     1      39.604   4.901   6.594  1.00  0.00    -0.064 NA
ATOM     46  H12 UNL     1      37.377   3.709   6.357  1.00  0.00     0.158 HD
ATOM     47  H11 UNL     1      37.023   3.479   8.075  1.00  0.00     0.158 HD
ATOM     48  H3  UNL     1      39.143   5.523   9.384  1.00  0.00     0.162 HD
ENDBRANCH  41  42
ENDBRANCH  40  41
ENDBRANCH  39  40
ENDBRANCH  38  39
ENDBRANCH  37  38
ENDBRANCH   1  37
TORSDOF 16
ENDMDL
