MODEL 1
REMARK VINA RESULT: -7.553067817      0.000      0.000
REMARK  17 active torsions:
REMARK  status: ('A' for Active; 'I' for Inactive)
REMARK    1  A    between atoms: C2_2  and  O1_3 
REMARK    2  A    between atoms: O1_3  and  N1_4 
REMARK    3  A    between atoms: N1_4  and  C3_5 
REMARK    4  A    between atoms: C3_5  and  C4_6 
REMARK    5  A    between atoms: C4_6  and  C5_7 
REMARK    6  A    between atoms: C5_7  and  C6_8 
REMARK    7  A    between atoms: C5_7  and  N2_10 
REMARK    8  A    between atoms: N2_10  and  C7_12 
REMARK    9  A    between atoms: C8_15  and  S1_16 
REMARK   10  A    between atoms: S1_16  and  C9_17 
REMARK   11  A    between atoms: C9_17  and  C10_18 
REMARK   12  A    between atoms: C13_24  and  N4_25 
REMARK   13  A    between atoms: C14_29  and  O4_30 
REMARK   14  A    between atoms: C15_32  and  O5_33 
REMARK   15  A    between atoms: C16_35  and  O6_36 
REMARK   16  A    between atoms: C17_38  and  O7_39 
REMARK   17  A    between atoms: C18_41  and  O8_42 
ROOT
HETATM    1  C7  UNL     1      41.888   0.737   6.265  1.00  0.00     0.205 C 
HETATM    2  N3  UNL     1      42.814   0.779   5.166  1.00  0.00    -0.384 N 
ATOM      3  H3  UNL     1      43.405   1.589   4.982  1.00  0.00     0.156 HD
HETATM    4  C8  UNL     1      42.847  -0.399   4.345  1.00  0.00     0.173 C 
HETATM    5  C16 UNL     1      42.995  -1.587   5.199  1.00  0.00     0.182 C 
HETATM    6  C17 UNL     1      41.625  -1.767   5.868  1.00  0.00     0.182 C 
HETATM    7  C18 UNL     1      41.241  -0.533   6.559  1.00  0.00     0.191 C 
ENDROOT
BRANCH   4   8
HETATM    8  S1  UNL     1      43.935  -0.095   3.003  1.00  0.00    -0.117 SA
BRANCH   8   9
HETATM    9  C9  UNL     1      45.061   1.255   3.021  1.00  0.00     0.129 C 
HETATM   10  C11 UNL     1      44.351   2.500   2.496  1.00  0.00     0.074 C 
HETATM   11  C12 UNL     1      45.427   3.523   2.205  1.00  0.00     0.205 C 
HETATM   12  F2  UNL     1      44.875   4.770   2.107  1.00  0.00    -0.247 F 
HETATM   13  C13 UNL     1      46.053   3.109   0.885  1.00  0.00     0.248 C 
HETATM   14  C14 UNL     1      46.349   1.634   0.866  1.00  0.00     0.182 C 
HETATM   15  C15 UNL     1      46.315   0.989   2.196  1.00  0.00     0.178 C 
BRANCH   9  16
HETATM   16  C10 UNL     1      45.523   1.537   4.384  1.00  0.00     0.195 C 
HETATM   17  O2  UNL     1      46.150   0.590   4.993  1.00  0.00    -0.647 OA
HETATM   18  O3  UNL     1      45.387   2.680   5.128  1.00  0.00    -0.647 OA
ENDBRANCH   9  16
BRANCH  13  19
HETATM   19  N4  UNL     1      47.228   3.924   0.652  1.00  0.00    -0.070 N 
ATOM     20  H43 UNL     1      47.008   4.918   0.590  1.00  0.00     0.274 HD
ATOM     21  H42 UNL     1      47.842   3.966   1.465  1.00  0.00     0.274 HD
ATOM     22  H41 UNL     1      47.706   3.578  -0.180  1.00  0.00     0.274 HD
ENDBRANCH  13  19
BRANCH  14  23
HETATM   23  O4  UNL     1      45.549   0.977  -0.068  1.00  0.00    -0.391 OA
ATOM     24  H4  UNL     1      45.737   0.046  -0.081  1.00  0.00     0.210 HD
ENDBRANCH  14  23
BRANCH  15  25
HETATM   25  O5  UNL     1      47.473   1.257   2.912  1.00  0.00    -0.391 OA
ATOM     26  H5  UNL     1      47.581   2.186   3.076  1.00  0.00     0.210 HD
ENDBRANCH  15  25
ENDBRANCH   8   9
ENDBRANCH   4   8
BRANCH   5  27
HETATM   27  O6  UNL     1      43.990  -1.426   6.137  1.00  0.00    -0.390 OA
ATOM     28  H6  UNL     1      44.836  -1.704   5.808  1.00  0.00     0.210 HD
ENDBRANCH   5  27
BRANCH   1  29
HETATM   29  N2  UNL     1      41.044   1.882   6.013  1.00  0.00    -0.393 N 
ATOM     30  H2  UNL     1      40.182   1.793   5.474  1.00  0.00     0.155 HD
BRANCH  29  31
HETATM   31  C5  UNL     1      41.458   3.143   6.543  1.00  0.00     0.108 C 
BRANCH  31  32
HETATM   32  C4  UNL     1      41.674   2.922   8.029  1.00  0.00     0.045 C 
BRANCH  32  33
HETATM   33  C3  UNL     1      40.455   3.060   8.873  1.00  0.00     0.144 C 
BRANCH  33  34
HETATM   34  N1  UNL     1      40.011   1.678   9.153  1.00  0.00    -0.101 NA
BRANCH  34  35
HETATM   35  O1  UNL     1      39.023   1.335   8.282  1.00  0.00    -0.287 OA
BRANCH  35  36
HETATM   36  C2  UNL     1      37.993   2.288   8.305  1.00  0.00     0.191 C 
HETATM   37  C1  UNL     1      36.964   1.933   7.262  1.00  0.00     0.035 C 
ENDBRANCH  35  36
ENDBRANCH  34  35
ENDBRANCH  33  34
ENDBRANCH  32  33
ENDBRANCH  31  32
BRANCH  31  38
HETATM   38  C6  UNL     1      40.281   4.100   6.376  1.00  0.00     0.246 C 
HETATM   39  F1  UNL     1      39.334   3.555   5.531  1.00  0.00    -0.253 F 
ENDBRANCH  31  38
ENDBRANCH  29  31
ENDBRANCH   1  29
BRANCH   6  40
HETATM   40  O7  UNL     1      41.686  -2.894   6.672  1.00  0.00    -0.390 OA
ATOM     41  H7  UNL     1      42.601  -3.112   6.804  1.00  0.00     0.210 HD
ENDBRANCH   6  40
BRANCH   7  42
HETATM   42  O8  UNL     1      41.339  -0.846   7.951  1.00  0.00    -0.389 OA
ATOM     43  H8  UNL     1      42.081  -1.415   8.119  1.00  0.00     0.210 HD
ENDBRANCH   7  42
TORSDOF 17
ENDMDL
MODEL 2
REMARK VINA RESULT: -7.464717415      1.707      2.214
REMARK  17 active torsions:
REMARK  status: ('A' for Active; 'I' for Inactive)
REMARK    1  A    between atoms: C2_2  and  O1_3 
REMARK    2  A    between atoms: O1_3  and  N1_4 
REMARK    3  A    between atoms: N1_4  and  C3_5 
REMARK    4  A    between atoms: C3_5  and  C4_6 
REMARK    5  A    between atoms: C4_6  and  C5_7 
REMARK    6  A    between atoms: C5_7  and  C6_8 
REMARK    7  A    between atoms: C5_7  and  N2_10 
REMARK    8  A    between atoms: N2_10  and  C7_12 
REMARK    9  A    between atoms: C8_15  and  S1_16 
REMARK   10  A    between atoms: S1_16  and  C9_17 
REMARK   11  A    between atoms: C9_17  and  C10_18 
REMARK   12  A    between atoms: C13_24  and  N4_25 
REMARK   13  A    between atoms: C14_29  and  O4_30 
REMARK   14  A    between atoms: C15_32  and  O5_33 
REMARK   15  A    between atoms: C16_35  and  O6_36 
REMARK   16  A    between atoms: C17_38  and  O7_39 
REMARK   17  A    between atoms: C18_41  and  O8_42 
ROOT
HETATM    1  C7  UNL     1      42.383   1.672   5.935  1.00  0.00     0.205 C 
HETATM    2  N3  UNL     1      43.427   2.388   5.253  1.00  0.00    -0.384 N 
ATOM      3  H3  UNL     1      43.839   3.242   5.630  1.00  0.00     0.156 HD
HETATM    4  C8  UNL     1      43.849   1.818   4.004  1.00  0.00     0.173 C 
HETATM    5  C16 UNL     1      44.135   0.388   4.191  1.00  0.00     0.182 C 
HETATM    6  C17 UNL     1      42.760  -0.277   4.336  1.00  0.00     0.182 C 
HETATM    7  C18 UNL     1      42.007   0.366   5.417  1.00  0.00     0.191 C 
ENDROOT
BRANCH   4   8
HETATM    8  S1  UNL     1      45.025   2.901   3.282  1.00  0.00    -0.117 SA
BRANCH   8   9
HETATM    9  C9  UNL     1      46.052   2.388   1.952  1.00  0.00     0.129 C 
HETATM   10  C11 UNL     1      46.605   3.624   1.247  1.00  0.00     0.074 C 
HETATM   11  C12 UNL     1      47.182   3.151  -0.069  1.00  0.00     0.205 C 
HETATM   12  F2  UNL     1      48.027   4.098  -0.578  1.00  0.00    -0.247 F 
HETATM   13  C13 UNL     1      45.997   2.937  -0.994  1.00  0.00     0.248 C 
HETATM   14  C14 UNL     1      44.901   2.175  -0.301  1.00  0.00     0.182 C 
HETATM   15  C15 UNL     1      45.322   1.504   0.948  1.00  0.00     0.178 C 
BRANCH   9  16
HETATM   16  C10 UNL     1      47.188   1.598   2.439  1.00  0.00     0.195 C 
HETATM   17  O2  UNL     1      46.962   0.805   3.429  1.00  0.00    -0.647 OA
HETATM   18  O3  UNL     1      48.484   1.573   1.992  1.00  0.00    -0.647 OA
ENDBRANCH   9  16
BRANCH  13  19
HETATM   19  N4  UNL     1      46.462   2.286  -2.202  1.00  0.00    -0.070 N 
ATOM     20  H43 UNL     1      47.455   2.055  -2.164  1.00  0.00     0.274 HD
ATOM     21  H42 UNL     1      46.101   1.336  -2.297  1.00  0.00     0.274 HD
ATOM     22  H41 UNL     1      46.229   2.874  -3.001  1.00  0.00     0.274 HD
ENDBRANCH  13  19
BRANCH  14  23
HETATM   23  O4  UNL     1      43.773   2.974  -0.125  1.00  0.00    -0.391 OA
ATOM     24  H4  UNL     1      43.352   3.156  -0.958  1.00  0.00     0.210 HD
ENDBRANCH  14  23
BRANCH  15  25
HETATM   25  O5  UNL     1      46.023   0.338   0.678  1.00  0.00    -0.391 OA
ATOM     26  H5  UNL     1      45.566  -0.215   0.056  1.00  0.00     0.210 HD
ENDBRANCH  15  25
ENDBRANCH   8   9
ENDBRANCH   4   8
BRANCH   5  27
HETATM   27  O6  UNL     1      44.918   0.160   5.301  1.00  0.00    -0.390 OA
ATOM     28  H6  UNL     1      45.365   0.948   5.587  1.00  0.00     0.210 HD
ENDBRANCH   5  27
BRANCH   1  29
HETATM   29  N2  UNL     1      41.348   2.671   6.066  1.00  0.00    -0.393 N 
ATOM     30  H2  UNL     1      40.542   2.680   5.440  1.00  0.00     0.155 HD
BRANCH  29  31
HETATM   31  C5  UNL     1      41.491   3.646   7.102  1.00  0.00     0.108 C 
BRANCH  31  32
HETATM   32  C4  UNL     1      41.411   2.881   8.410  1.00  0.00     0.045 C 
BRANCH  32  33
HETATM   33  C3  UNL     1      40.037   2.497   8.836  1.00  0.00     0.144 C 
BRANCH  33  34
HETATM   34  N1  UNL     1      39.785   1.180   8.213  1.00  0.00    -0.101 NA
BRANCH  34  35
HETATM   35  O1  UNL     1      38.835   1.311   7.247  1.00  0.00    -0.287 OA
BRANCH  35  36
HETATM   36  C2  UNL     1      37.699   1.958   7.758  1.00  0.00     0.191 C 
HETATM   37  C1  UNL     1      37.026   2.728   6.650  1.00  0.00     0.035 C 
ENDBRANCH  35  36
ENDBRANCH  34  35
ENDBRANCH  33  34
ENDBRANCH  32  33
ENDBRANCH  31  32
BRANCH  31  38
HETATM   38  C6  UNL     1      40.273   4.562   7.018  1.00  0.00     0.246 C 
HETATM   39  F1  UNL     1      39.701   4.487   5.762  1.00  0.00    -0.253 F 
ENDBRANCH  31  38
ENDBRANCH  29  31
ENDBRANCH   1  29
BRANCH   6  40
HETATM   40  O7  UNL     1      42.956  -1.640   4.489  1.00  0.00    -0.390 OA
ATOM     41  H7  UNL     1      42.191  -2.001   4.921  1.00  0.00     0.210 HD
ENDBRANCH   6  40
BRANCH   7  42
HETATM   42  O8  UNL     1      41.967  -0.606   6.465  1.00  0.00    -0.389 OA
ATOM     43  H8  UNL     1      42.810  -1.032   6.565  1.00  0.00     0.210 HD
ENDBRANCH   7  42
TORSDOF 17
ENDMDL
MODEL 3
REMARK VINA RESULT: -7.457910801      1.215      1.501
REMARK  17 active torsions:
REMARK  status: ('A' for Active; 'I' for Inactive)
REMARK    1  A    between atoms: C2_2  and  O1_3 
REMARK    2  A    between atoms: O1_3  and  N1_4 
REMARK    3  A    between atoms: N1_4  and  C3_5 
REMARK    4  A    between atoms: C3_5  and  C4_6 
REMARK    5  A    between atoms: C4_6  and  C5_7 
REMARK    6  A    between atoms: C5_7  and  C6_8 
REMARK    7  A    between atoms: C5_7  and  N2_10 
REMARK    8  A    between atoms: N2_10  and  C7_12 
REMARK    9  A    between atoms: C8_15  and  S1_16 
REMARK   10  A    between atoms: S1_16  and  C9_17 
REMARK   11  A    between atoms: C9_17  and  C10_18 
REMARK   12  A    between atoms: C13_24  and  N4_25 
REMARK   13  A    between atoms: C14_29  and  O4_30 
REMARK   14  A    between atoms: C15_32  and  O5_33 
REMARK   15  A    between atoms: C16_35  and  O6_36 
REMARK   16  A    between atoms: C17_38  and  O7_39 
REMARK   17  A    between atoms: C18_41  and  O8_42 
ROOT
HETATM    1  C7  UNL     1      41.845   0.740   6.300  1.00  0.00     0.205 C 
HETATM    2  N3  UNL     1      42.767   0.796   5.198  1.00  0.00    -0.384 N 
ATOM      3  H3  UNL     1      43.349   1.613   5.015  1.00  0.00     0.156 HD
HETATM    4  C8  UNL     1      42.812  -0.380   4.374  1.00  0.00     0.173 C 
HETATM    5  C16 UNL     1      42.976  -1.568   5.224  1.00  0.00     0.182 C 
HETATM    6  C17 UNL     1      41.610  -1.766   5.897  1.00  0.00     0.182 C 
HETATM    7  C18 UNL     1      41.214  -0.538   6.592  1.00  0.00     0.191 C 
ENDROOT
BRANCH   4   8
HETATM    8  S1  UNL     1      43.893  -0.060   3.030  1.00  0.00    -0.117 SA
BRANCH   8   9
HETATM    9  C9  UNL     1      45.015   1.292   3.056  1.00  0.00     0.129 C 
HETATM   10  C11 UNL     1      44.308   2.535   2.521  1.00  0.00     0.074 C 
HETATM   11  C12 UNL     1      45.384   3.559   2.238  1.00  0.00     0.205 C 
HETATM   12  F2  UNL     1      44.831   4.805   2.132  1.00  0.00    -0.247 F 
HETATM   13  C13 UNL     1      46.024   3.144   0.925  1.00  0.00     0.248 C 
HETATM   14  C14 UNL     1      46.323   1.669   0.912  1.00  0.00     0.182 C 
HETATM   15  C15 UNL     1      46.278   1.028   2.244  1.00  0.00     0.178 C 
BRANCH   9  16
HETATM   16  C10 UNL     1      45.463   1.578   4.423  1.00  0.00     0.195 C 
HETATM   17  O2  UNL     1      46.114   0.646   5.028  1.00  0.00    -0.647 OA
HETATM   18  O3  UNL     1      45.292   2.712   5.173  1.00  0.00    -0.647 OA
ENDBRANCH   9  16
BRANCH  13  19
HETATM   19  N4  UNL     1      47.199   3.961   0.702  1.00  0.00    -0.070 N 
ATOM     20  H43 UNL     1      47.129   4.523  -0.147  1.00  0.00     0.274 HD
ATOM     21  H42 UNL     1      47.276   4.726   1.371  1.00  0.00     0.274 HD
ATOM     22  H41 UNL     1      48.022   3.358   0.703  1.00  0.00     0.274 HD
ENDBRANCH  13  19
BRANCH  14  23
HETATM   23  O4  UNL     1      45.534   1.009  -0.027  1.00  0.00    -0.391 OA
ATOM     24  H4  UNL     1      44.613   1.067   0.201  1.00  0.00     0.210 HD
ENDBRANCH  14  23
BRANCH  15  25
HETATM   25  O5  UNL     1      47.428   1.300   2.970  1.00  0.00    -0.391 OA
ATOM     26  H5  UNL     1      48.178   1.445   2.406  1.00  0.00     0.210 HD
ENDBRANCH  15  25
ENDBRANCH   8   9
ENDBRANCH   4   8
BRANCH   5  27
HETATM   27  O6  UNL     1      43.971  -1.398   6.160  1.00  0.00    -0.390 OA
ATOM     28  H6  UNL     1      44.272  -2.227   6.513  1.00  0.00     0.210 HD
ENDBRANCH   5  27
BRANCH   1  29
HETATM   29  N2  UNL     1      40.987   1.876   6.053  1.00  0.00    -0.393 N 
ATOM     30  H2  UNL     1      40.896   2.274   5.118  1.00  0.00     0.155 HD
BRANCH  29  31
HETATM   31  C5  UNL     1      40.271   2.423   7.162  1.00  0.00     0.108 C 
BRANCH  31  32
HETATM   32  C4  UNL     1      39.272   3.401   6.574  1.00  0.00     0.045 C 
BRANCH  32  33
HETATM   33  C3  UNL     1      37.843   3.092   6.855  1.00  0.00     0.144 C 
BRANCH  33  34
HETATM   34  N1  UNL     1      37.818   1.668   7.254  1.00  0.00    -0.101 NA
BRANCH  34  35
HETATM   35  O1  UNL     1      36.557   1.178   7.103  1.00  0.00    -0.287 OA
BRANCH  35  36
HETATM   36  C2  UNL     1      35.732   2.124   6.476  1.00  0.00     0.191 C 
HETATM   37  C1  UNL     1      34.904   1.439   5.419  1.00  0.00     0.035 C 
ENDBRANCH  35  36
ENDBRANCH  34  35
ENDBRANCH  33  34
ENDBRANCH  32  33
ENDBRANCH  31  32
BRANCH  31  38
HETATM   38  C6  UNL     1      41.278   3.219   7.988  1.00  0.00     0.246 C 
HETATM   39  F1  UNL     1      40.817   3.383   9.280  1.00  0.00    -0.253 F 
ENDBRANCH  31  38
ENDBRANCH  29  31
ENDBRANCH   1  29
BRANCH   6  40
HETATM   40  O7  UNL     1      41.686  -2.894   6.697  1.00  0.00    -0.390 OA
ATOM     41  H7  UNL     1      40.975  -3.475   6.455  1.00  0.00     0.210 HD
ENDBRANCH   6  40
BRANCH   7  42
HETATM   42  O8  UNL     1      41.319  -0.853   7.983  1.00  0.00    -0.389 OA
ATOM     43  H8  UNL     1      41.903  -1.590   8.120  1.00  0.00     0.210 HD
ENDBRANCH   7  42
TORSDOF 17
ENDMDL
MODEL 4
REMARK VINA RESULT: -7.412414130      2.302      3.258
REMARK  17 active torsions:
REMARK  status: ('A' for Active; 'I' for Inactive)
REMARK    1  A    between atoms: C2_2  and  O1_3 
REMARK    2  A    between atoms: O1_3  and  N1_4 
REMARK    3  A    between atoms: N1_4  and  C3_5 
REMARK    4  A    between atoms: C3_5  and  C4_6 
REMARK    5  A    between atoms: C4_6  and  C5_7 
REMARK    6  A    between atoms: C5_7  and  C6_8 
REMARK    7  A    between atoms: C5_7  and  N2_10 
REMARK    8  A    between atoms: N2_10  and  C7_12 
REMARK    9  A    between atoms: C8_15  and  S1_16 
REMARK   10  A    between atoms: S1_16  and  C9_17 
REMARK   11  A    between atoms: C9_17  and  C10_18 
REMARK   12  A    between atoms: C13_24  and  N4_25 
REMARK   13  A    between atoms: C14_29  and  O4_30 
REMARK   14  A    between atoms: C15_32  and  O5_33 
REMARK   15  A    between atoms: C16_35  and  O6_36 
REMARK   16  A    between atoms: C17_38  and  O7_39 
REMARK   17  A    between atoms: C18_41  and  O8_42 
ROOT
HETATM    1  C7  UNL     1      42.762  -0.259   5.378  1.00  0.00     0.205 C 
HETATM    2  N3  UNL     1      43.632   0.777   4.891  1.00  0.00    -0.384 N 
ATOM      3  H3  UNL     1      43.902   1.577   5.464  1.00  0.00     0.156 HD
HETATM    4  C8  UNL     1      44.095   0.607   3.542  1.00  0.00     0.173 C 
HETATM    5  C16 UNL     1      44.639  -0.750   3.378  1.00  0.00     0.182 C 
HETATM    6  C17 UNL     1      43.410  -1.669   3.357  1.00  0.00     0.182 C 
HETATM    7  C18 UNL     1      42.601  -1.450   4.559  1.00  0.00     0.191 C 
ENDROOT
BRANCH   4   8
HETATM    8  S1  UNL     1      45.029   2.026   3.105  1.00  0.00    -0.117 SA
BRANCH   8   9
HETATM    9  C9  UNL     1      46.211   1.985   1.805  1.00  0.00     0.129 C 
HETATM   10  C11 UNL     1      46.478   3.412   1.333  1.00  0.00     0.074 C 
HETATM   11  C12 UNL     1      47.213   3.302   0.015  1.00  0.00     0.205 C 
HETATM   12  F2  UNL     1      47.825   4.488  -0.281  1.00  0.00    -0.247 F 
HETATM   13  C13 UNL     1      46.160   2.967  -1.026  1.00  0.00     0.248 C 
HETATM   14  C14 UNL     1      45.251   1.871  -0.543  1.00  0.00     0.182 C 
HETATM   15  C15 UNL     1      45.765   1.126   0.627  1.00  0.00     0.178 C 
BRANCH   9  16
HETATM   16  C10 UNL     1      47.480   1.415   2.267  1.00  0.00     0.195 C 
HETATM   17  O2  UNL     1      47.410   0.362   3.006  1.00  0.00    -0.647 OA
HETATM   18  O3  UNL     1      48.761   1.839   2.027  1.00  0.00    -0.647 OA
ENDBRANCH   9  16
BRANCH  13  19
HETATM   19  N4  UNL     1      46.825   2.643  -2.272  1.00  0.00    -0.070 N 
ATOM     20  H43 UNL     1      46.967   3.462  -2.863  1.00  0.00     0.274 HD
ATOM     21  H42 UNL     1      47.805   2.394  -2.138  1.00  0.00     0.274 HD
ATOM     22  H41 UNL     1      46.297   1.909  -2.743  1.00  0.00     0.274 HD
ENDBRANCH  13  19
BRANCH  14  23
HETATM   23  O4  UNL     1      43.956   2.346  -0.348  1.00  0.00    -0.391 OA
ATOM     24  H4  UNL     1      43.522   2.501  -1.180  1.00  0.00     0.210 HD
ENDBRANCH  14  23
BRANCH  15  25
HETATM   25  O5  UNL     1      46.739   0.214   0.252  1.00  0.00    -0.391 OA
ATOM     26  H5  UNL     1      47.115   0.423  -0.594  1.00  0.00     0.210 HD
ENDBRANCH  15  25
ENDBRANCH   8   9
ENDBRANCH   4   8
BRANCH   5  27
HETATM   27  O6  UNL     1      45.495  -1.088   4.402  1.00  0.00    -0.390 OA
ATOM     28  H6  UNL     1      45.118  -1.741   4.979  1.00  0.00     0.210 HD
ENDBRANCH   5  27
BRANCH   1  29
HETATM   29  N2  UNL     1      41.572   0.474   5.745  1.00  0.00    -0.393 N 
ATOM     30  H2  UNL     1      41.270   1.290   5.212  1.00  0.00     0.155 HD
BRANCH  29  31
HETATM   31  C5  UNL     1      40.832   0.017   6.880  1.00  0.00     0.108 C 
BRANCH  31  32
HETATM   32  C4  UNL     1      40.050   1.217   7.380  1.00  0.00     0.045 C 
BRANCH  32  33
HETATM   33  C3  UNL     1      40.072   2.406   6.484  1.00  0.00     0.144 C 
BRANCH  33  34
HETATM   34  N1  UNL     1      41.167   3.261   6.990  1.00  0.00    -0.101 NA
BRANCH  34  35
HETATM   35  O1  UNL     1      42.198   3.249   6.101  1.00  0.00    -0.287 OA
BRANCH  35  36
HETATM   36  C2  UNL     1      43.357   3.786   6.683  1.00  0.00     0.191 C 
HETATM   37  C1  UNL     1      43.076   4.131   8.123  1.00  0.00     0.035 C 
ENDBRANCH  35  36
ENDBRANCH  34  35
ENDBRANCH  33  34
ENDBRANCH  32  33
ENDBRANCH  31  32
BRANCH  31  38
HETATM   38  C6  UNL     1      41.853  -0.358   7.950  1.00  0.00     0.246 C 
HETATM   39  F1  UNL     1      42.242   0.764   8.658  1.00  0.00    -0.253 F 
ENDBRANCH  31  38
ENDBRANCH  29  31
ENDBRANCH   1  29
BRANCH   6  40
HETATM   40  O7  UNL     1      43.851  -2.970   3.176  1.00  0.00    -0.390 OA
ATOM     41  H7  UNL     1      43.334  -3.362   2.482  1.00  0.00     0.210 HD
ENDBRANCH   6  40
BRANCH   7  42
HETATM   42  O8  UNL     1      42.779  -2.635   5.342  1.00  0.00    -0.389 OA
ATOM     43  H8  UNL     1      42.400  -3.389   4.905  1.00  0.00     0.210 HD
ENDBRANCH   7  42
TORSDOF 17
ENDMDL
MODEL 5
REMARK VINA RESULT: -7.361584117      2.249      3.441
REMARK  17 active torsions:
REMARK  status: ('A' for Active; 'I' for Inactive)
REMARK    1  A    between atoms: C2_2  and  O1_3 
REMARK    2  A    between atoms: O1_3  and  N1_4 
REMARK    3  A    between atoms: N1_4  and  C3_5 
REMARK    4  A    between atoms: C3_5  and  C4_6 
REMARK    5  A    between atoms: C4_6  and  C5_7 
REMARK    6  A    between atoms: C5_7  and  C6_8 
REMARK    7  A    between atoms: C5_7  and  N2_10 
REMARK    8  A    between atoms: N2_10  and  C7_12 
REMARK    9  A    between atoms: C8_15  and  S1_16 
REMARK   10  A    between atoms: S1_16  and  C9_17 
REMARK   11  A    between atoms: C9_17  and  C10_18 
REMARK   12  A    between atoms: C13_24  and  N4_25 
REMARK   13  A    between atoms: C14_29  and  O4_30 
REMARK   14  A    between atoms: C15_32  and  O5_33 
REMARK   15  A    between atoms: C16_35  and  O6_36 
REMARK   16  A    between atoms: C17_38  and  O7_39 
REMARK   17  A    between atoms: C18_41  and  O8_42 
ROOT
HETATM    1  C7  UNL     1      42.394   0.946   5.781  1.00  0.00     0.205 C 
HETATM    2  N3  UNL     1      43.381   1.800   5.179  1.00  0.00    -0.384 N 
ATOM      3  H3  UNL     1      43.676   2.679   5.606  1.00  0.00     0.156 HD
HETATM    4  C8  UNL     1      43.922   1.331   3.933  1.00  0.00     0.173 C 
HETATM    5  C16 UNL     1      44.359  -0.065   4.085  1.00  0.00     0.182 C 
HETATM    6  C17 UNL     1      43.062  -0.883   4.137  1.00  0.00     0.182 C 
HETATM    7  C18 UNL     1      42.192  -0.372   5.200  1.00  0.00     0.191 C 
ENDROOT
BRANCH   4   8
HETATM    8  S1  UNL     1      45.000   2.566   3.310  1.00  0.00    -0.117 SA
BRANCH   8   9
HETATM    9  C9  UNL     1      46.076   2.250   1.957  1.00  0.00     0.129 C 
HETATM   10  C11 UNL     1      46.548   3.581   1.378  1.00  0.00     0.074 C 
HETATM   11  C12 UNL     1      47.171   3.273   0.034  1.00  0.00     0.205 C 
HETATM   12  F2  UNL     1      47.954   4.318  -0.372  1.00  0.00    -0.247 F 
HETATM   13  C13 UNL     1      46.014   3.065  -0.927  1.00  0.00     0.248 C 
HETATM   14  C14 UNL     1      44.966   2.169  -0.326  1.00  0.00     0.182 C 
HETATM   15  C15 UNL     1      45.420   1.415   0.863  1.00  0.00     0.178 C 
BRANCH   9  16
HETATM   16  C10 UNL     1      47.258   1.498   2.389  1.00  0.00     0.195 C 
HETATM   17  O2  UNL     1      47.059   0.521   3.204  1.00  0.00    -0.647 OA
HETATM   18  O3  UNL     1      48.574   1.678   2.050  1.00  0.00    -0.647 OA
ENDBRANCH   9  16
BRANCH  13  19
HETATM   19  N4  UNL     1      46.536   2.561  -2.181  1.00  0.00    -0.070 N 
ATOM     20  H43 UNL     1      47.482   2.190  -2.090  1.00  0.00     0.274 HD
ATOM     21  H42 UNL     1      46.076   1.701  -2.479  1.00  0.00     0.274 HD
ATOM     22  H41 UNL     1      46.473   3.300  -2.882  1.00  0.00     0.274 HD
ENDBRANCH  13  19
BRANCH  14  23
HETATM   23  O4  UNL     1      43.783   2.869  -0.097  1.00  0.00    -0.391 OA
ATOM     24  H4  UNL     1      43.284   2.471   0.607  1.00  0.00     0.210 HD
ENDBRANCH  14  23
BRANCH  15  25
HETATM   25  O5  UNL     1      46.203   0.329   0.499  1.00  0.00    -0.391 OA
ATOM     26  H5  UNL     1      46.746   0.521  -0.256  1.00  0.00     0.210 HD
ENDBRANCH  15  25
ENDBRANCH   8   9
ENDBRANCH   4   8
BRANCH   5  27
HETATM   27  O6  UNL     1      45.110  -0.248   5.225  1.00  0.00    -0.390 OA
ATOM     28  H6  UNL     1      44.738   0.205   5.972  1.00  0.00     0.210 HD
ENDBRANCH   5  27
BRANCH   1  29
HETATM   29  N2  UNL     1      41.247   1.818   5.894  1.00  0.00    -0.393 N 
ATOM     30  H2  UNL     1      40.801   2.212   5.066  1.00  0.00     0.155 HD
BRANCH  29  31
HETATM   31  C5  UNL     1      40.759   2.109   7.206  1.00  0.00     0.108 C 
BRANCH  31  32
HETATM   32  C4  UNL     1      41.095   3.566   7.463  1.00  0.00     0.045 C 
BRANCH  32  33
HETATM   33  C3  UNL     1      42.407   3.807   8.124  1.00  0.00     0.144 C 
BRANCH  33  34
HETATM   34  N1  UNL     1      43.322   4.229   7.041  1.00  0.00    -0.101 NA
BRANCH  34  35
HETATM   35  O1  UNL     1      44.546   4.509   7.567  1.00  0.00    -0.287 OA
BRANCH  35  36
HETATM   36  C2  UNL     1      44.424   4.937   8.898  1.00  0.00     0.191 C 
HETATM   37  C1  UNL     1      45.685   4.592   9.648  1.00  0.00     0.035 C 
ENDBRANCH  35  36
ENDBRANCH  34  35
ENDBRANCH  33  34
ENDBRANCH  32  33
ENDBRANCH  31  32
BRANCH  31  38
HETATM   38  C6  UNL     1      41.574   1.260   8.179  1.00  0.00     0.246 C 
HETATM   39  F1  UNL     1      40.752   0.373   8.847  1.00  0.00    -0.253 F 
ENDBRANCH  31  38
ENDBRANCH  29  31
ENDBRANCH   1  29
BRANCH   6  40
HETATM   40  O7  UNL     1      43.404  -2.221   4.252  1.00  0.00    -0.390 OA
ATOM     41  H7  UNL     1      42.605  -2.733   4.212  1.00  0.00     0.210 HD
ENDBRANCH   6  40
BRANCH   7  42
HETATM   42  O8  UNL     1      42.213  -1.384   6.211  1.00  0.00    -0.389 OA
ATOM     43  H8  UNL     1      42.315  -2.246   5.824  1.00  0.00     0.210 HD
ENDBRANCH   7  42
TORSDOF 17
ENDMDL
