MODEL 1
REMARK VINA RESULT: -8.126960128      0.000      0.000
REMARK  16 active torsions:
REMARK  status: ('A' for Active; 'I' for Inactive)
REMARK    1  A    between atoms: C2_2  and  C3_3 
REMARK    2  A    between atoms: C2_2  and  C14_31 
REMARK    3  A    between atoms: C3_3  and  C4_4 
REMARK    4  A    between atoms: C4_4  and  O1_5 
REMARK    5  A    between atoms: O1_5  and  C5_6 
REMARK    6  A    between atoms: C6_8  and  O3_9 
REMARK    7  A    between atoms: O3_9  and  C7_10 
REMARK    8  A    between atoms: C10_17  and  O4_18 
REMARK    9  A    between atoms: C11_20  and  O5_21 
REMARK   10  A    between atoms: C12_23  and  O6_24 
REMARK   11  A    between atoms: C13_26  and  N2_27 
REMARK   12  A    between atoms: C14_31  and  N3_32 
REMARK   13  A    between atoms: C14_31  and  C16_37 
REMARK       I    between atoms: N3_32  and  C15_34 
REMARK   14  A    between atoms: C16_37  and  C17_39 
REMARK   15  A    between atoms: C17_39  and  O9_40 
REMARK   16  A    between atoms: O9_40  and  C18_41 
ROOT
HETATM    1  C5  UNL     1      43.036   3.813   6.186  1.00  0.00     0.295 C 
HETATM    2  O2  UNL     1      42.629   2.553   6.687  1.00  0.00    -0.327 OA
HETATM    3  C6  UNL     1      41.303   2.287   6.353  1.00  0.00     0.297 C 
HETATM    4  C11 UNL     1      40.378   3.394   6.708  1.00  0.00     0.204 C 
HETATM    5  C12 UNL     1      41.099   4.331   7.651  1.00  0.00     0.187 C 
HETATM    6  C13 UNL     1      42.412   4.834   7.102  1.00  0.00     0.269 C 
ENDROOT
BRANCH   1   7
HETATM    7  O1  UNL     1      44.389   3.795   6.187  1.00  0.00    -0.359 OA
BRANCH   7   8
HETATM    8  C4  UNL     1      45.035   2.733   5.600  1.00  0.00     0.171 C 
BRANCH   8   9
HETATM    9  C3  UNL     1      44.670   2.512   4.163  1.00  0.00     0.033 C 
BRANCH   9  10
HETATM   10  C2  UNL     1      45.086   1.267   3.533  1.00  0.00     0.013 C 
HETATM   11  C1  UNL     1      45.887   0.451   4.563  1.00  0.00     0.012 C 
BRANCH  10  12
HETATM   12  C14 UNL     1      45.667   1.174   2.192  1.00  0.00     0.151 C 
BRANCH  12  13
HETATM   13  N3  UNL     1      46.456   2.315   1.752  1.00  0.00    -0.324 N 
HETATM   14  C15 UNL     1      47.872   2.187   1.704  1.00  0.00     0.284 C 
HETATM   15  O7  UNL     1      48.446   1.114   2.030  1.00  0.00    -0.630 OA
HETATM   16  O8  UNL     1      48.690   3.229   1.296  1.00  0.00    -0.630 OA
ATOM     17  H3  UNL     1      46.002   3.188   1.483  1.00  0.00     0.166 HD
ENDBRANCH  12  13
BRANCH  12  18
HETATM   18  C16 UNL     1      44.742   0.823   1.062  1.00  0.00     0.118 C 
HETATM   19  F2  UNL     1      43.950  -0.240   1.350  1.00  0.00    -0.211 F 
BRANCH  18  20
HETATM   20  C17 UNL     1      44.185   1.931   0.270  1.00  0.00     0.248 C 
BRANCH  20  21
HETATM   21  O9  UNL     1      44.927   2.345  -0.845  1.00  0.00    -0.300 OA
BRANCH  21  22
HETATM   22  C18 UNL     1      45.221   3.622  -1.174  1.00  0.00     0.373 C 
HETATM   23  N4  UNL     1      45.685   4.512  -0.162  1.00  0.00    -0.032 NA
HETATM   24  O10 UNL     1      45.111   4.085  -2.327  1.00  0.00    -0.242 OA
ENDBRANCH  21  22
ENDBRANCH  20  21
ENDBRANCH  18  20
ENDBRANCH  12  18
ENDBRANCH  10  12
ENDBRANCH   9  10
ENDBRANCH   8   9
ENDBRANCH   7   8
ENDBRANCH   1   7
BRANCH   6  25
HETATM   25  N2  UNL     1      43.296   5.039   8.234  1.00  0.00    -0.068 N 
ATOM     26  H23 UNL     1      43.800   4.192   8.495  1.00  0.00     0.275 HD
ATOM     27  H22 UNL     1      44.105   5.616   7.999  1.00  0.00     0.275 HD
ATOM     28  H21 UNL     1      42.751   5.425   9.005  1.00  0.00     0.275 HD
ENDBRANCH   6  25
BRANCH   3  29
HETATM   29  O3  UNL     1      40.950   1.142   7.066  1.00  0.00    -0.324 OA
BRANCH  29  30
HETATM   30  C7  UNL     1      41.016  -0.005   6.319  1.00  0.00     0.355 C 
HETATM   31  N1  UNL     1      42.022   0.038   5.281  1.00  0.00    -0.043 N 
HETATM   32  C8  UNL     1      42.619  -1.288   5.257  1.00  0.00     0.275 C 
ATOM     33  H12 UNL     1      41.662   0.341   4.375  1.00  0.00     0.280 HD
ATOM     34  H11 UNL     1      42.700   0.790   5.399  1.00  0.00     0.280 HD
HETATM   35  C9  UNL     1      42.568  -1.777   6.664  1.00  0.00     0.228 C 
HETATM   36  F1  UNL     1      42.533  -3.156   6.733  1.00  0.00    -0.245 F 
HETATM   37  C10 UNL     1      41.319  -1.169   7.218  1.00  0.00     0.210 C 
BRANCH  37  38
HETATM   38  O4  UNL     1      41.571  -0.808   8.540  1.00  0.00    -0.388 OA
ATOM     39  H4  UNL     1      42.490  -0.668   8.731  1.00  0.00     0.210 HD
ENDBRANCH  37  38
ENDBRANCH  29  30
ENDBRANCH   3  29
BRANCH   5  40
HETATM   40  O6  UNL     1      41.262   3.639   8.860  1.00  0.00    -0.391 OA
ATOM     41  H6  UNL     1      41.538   2.758   8.636  1.00  0.00     0.210 HD
ENDBRANCH   5  40
BRANCH   4  42
HETATM   42  O5  UNL     1      39.862   4.065   5.603  1.00  0.00    -0.388 OA
ATOM     43  H5  UNL     1      40.523   4.314   4.968  1.00  0.00     0.210 HD
ENDBRANCH   4  42
TORSDOF 16
ENDMDL
MODEL 2
REMARK VINA RESULT: -8.074598089      2.646      8.300
REMARK  16 active torsions:
REMARK  status: ('A' for Active; 'I' for Inactive)
REMARK    1  A    between atoms: C2_2  and  C3_3 
REMARK    2  A    between atoms: C2_2  and  C14_31 
REMARK    3  A    between atoms: C3_3  and  C4_4 
REMARK    4  A    between atoms: C4_4  and  O1_5 
REMARK    5  A    between atoms: O1_5  and  C5_6 
REMARK    6  A    between atoms: C6_8  and  O3_9 
REMARK    7  A    between atoms: O3_9  and  C7_10 
REMARK    8  A    between atoms: C10_17  and  O4_18 
REMARK    9  A    between atoms: C11_20  and  O5_21 
REMARK   10  A    between atoms: C12_23  and  O6_24 
REMARK   11  A    between atoms: C13_26  and  N2_27 
REMARK   12  A    between atoms: C14_31  and  N3_32 
REMARK   13  A    between atoms: C14_31  and  C16_37 
REMARK       I    between atoms: N3_32  and  C15_34 
REMARK   14  A    between atoms: C16_37  and  C17_39 
REMARK   15  A    between atoms: C17_39  and  O9_40 
REMARK   16  A    between atoms: O9_40  and  C18_41 
ROOT
HETATM    1  C5  UNL     1      45.477   3.027   2.300  1.00  0.00     0.295 C 
HETATM    2  O2  UNL     1      45.448   2.057   1.269  1.00  0.00    -0.327 OA
HETATM    3  C6  UNL     1      46.737   1.702   0.880  1.00  0.00     0.297 C 
HETATM    4  C11 UNL     1      47.598   2.874   0.570  1.00  0.00     0.204 C 
HETATM    5  C12 UNL     1      46.709   4.088   0.423  1.00  0.00     0.187 C 
HETATM    6  C13 UNL     1      45.825   4.328   1.623  1.00  0.00     0.269 C 
ENDROOT
BRANCH   1   7
HETATM    7  O1  UNL     1      44.253   2.992   2.878  1.00  0.00    -0.359 OA
BRANCH   7   8
HETATM    8  C4  UNL     1      43.747   1.778   3.276  1.00  0.00     0.171 C 
BRANCH   8   9
HETATM    9  C3  UNL     1      43.815   1.540   4.754  1.00  0.00     0.033 C 
BRANCH   9  10
HETATM   10  C2  UNL     1      42.840   2.210   5.603  1.00  0.00     0.013 C 
HETATM   11  C1  UNL     1      43.534   3.405   6.281  1.00  0.00     0.012 C 
BRANCH  10  12
HETATM   12  C14 UNL     1      41.927   1.520   6.516  1.00  0.00     0.151 C 
BRANCH  12  13
HETATM   13  N3  UNL     1      41.460   0.210   6.090  1.00  0.00    -0.324 N 
HETATM   14  C15 UNL     1      41.340  -0.822   7.063  1.00  0.00     0.284 C 
HETATM   15  O7  UNL     1      41.629  -0.620   8.273  1.00  0.00    -0.630 OA
HETATM   16  O8  UNL     1      40.902  -2.095   6.733  1.00  0.00    -0.630 OA
ATOM     17  H3  UNL     1      41.222   0.035   5.114  1.00  0.00     0.166 HD
ENDBRANCH  12  13
BRANCH  12  18
HETATM   18  C16 UNL     1      40.721   2.279   6.991  1.00  0.00     0.118 C 
HETATM   19  F2  UNL     1      40.874   2.766   8.248  1.00  0.00    -0.211 F 
BRANCH  18  20
HETATM   20  C17 UNL     1      39.993   3.087   6.000  1.00  0.00     0.248 C 
BRANCH  20  21
HETATM   21  O9  UNL     1      38.600   2.928   5.957  1.00  0.00    -0.300 OA
BRANCH  21  22
HETATM   22  C18 UNL     1      37.778   2.836   7.026  1.00  0.00     0.373 C 
HETATM   23  N4  UNL     1      37.035   1.637   7.230  1.00  0.00    -0.032 NA
HETATM   24  O10 UNL     1      37.623   3.747   7.863  1.00  0.00    -0.242 OA
ENDBRANCH  21  22
ENDBRANCH  20  21
ENDBRANCH  18  20
ENDBRANCH  12  18
ENDBRANCH  10  12
ENDBRANCH   9  10
ENDBRANCH   8   9
ENDBRANCH   7   8
ENDBRANCH   1   7
BRANCH   6  25
HETATM   25  N2  UNL     1      44.601   4.935   1.136  1.00  0.00    -0.068 N 
ATOM     26  H23 UNL     1      44.680   5.254   0.170  1.00  0.00     0.275 HD
ATOM     27  H22 UNL     1      43.854   4.254   0.997  1.00  0.00     0.275 HD
ATOM     28  H21 UNL     1      44.334   5.684   1.775  1.00  0.00     0.275 HD
ENDBRANCH   6  25
BRANCH   3  29
HETATM   29  O3  UNL     1      46.593   0.919  -0.264  1.00  0.00    -0.324 OA
BRANCH  29  30
HETATM   30  C7  UNL     1      45.310   0.482  -0.465  1.00  0.00     0.355 C 
HETATM   31  N1  UNL     1      44.521   1.365  -1.296  1.00  0.00    -0.043 N 
HETATM   32  C8  UNL     1      43.720   0.495  -2.143  1.00  0.00     0.275 C 
ATOM     33  H12 UNL     1      43.971   2.042  -0.768  1.00  0.00     0.280 HD
ATOM     34  H11 UNL     1      45.079   2.042  -1.817  1.00  0.00     0.280 HD
HETATM   35  C9  UNL     1      44.554  -0.718  -2.376  1.00  0.00     0.228 C 
HETATM   36  F1  UNL     1      43.783  -1.835  -2.633  1.00  0.00    -0.245 F 
HETATM   37  C10 UNL     1      45.338  -0.871  -1.113  1.00  0.00     0.210 C 
BRANCH  37  38
HETATM   38  O4  UNL     1      46.618  -1.304  -1.456  1.00  0.00    -0.388 OA
ATOM     39  H4  UNL     1      46.763  -2.230  -1.303  1.00  0.00     0.210 HD
ENDBRANCH  37  38
ENDBRANCH  29  30
ENDBRANCH   3  29
BRANCH   5  40
HETATM   40  O6  UNL     1      45.967   3.906  -0.752  1.00  0.00    -0.391 OA
ATOM     41  H6  UNL     1      45.267   3.298  -0.542  1.00  0.00     0.210 HD
ENDBRANCH   5  40
BRANCH   4  42
HETATM   42  O5  UNL     1      48.612   3.082   1.500  1.00  0.00    -0.388 OA
ATOM     43  H5  UNL     1      49.468   3.207   1.107  1.00  0.00     0.210 HD
ENDBRANCH   4  42
TORSDOF 16
ENDMDL
MODEL 3
REMARK VINA RESULT: -8.070843150      2.662      8.306
REMARK  16 active torsions:
REMARK  status: ('A' for Active; 'I' for Inactive)
REMARK    1  A    between atoms: C2_2  and  C3_3 
REMARK    2  A    between atoms: C2_2  and  C14_31 
REMARK    3  A    between atoms: C3_3  and  C4_4 
REMARK    4  A    between atoms: C4_4  and  O1_5 
REMARK    5  A    between atoms: O1_5  and  C5_6 
REMARK    6  A    between atoms: C6_8  and  O3_9 
REMARK    7  A    between atoms: O3_9  and  C7_10 
REMARK    8  A    between atoms: C10_17  and  O4_18 
REMARK    9  A    between atoms: C11_20  and  O5_21 
REMARK   10  A    between atoms: C12_23  and  O6_24 
REMARK   11  A    between atoms: C13_26  and  N2_27 
REMARK   12  A    between atoms: C14_31  and  N3_32 
REMARK   13  A    between atoms: C14_31  and  C16_37 
REMARK       I    between atoms: N3_32  and  C15_34 
REMARK   14  A    between atoms: C16_37  and  C17_39 
REMARK   15  A    between atoms: C17_39  and  O9_40 
REMARK   16  A    between atoms: O9_40  and  C18_41 
ROOT
HETATM    1  C5  UNL     1      45.511   2.994   2.308  1.00  0.00     0.295 C 
HETATM    2  O2  UNL     1      45.481   2.023   1.277  1.00  0.00    -0.327 OA
HETATM    3  C6  UNL     1      46.770   1.687   0.871  1.00  0.00     0.297 C 
HETATM    4  C11 UNL     1      47.610   2.870   0.550  1.00  0.00     0.204 C 
HETATM    5  C12 UNL     1      46.703   4.072   0.417  1.00  0.00     0.187 C 
HETATM    6  C13 UNL     1      45.832   4.299   1.628  1.00  0.00     0.269 C 
ENDROOT
BRANCH   1   7
HETATM    7  O1  UNL     1      44.296   2.942   2.903  1.00  0.00    -0.359 OA
BRANCH   7   8
HETATM    8  C4  UNL     1      44.180   2.296   4.111  1.00  0.00     0.171 C 
BRANCH   8   9
HETATM    9  C3  UNL     1      43.029   1.339   4.186  1.00  0.00     0.033 C 
BRANCH   9  10
HETATM   10  C2  UNL     1      42.711   0.748   5.479  1.00  0.00     0.013 C 
HETATM   11  C1  UNL     1      42.564  -0.772   5.289  1.00  0.00     0.012 C 
BRANCH  10  12
HETATM   12  C14 UNL     1      41.713   1.282   6.407  1.00  0.00     0.151 C 
BRANCH  12  13
HETATM   13  N3  UNL     1      42.022   2.566   7.017  1.00  0.00    -0.324 N 
HETATM   14  C15 UNL     1      41.277   3.710   6.614  1.00  0.00     0.284 C 
HETATM   15  O7  UNL     1      40.365   3.627   5.749  1.00  0.00    -0.630 OA
HETATM   16  O8  UNL     1      41.515   4.966   7.149  1.00  0.00    -0.630 OA
ATOM     17  H3  UNL     1      42.758   2.644   7.720  1.00  0.00     0.166 HD
ENDBRANCH  12  13
BRANCH  12  18
HETATM   18  C16 UNL     1      41.245   0.377   7.512  1.00  0.00     0.118 C 
HETATM   19  F2  UNL     1      42.239   0.056   8.378  1.00  0.00    -0.211 F 
BRANCH  18  20
HETATM   20  C17 UNL     1      39.887   0.592   8.037  1.00  0.00     0.248 C 
BRANCH  20  21
HETATM   21  O9  UNL     1      38.978   1.242   7.189  1.00  0.00    -0.300 OA
BRANCH  21  22
HETATM   22  C18 UNL     1      37.798   1.786   7.558  1.00  0.00     0.373 C 
HETATM   23  N4  UNL     1      37.771   3.123   8.050  1.00  0.00    -0.032 NA
HETATM   24  O10 UNL     1      36.707   1.185   7.495  1.00  0.00    -0.242 OA
ENDBRANCH  21  22
ENDBRANCH  20  21
ENDBRANCH  18  20
ENDBRANCH  12  18
ENDBRANCH  10  12
ENDBRANCH   9  10
ENDBRANCH   8   9
ENDBRANCH   7   8
ENDBRANCH   1   7
BRANCH   6  25
HETATM   25  N2  UNL     1      44.594   4.891   1.158  1.00  0.00    -0.068 N 
ATOM     26  H23 UNL     1      44.709   5.390   0.276  1.00  0.00     0.275 HD
ATOM     27  H22 UNL     1      43.924   4.192   0.837  1.00  0.00     0.275 HD
ATOM     28  H21 UNL     1      44.217   5.484   1.897  1.00  0.00     0.275 HD
ENDBRANCH   6  25
BRANCH   3  29
HETATM   29  O3  UNL     1      46.620   0.902  -0.272  1.00  0.00    -0.324 OA
BRANCH  29  30
HETATM   30  C7  UNL     1      45.333   0.481  -0.476  1.00  0.00     0.355 C 
HETATM   31  N1  UNL     1      44.561   1.366  -1.321  1.00  0.00    -0.043 N 
HETATM   32  C8  UNL     1      43.753   0.499  -2.165  1.00  0.00     0.275 C 
ATOM     33  H12 UNL     1      44.016   2.055  -0.803  1.00  0.00     0.280 HD
ATOM     34  H11 UNL     1      45.131   2.030  -1.845  1.00  0.00     0.280 HD
HETATM   35  C9  UNL     1      44.572  -0.728  -2.381  1.00  0.00     0.228 C 
HETATM   36  F1  UNL     1      43.789  -1.837  -2.632  1.00  0.00    -0.245 F 
HETATM   37  C10 UNL     1      45.347  -0.879  -1.112  1.00  0.00     0.210 C 
BRANCH  37  38
HETATM   38  O4  UNL     1      46.623  -1.332  -1.442  1.00  0.00    -0.388 OA
ATOM     39  H4  UNL     1      46.663  -1.792  -2.273  1.00  0.00     0.210 HD
ENDBRANCH  37  38
ENDBRANCH  29  30
ENDBRANCH   3  29
BRANCH   5  40
HETATM   40  O6  UNL     1      45.948   3.881  -0.749  1.00  0.00    -0.391 OA
ATOM     41  H6  UNL     1      45.094   4.266  -0.588  1.00  0.00     0.210 HD
ENDBRANCH   5  40
BRANCH   4  42
HETATM   42  O5  UNL     1      48.634   3.091   1.466  1.00  0.00    -0.388 OA
ATOM     43  H5  UNL     1      49.479   2.771   1.175  1.00  0.00     0.210 HD
ENDBRANCH   4  42
TORSDOF 16
ENDMDL
MODEL 4
REMARK VINA RESULT: -8.011905498      3.000      8.514
REMARK  16 active torsions:
REMARK  status: ('A' for Active; 'I' for Inactive)
REMARK    1  A    between atoms: C2_2  and  C3_3 
REMARK    2  A    between atoms: C2_2  and  C14_31 
REMARK    3  A    between atoms: C3_3  and  C4_4 
REMARK    4  A    between atoms: C4_4  and  O1_5 
REMARK    5  A    between atoms: O1_5  and  C5_6 
REMARK    6  A    between atoms: C6_8  and  O3_9 
REMARK    7  A    between atoms: O3_9  and  C7_10 
REMARK    8  A    between atoms: C10_17  and  O4_18 
REMARK    9  A    between atoms: C11_20  and  O5_21 
REMARK   10  A    between atoms: C12_23  and  O6_24 
REMARK   11  A    between atoms: C13_26  and  N2_27 
REMARK   12  A    between atoms: C14_31  and  N3_32 
REMARK   13  A    between atoms: C14_31  and  C16_37 
REMARK       I    between atoms: N3_32  and  C15_34 
REMARK   14  A    between atoms: C16_37  and  C17_39 
REMARK   15  A    between atoms: C17_39  and  O9_40 
REMARK   16  A    between atoms: O9_40  and  C18_41 
ROOT
HETATM    1  C5  UNL     1      45.465   3.035   2.251  1.00  0.00     0.295 C 
HETATM    2  O2  UNL     1      45.449   2.106   1.182  1.00  0.00    -0.327 OA
HETATM    3  C6  UNL     1      46.744   1.758   0.805  1.00  0.00     0.297 C 
HETATM    4  C11 UNL     1      47.618   2.935   0.558  1.00  0.00     0.204 C 
HETATM    5  C12 UNL     1      46.740   4.161   0.443  1.00  0.00     0.187 C 
HETATM    6  C13 UNL     1      45.834   4.359   1.634  1.00  0.00     0.269 C 
ENDROOT
BRANCH   1   7
HETATM    7  O1  UNL     1      44.230   2.986   2.804  1.00  0.00    -0.359 OA
BRANCH   7   8
HETATM    8  C4  UNL     1      44.042   2.220   3.930  1.00  0.00     0.171 C 
BRANCH   8   9
HETATM    9  C3  UNL     1      44.060   2.997   5.211  1.00  0.00     0.033 C 
BRANCH   9  10
HETATM   10  C2  UNL     1      43.033   2.710   6.203  1.00  0.00     0.013 C 
HETATM   11  C1  UNL     1      41.931   1.876   5.526  1.00  0.00     0.012 C 
BRANCH  10  12
HETATM   12  C14 UNL     1      42.477   3.701   7.127  1.00  0.00     0.151 C 
BRANCH  12  13
HETATM   13  N3  UNL     1      41.154   4.212   6.803  1.00  0.00    -0.324 N 
HETATM   14  C15 UNL     1      40.104   4.036   7.747  1.00  0.00     0.284 C 
HETATM   15  O7  UNL     1      40.302   3.452   8.847  1.00  0.00    -0.630 OA
HETATM   16  O8  UNL     1      38.819   4.495   7.510  1.00  0.00    -0.630 OA
ATOM     17  H3  UNL     1      40.983   4.688   5.917  1.00  0.00     0.166 HD
ENDBRANCH  12  13
BRANCH  12  18
HETATM   18  C16 UNL     1      43.333   4.890   7.460  1.00  0.00     0.118 C 
HETATM   19  F2  UNL     1      42.775   6.061   7.062  1.00  0.00    -0.211 F 
BRANCH  18  20
HETATM   20  C17 UNL     1      44.083   4.854   8.726  1.00  0.00     0.248 C 
BRANCH  20  21
HETATM   21  O9  UNL     1      45.465   4.633   8.635  1.00  0.00    -0.300 OA
BRANCH  21  22
HETATM   22  C18 UNL     1      46.395   5.051   9.520  1.00  0.00     0.373 C 
HETATM   23  N4  UNL     1      47.499   5.825   9.056  1.00  0.00    -0.032 NA
HETATM   24  O10 UNL     1      46.354   4.801  10.741  1.00  0.00    -0.242 OA
ENDBRANCH  21  22
ENDBRANCH  20  21
ENDBRANCH  18  20
ENDBRANCH  12  18
ENDBRANCH  10  12
ENDBRANCH   9  10
ENDBRANCH   8   9
ENDBRANCH   7   8
ENDBRANCH   1   7
BRANCH   6  25
HETATM   25  N2  UNL     1      44.625   4.994   1.148  1.00  0.00    -0.068 N 
ATOM     26  H23 UNL     1      43.963   4.326   0.753  1.00  0.00     0.275 HD
ATOM     27  H22 UNL     1      44.035   5.343   1.905  1.00  0.00     0.275 HD
ATOM     28  H21 UNL     1      44.886   5.726   0.487  1.00  0.00     0.275 HD
ENDBRANCH   6  25
BRANCH   3  29
HETATM   29  O3  UNL     1      46.616   1.022  -0.373  1.00  0.00    -0.324 OA
BRANCH  29  30
HETATM   30  C7  UNL     1      45.334   0.606  -0.617  1.00  0.00     0.355 C 
HETATM   31  N1  UNL     1      44.596   1.488  -1.495  1.00  0.00    -0.043 N 
HETATM   32  C8  UNL     1      43.812   0.618  -2.358  1.00  0.00     0.275 C 
ATOM     33  H12 UNL     1      44.038   2.185  -1.000  1.00  0.00     0.280 HD
ATOM     34  H11 UNL     1      45.187   2.145  -2.004  1.00  0.00     0.280 HD
HETATM   35  C9  UNL     1      44.631  -0.615  -2.536  1.00  0.00     0.228 C 
HETATM   36  F1  UNL     1      43.849  -1.722  -2.803  1.00  0.00    -0.245 F 
HETATM   37  C10 UNL     1      45.362  -0.759  -1.240  1.00  0.00     0.210 C 
BRANCH  37  38
HETATM   38  O4  UNL     1      46.645  -1.222  -1.523  1.00  0.00    -0.388 OA
ATOM     39  H4  UNL     1      47.010  -1.781  -0.847  1.00  0.00     0.210 HD
ENDBRANCH  37  38
ENDBRANCH  29  30
ENDBRANCH   3  29
BRANCH   5  40
HETATM   40  O6  UNL     1      46.020   4.031  -0.753  1.00  0.00    -0.391 OA
ATOM     41  H6  UNL     1      45.099   4.060  -0.522  1.00  0.00     0.210 HD
ENDBRANCH   5  40
BRANCH   4  42
HETATM   42  O5  UNL     1      48.615   3.098   1.515  1.00  0.00    -0.388 OA
ATOM     43  H5  UNL     1      49.448   2.717   1.264  1.00  0.00     0.210 HD
ENDBRANCH   4  42
TORSDOF 16
ENDMDL
MODEL 5
REMARK VINA RESULT: -7.973457358      2.757      8.209
REMARK  16 active torsions:
REMARK  status: ('A' for Active; 'I' for Inactive)
REMARK    1  A    between atoms: C2_2  and  C3_3 
REMARK    2  A    between atoms: C2_2  and  C14_31 
REMARK    3  A    between atoms: C3_3  and  C4_4 
REMARK    4  A    between atoms: C4_4  and  O1_5 
REMARK    5  A    between atoms: O1_5  and  C5_6 
REMARK    6  A    between atoms: C6_8  and  O3_9 
REMARK    7  A    between atoms: O3_9  and  C7_10 
REMARK    8  A    between atoms: C10_17  and  O4_18 
REMARK    9  A    between atoms: C11_20  and  O5_21 
REMARK   10  A    between atoms: C12_23  and  O6_24 
REMARK   11  A    between atoms: C13_26  and  N2_27 
REMARK   12  A    between atoms: C14_31  and  N3_32 
REMARK   13  A    between atoms: C14_31  and  C16_37 
REMARK       I    between atoms: N3_32  and  C15_34 
REMARK   14  A    between atoms: C16_37  and  C17_39 
REMARK   15  A    between atoms: C17_39  and  O9_40 
REMARK   16  A    between atoms: O9_40  and  C18_41 
ROOT
HETATM    1  C5  UNL     1      45.541   3.004   2.257  1.00  0.00     0.295 C 
HETATM    2  O2  UNL     1      45.500   2.039   1.222  1.00  0.00    -0.327 OA
HETATM    3  C6  UNL     1      46.785   1.689   0.815  1.00  0.00     0.297 C 
HETATM    4  C11 UNL     1      47.639   2.864   0.500  1.00  0.00     0.204 C 
HETATM    5  C12 UNL     1      46.746   4.077   0.371  1.00  0.00     0.187 C 
HETATM    6  C13 UNL     1      45.877   4.309   1.582  1.00  0.00     0.269 C 
ENDROOT
BRANCH   1   7
HETATM    7  O1  UNL     1      44.324   2.964   2.851  1.00  0.00    -0.359 OA
BRANCH   7   8
HETATM    8  C4  UNL     1      44.244   2.558   4.161  1.00  0.00     0.171 C 
BRANCH   8   9
HETATM    9  C3  UNL     1      43.078   1.664   4.456  1.00  0.00     0.033 C 
BRANCH   9  10
HETATM   10  C2  UNL     1      42.584   1.608   5.825  1.00  0.00     0.013 C 
HETATM   11  C1  UNL     1      41.736   0.333   5.978  1.00  0.00     0.012 C 
BRANCH  10  12
HETATM   12  C14 UNL     1      41.996   2.744   6.537  1.00  0.00     0.151 C 
BRANCH  12  13
HETATM   13  N3  UNL     1      42.652   3.138   7.774  1.00  0.00    -0.324 N 
HETATM   14  C15 UNL     1      43.519   4.266   7.757  1.00  0.00     0.284 C 
HETATM   15  O7  UNL     1      43.723   4.921   6.701  1.00  0.00    -0.630 OA
HETATM   16  O8  UNL     1      44.180   4.701   8.895  1.00  0.00    -0.630 OA
ATOM     17  H3  UNL     1      42.493   2.616   8.636  1.00  0.00     0.166 HD
ENDBRANCH  12  13
BRANCH  12  18
HETATM   18  C16 UNL     1      40.522   2.689   6.825  1.00  0.00     0.118 C 
HETATM   19  F2  UNL     1      40.254   2.612   8.152  1.00  0.00    -0.211 F 
BRANCH  18  20
HETATM   20  C17 UNL     1      39.632   3.486   5.965  1.00  0.00     0.248 C 
BRANCH  20  21
HETATM   21  O9  UNL     1      38.322   3.011   5.802  1.00  0.00    -0.300 OA
BRANCH  21  22
HETATM   22  C18 UNL     1      37.384   2.921   6.770  1.00  0.00     0.373 C 
HETATM   23  N4  UNL     1      36.338   1.963   6.638  1.00  0.00    -0.032 NA
HETATM   24  O10 UNL     1      37.371   3.635   7.793  1.00  0.00    -0.242 OA
ENDBRANCH  21  22
ENDBRANCH  20  21
ENDBRANCH  18  20
ENDBRANCH  12  18
ENDBRANCH  10  12
ENDBRANCH   9  10
ENDBRANCH   8   9
ENDBRANCH   7   8
ENDBRANCH   1   7
BRANCH   6  25
HETATM   25  N2  UNL     1      44.646   4.917   1.114  1.00  0.00    -0.068 N 
ATOM     26  H23 UNL     1      43.827   4.582   1.621  1.00  0.00     0.275 HD
ATOM     27  H22 UNL     1      44.575   5.902   1.369  1.00  0.00     0.275 HD
ATOM     28  H21 UNL     1      44.573   4.767   0.108  1.00  0.00     0.275 HD
ENDBRANCH   6  25
BRANCH   3  29
HETATM   29  O3  UNL     1      46.627   0.911  -0.331  1.00  0.00    -0.324 OA
BRANCH  29  30
HETATM   30  C7  UNL     1      45.336   0.499  -0.534  1.00  0.00     0.355 C 
HETATM   31  N1  UNL     1      44.576   1.379  -1.395  1.00  0.00    -0.043 N 
HETATM   32  C8  UNL     1      43.763   0.508  -2.229  1.00  0.00     0.275 C 
ATOM     33  H12 UNL     1      44.036   2.081  -0.888  1.00  0.00     0.280 HD
ATOM     34  H11 UNL     1      45.154   2.031  -1.926  1.00  0.00     0.280 HD
HETATM   35  C9  UNL     1      44.571  -0.729  -2.424  1.00  0.00     0.228 C 
HETATM   36  F1  UNL     1      43.777  -1.834  -2.662  1.00  0.00    -0.245 F 
HETATM   37  C10 UNL     1      45.340  -0.870  -1.150  1.00  0.00     0.210 C 
BRANCH  37  38
HETATM   38  O4  UNL     1      46.612  -1.340  -1.470  1.00  0.00    -0.388 OA
ATOM     39  H4  UNL     1      46.665  -1.755  -2.322  1.00  0.00     0.210 HD
ENDBRANCH  37  38
ENDBRANCH  29  30
ENDBRANCH   3  29
BRANCH   5  40
HETATM   40  O6  UNL     1      45.989   3.899  -0.796  1.00  0.00    -0.391 OA
ATOM     41  H6  UNL     1      45.275   3.314  -0.572  1.00  0.00     0.210 HD
ENDBRANCH   5  40
BRANCH   4  42
HETATM   42  O5  UNL     1      48.665   3.069   1.417  1.00  0.00    -0.388 OA
ATOM     43  H5  UNL     1      48.438   3.675   2.112  1.00  0.00     0.210 HD
ENDBRANCH   4  42
TORSDOF 16
ENDMDL
