MODEL 1
REMARK VINA RESULT: -8.811022170      0.000      0.000
REMARK  17 active torsions:
REMARK  status: ('A' for Active; 'I' for Inactive)
REMARK    1  A    between atoms: C2_7  and  C3_8 
REMARK    2  A    between atoms: C3_8  and  N5_12 
REMARK       I    between atoms: N5_12  and  C4_14 
REMARK       I    between atoms: C4_14  and  N7_18 
REMARK    3  A    between atoms: N7_18  and  C5_20 
REMARK    4  A    between atoms: C5_20  and  C6_21 
REMARK    5  A    between atoms: C6_21  and  N8_22 
REMARK    6  A    between atoms: N8_22  and  C7_25 
REMARK    7  A    between atoms: C7_25  and  C8_26 
REMARK    8  A    between atoms: C8_26  and  C9_27 
REMARK    9  A    between atoms: C9_27  and  N9_28 
REMARK   10  A    between atoms: N9_28  and  C10_31 
REMARK   11  A    between atoms: C10_31  and  C11_32 
REMARK   12  A    between atoms: C12_33  and  O1_34 
REMARK   13  A    between atoms: C13_36  and  N10_37 
REMARK   14  A    between atoms: C14_41  and  O2_42 
REMARK   15  A    between atoms: C15_44  and  O3_45 
REMARK   16  A    between atoms: C16_47  and  C17_48 
REMARK   17  A    between atoms: C17_48  and  C18_49 
ROOT
HETATM    1  C7  UNL     1      43.055  -1.042   5.496  1.00  0.00     0.234 C 
ENDROOT
BRANCH   1   2
HETATM    2  N8  UNL     1      42.350  -0.098   6.320  1.00  0.00    -0.074 N 
ATOM      3  H82 UNL     1      42.887   0.122   7.159  1.00  0.00     0.277 HD
ATOM      4  H81 UNL     1      41.534  -0.533   6.750  1.00  0.00     0.277 HD
BRANCH   2   5
HETATM    5  C6  UNL     1      41.983   1.097   5.624  1.00  0.00     0.252 C 
BRANCH   5   6
HETATM    6  C5  UNL     1      42.386   2.372   6.359  1.00  0.00     0.165 C 
BRANCH   6   7
HETATM    7  N7  UNL     1      41.234   2.878   7.072  1.00  0.00    -0.225 N 
HETATM    8  C4  UNL     1      41.177   4.264   7.359  1.00  0.00     0.673 C 
HETATM    9  N5  UNL     1      39.900   4.888   7.587  1.00  0.00    -0.174 N 
HETATM   10  N6  UNL     1      42.242   4.975   7.422  1.00  0.00    -0.235 N 
ATOM     11  H5  UNL     1      39.627   5.748   7.113  1.00  0.00     0.186 HD
ATOM     12  H62 UNL     1      42.201   5.972   7.629  1.00  0.00     0.174 HD
ATOM     13  H61 UNL     1      43.146   4.533   7.261  1.00  0.00     0.174 HD
ATOM     14  H7  UNL     1      40.481   2.253   7.360  1.00  0.00     0.177 HD
BRANCH   9  15
HETATM   15  C3  UNL     1      39.049   4.236   8.507  1.00  0.00     0.162 C 
HETATM   16  N4  UNL     1      39.111   4.540   9.749  1.00  0.00    -0.382 N 
ATOM     17  H42 UNL     1      38.496   4.070  10.413  1.00  0.00     0.157 HD
ATOM     18  H41 UNL     1      39.767   5.244  10.088  1.00  0.00     0.157 HD
BRANCH  15  19
HETATM   19  C2  UNL     1      38.120   3.238   8.027  1.00  0.00     0.182 A 
HETATM   20  N3  UNL     1      38.015   1.950   8.407  1.00  0.00    -0.265 N 
HETATM   21  N2  UNL     1      37.022   1.388   7.704  1.00  0.00    -0.225 N 
ATOM     22  H3  UNL     1      38.591   1.483   9.108  1.00  0.00     0.190 HD
HETATM   23  N1  UNL     1      36.520   2.291   6.907  1.00  0.00    -0.223 N 
ATOM     24  H2  UNL     1      36.713   0.419   7.778  1.00  0.00     0.210 HD
HETATM   25  C1  UNL     1      35.421   2.057   5.984  1.00  0.00     0.202 C 
HETATM   26  N11 UNL     1      37.162   3.429   7.077  1.00  0.00    -0.264 N 
ATOM     27  H11 UNL     1      36.975   4.302   6.583  1.00  0.00     0.190 HD
ENDBRANCH  15  19
ENDBRANCH   9  15
ENDBRANCH   6   7
ENDBRANCH   5   6
ENDBRANCH   2   5
ENDBRANCH   1   2
BRANCH   1  28
HETATM   28  C8  UNL     1      43.435  -0.488   4.143  1.00  0.00     0.055 C 
BRANCH  28  29
HETATM   29  C9  UNL     1      44.913  -0.450   3.939  1.00  0.00     0.233 C 
BRANCH  29  30
HETATM   30  N9  UNL     1      45.533   0.806   4.291  1.00  0.00    -0.075 N 
ATOM     31  H92 UNL     1      44.836   1.530   4.464  1.00  0.00     0.277 HD
ATOM     32  H91 UNL     1      45.954   0.766   5.219  1.00  0.00     0.277 HD
BRANCH  30  33
HETATM   33  C10 UNL     1      46.480   1.220   3.309  1.00  0.00     0.239 C 
BRANCH  33  34
HETATM   34  C11 UNL     1      45.874   1.767   2.036  1.00  0.00     0.049 C 
HETATM   35  C12 UNL     1      45.470   3.180   2.267  1.00  0.00     0.157 C 
HETATM   36  C13 UNL     1      44.961   3.694   0.908  1.00  0.00     0.243 C 
HETATM   37  C14 UNL     1      46.214   3.914   0.095  1.00  0.00     0.180 C 
HETATM   38  C15 UNL     1      47.155   2.772   0.107  1.00  0.00     0.153 C 
HETATM   39  C16 UNL     1      46.736   1.556   0.833  1.00  0.00     0.030 C 
BRANCH  35  40
HETATM   40  O1  UNL     1      44.402   3.164   3.189  1.00  0.00    -0.393 OA
ATOM     41  H1  UNL     1      44.582   2.472   3.815  1.00  0.00     0.210 HD
ENDBRANCH  35  40
BRANCH  36  42
HETATM   42  N10 UNL     1      44.350   5.005   1.127  1.00  0.00    -0.070 N 
ATOM     43 3H10 UNL     1      43.344   4.951   1.289  1.00  0.00     0.274 HD
ATOM     44 2H10 UNL     1      44.609   5.418   2.023  1.00  0.00     0.274 HD
ATOM     45 1H10 UNL     1      44.592   5.598   0.333  1.00  0.00     0.274 HD
ENDBRANCH  36  42
BRANCH  37  46
HETATM   46  O2  UNL     1      45.808   4.293  -1.187  1.00  0.00    -0.391 OA
ATOM     47  H2  UNL     1      45.716   5.238  -1.181  1.00  0.00     0.210 HD
ENDBRANCH  37  46
BRANCH  38  48
HETATM   48  O3  UNL     1      48.395   3.217   0.609  1.00  0.00    -0.393 OA
ATOM     49  H3  UNL     1      49.088   2.847   0.074  1.00  0.00     0.210 HD
ENDBRANCH  38  48
BRANCH  39  50
HETATM   50  C17 UNL     1      46.059   0.572  -0.099  1.00  0.00     0.079 C 
BRANCH  50  51
HETATM   51  C18 UNL     1      44.714   0.128   0.384  1.00  0.00     0.353 C 
HETATM   52  F1  UNL     1      43.767   0.821  -0.385  1.00  0.00    -0.214 F 
HETATM   53  F2  UNL     1      44.565  -1.205   0.034  1.00  0.00    -0.214 F 
ENDBRANCH  50  51
ENDBRANCH  39  50
ENDBRANCH  33  34
ENDBRANCH  30  33
ENDBRANCH  29  30
ENDBRANCH  28  29
ENDBRANCH   1  28
TORSDOF 17
ENDMDL
MODEL 2
REMARK VINA RESULT: -8.790018672      2.046      2.650
REMARK  17 active torsions:
REMARK  status: ('A' for Active; 'I' for Inactive)
REMARK    1  A    between atoms: C2_7  and  C3_8 
REMARK    2  A    between atoms: C3_8  and  N5_12 
REMARK       I    between atoms: N5_12  and  C4_14 
REMARK       I    between atoms: C4_14  and  N7_18 
REMARK    3  A    between atoms: N7_18  and  C5_20 
REMARK    4  A    between atoms: C5_20  and  C6_21 
REMARK    5  A    between atoms: C6_21  and  N8_22 
REMARK    6  A    between atoms: N8_22  and  C7_25 
REMARK    7  A    between atoms: C7_25  and  C8_26 
REMARK    8  A    between atoms: C8_26  and  C9_27 
REMARK    9  A    between atoms: C9_27  and  N9_28 
REMARK   10  A    between atoms: N9_28  and  C10_31 
REMARK   11  A    between atoms: C10_31  and  C11_32 
REMARK   12  A    between atoms: C12_33  and  O1_34 
REMARK   13  A    between atoms: C13_36  and  N10_37 
REMARK   14  A    between atoms: C14_41  and  O2_42 
REMARK   15  A    between atoms: C15_44  and  O3_45 
REMARK   16  A    between atoms: C16_47  and  C17_48 
REMARK   17  A    between atoms: C17_48  and  C18_49 
ROOT
HETATM    1  C7  UNL     1      42.688  -2.234   5.473  1.00  0.00     0.234 C 
ENDROOT
BRANCH   1   2
HETATM    2  N8  UNL     1      41.814  -1.699   6.481  1.00  0.00    -0.074 N 
ATOM      3  H82 UNL     1      42.159  -1.922   7.415  1.00  0.00     0.277 HD
ATOM      4  H81 UNL     1      40.930  -2.208   6.502  1.00  0.00     0.277 HD
BRANCH   2   5
HETATM    5  C6  UNL     1      41.588  -0.292   6.346  1.00  0.00     0.252 C 
BRANCH   5   6
HETATM    6  C5  UNL     1      41.969   0.503   7.591  1.00  0.00     0.165 C 
BRANCH   6   7
HETATM    7  N7  UNL     1      40.949   1.499   7.834  1.00  0.00    -0.225 N 
HETATM    8  C4  UNL     1      41.315   2.866   7.770  1.00  0.00     0.673 C 
HETATM    9  N5  UNL     1      40.306   3.856   7.500  1.00  0.00    -0.174 N 
HETATM   10  N6  UNL     1      42.528   3.239   7.947  1.00  0.00    -0.235 N 
ATOM     11  H5  UNL     1      40.430   4.572   6.785  1.00  0.00     0.186 HD
ATOM     12  H62 UNL     1      42.791   4.223   7.900  1.00  0.00     0.174 HD
ATOM     13  H61 UNL     1      43.243   2.537   8.139  1.00  0.00     0.174 HD
ATOM     14  H7  UNL     1      39.990   1.224   8.048  1.00  0.00     0.177 HD
BRANCH   9  15
HETATM   15  C3  UNL     1      39.134   3.775   8.285  1.00  0.00     0.162 C 
HETATM   16  N4  UNL     1      39.059   4.440   9.376  1.00  0.00    -0.382 N 
ATOM     17  H42 UNL     1      38.212   4.383   9.942  1.00  0.00     0.157 HD
ATOM     18  H41 UNL     1      39.831   5.029   9.690  1.00  0.00     0.157 HD
BRANCH  15  19
HETATM   19  C2  UNL     1      38.040   2.942   7.840  1.00  0.00     0.182 A 
HETATM   20  N3  UNL     1      37.675   1.732   8.306  1.00  0.00    -0.265 N 
HETATM   21  N2  UNL     1      36.610   1.320   7.604  1.00  0.00    -0.225 N 
ATOM     22  H3  UNL     1      38.129   1.219   9.062  1.00  0.00     0.190 HD
HETATM   23  N1  UNL     1      36.315   2.239   6.725  1.00  0.00    -0.223 N 
ATOM     24  H2  UNL     1      36.114   0.438   7.735  1.00  0.00     0.210 HD
HETATM   25  C1  UNL     1      35.217   2.150   5.777  1.00  0.00     0.202 C 
HETATM   26  N11 UNL     1      37.164   3.240   6.839  1.00  0.00    -0.264 N 
ATOM     27  H11 UNL     1      37.165   4.091   6.277  1.00  0.00     0.190 HD
ENDBRANCH  15  19
ENDBRANCH   9  15
ENDBRANCH   6   7
ENDBRANCH   5   6
ENDBRANCH   2   5
ENDBRANCH   1   2
BRANCH   1  28
HETATM   28  C8  UNL     1      43.066  -1.225   4.413  1.00  0.00     0.055 C 
BRANCH  28  29
HETATM   29  C9  UNL     1      43.996  -1.794   3.393  1.00  0.00     0.233 C 
BRANCH  29  30
HETATM   30  N9  UNL     1      45.116  -0.943   3.065  1.00  0.00    -0.075 N 
ATOM     31  H92 UNL     1      45.545  -0.552   3.905  1.00  0.00     0.277 HD
ATOM     32  H91 UNL     1      45.908  -1.487   2.721  1.00  0.00     0.277 HD
BRANCH  30  33
HETATM   33  C10 UNL     1      44.749   0.080   2.144  1.00  0.00     0.239 C 
BRANCH  33  34
HETATM   34  C11 UNL     1      45.464   1.397   2.342  1.00  0.00     0.049 C 
HETATM   35  C12 UNL     1      46.502   1.542   1.286  1.00  0.00     0.157 C 
HETATM   36  C13 UNL     1      47.111   2.941   1.491  1.00  0.00     0.243 C 
HETATM   37  C14 UNL     1      46.066   3.889   0.955  1.00  0.00     0.180 C 
HETATM   38  C15 UNL     1      44.698   3.636   1.462  1.00  0.00     0.153 C 
HETATM   39  C16 UNL     1      44.534   2.562   2.462  1.00  0.00     0.030 C 
BRANCH  35  40
HETATM   40  O1  UNL     1      47.489   0.563   1.533  1.00  0.00    -0.393 OA
ATOM     41  H1  UNL     1      48.101   0.933   2.158  1.00  0.00     0.210 HD
ENDBRANCH  35  40
BRANCH  36  42
HETATM   42  N10 UNL     1      48.283   3.049   0.620  1.00  0.00    -0.070 N 
ATOM     43 3H10 UNL     1      48.138   2.620  -0.293  1.00  0.00     0.274 HD
ATOM     44 2H10 UNL     1      48.449   4.002   0.297  1.00  0.00     0.274 HD
ATOM     45 1H10 UNL     1      49.079   2.656   1.122  1.00  0.00     0.274 HD
ENDBRANCH  36  42
BRANCH  37  46
HETATM   46  O2  UNL     1      46.525   5.185   1.201  1.00  0.00    -0.391 OA
ATOM     47  H2  UNL     1      47.147   5.128   1.917  1.00  0.00     0.210 HD
ENDBRANCH  37  46
BRANCH  38  48
HETATM   48  O3  UNL     1      43.850   3.392   0.363  1.00  0.00    -0.393 OA
ATOM     49  H3  UNL     1      43.078   2.933   0.673  1.00  0.00     0.210 HD
ENDBRANCH  38  48
BRANCH  39  50
HETATM   50  C17 UNL     1      44.607   3.114   3.870  1.00  0.00     0.079 C 
BRANCH  50  51
HETATM   51  C18 UNL     1      43.688   2.420   4.827  1.00  0.00     0.353 C 
HETATM   52  F1  UNL     1      42.648   1.878   4.057  1.00  0.00    -0.214 F 
HETATM   53  F2  UNL     1      44.370   1.328   5.341  1.00  0.00    -0.214 F 
ENDBRANCH  50  51
ENDBRANCH  39  50
ENDBRANCH  33  34
ENDBRANCH  30  33
ENDBRANCH  29  30
ENDBRANCH  28  29
ENDBRANCH   1  28
TORSDOF 17
ENDMDL
MODEL 3
REMARK VINA RESULT: -8.699564238      2.093      2.745
REMARK  17 active torsions:
REMARK  status: ('A' for Active; 'I' for Inactive)
REMARK    1  A    between atoms: C2_7  and  C3_8 
REMARK    2  A    between atoms: C3_8  and  N5_12 
REMARK       I    between atoms: N5_12  and  C4_14 
REMARK       I    between atoms: C4_14  and  N7_18 
REMARK    3  A    between atoms: N7_18  and  C5_20 
REMARK    4  A    between atoms: C5_20  and  C6_21 
REMARK    5  A    between atoms: C6_21  and  N8_22 
REMARK    6  A    between atoms: N8_22  and  C7_25 
REMARK    7  A    between atoms: C7_25  and  C8_26 
REMARK    8  A    between atoms: C8_26  and  C9_27 
REMARK    9  A    between atoms: C9_27  and  N9_28 
REMARK   10  A    between atoms: N9_28  and  C10_31 
REMARK   11  A    between atoms: C10_31  and  C11_32 
REMARK   12  A    between atoms: C12_33  and  O1_34 
REMARK   13  A    between atoms: C13_36  and  N10_37 
REMARK   14  A    between atoms: C14_41  and  O2_42 
REMARK   15  A    between atoms: C15_44  and  O3_45 
REMARK   16  A    between atoms: C16_47  and  C17_48 
REMARK   17  A    between atoms: C17_48  and  C18_49 
ROOT
HETATM    1  C7  UNL     1      42.534  -1.707   5.519  1.00  0.00     0.234 C 
ENDROOT
BRANCH   1   2
HETATM    2  N8  UNL     1      41.925  -0.885   6.528  1.00  0.00    -0.074 N 
ATOM      3  H82 UNL     1      42.491  -0.874   7.377  1.00  0.00     0.277 HD
ATOM      4  H81 UNL     1      41.081  -1.326   6.894  1.00  0.00     0.277 HD
BRANCH   2   5
HETATM    5  C6  UNL     1      41.651   0.448   6.084  1.00  0.00     0.252 C 
BRANCH   5   6
HETATM    6  C5  UNL     1      42.192   1.521   7.023  1.00  0.00     0.165 C 
BRANCH   6   7
HETATM    7  N7  UNL     1      41.080   2.285   7.543  1.00  0.00    -0.225 N 
HETATM    8  C4  UNL     1      41.266   3.669   7.778  1.00  0.00     0.673 C 
HETATM    9  N5  UNL     1      40.123   4.544   7.797  1.00  0.00    -0.174 N 
HETATM   10  N6  UNL     1      42.433   4.159   7.975  1.00  0.00    -0.235 N 
ATOM     11  H5  UNL     1      40.098   5.412   7.262  1.00  0.00     0.186 HD
ATOM     12  H62 UNL     1      42.568   5.156   8.144  1.00  0.00     0.174 HD
ATOM     13  H61 UNL     1      43.243   3.540   7.962  1.00  0.00     0.174 HD
ATOM     14  H7  UNL     1      40.183   1.838   7.736  1.00  0.00     0.177 HD
BRANCH   9  15
HETATM   15  C3  UNL     1      39.039   4.127   8.601  1.00  0.00     0.162 C 
HETATM   16  N4  UNL     1      38.917   4.593   9.786  1.00  0.00    -0.382 N 
ATOM     17  H42 UNL     1      38.134   4.293  10.366  1.00  0.00     0.157 HD
ATOM     18  H41 UNL     1      39.591   5.261  10.163  1.00  0.00     0.157 HD
BRANCH  15  19
HETATM   19  C2  UNL     1      38.084   3.182   8.066  1.00  0.00     0.182 A 
HETATM   20  N3  UNL     1      37.888   1.901   8.436  1.00  0.00    -0.265 N 
HETATM   21  N2  UNL     1      36.906   1.395   7.677  1.00  0.00    -0.225 N 
ATOM     22  H3  UNL     1      38.398   1.403   9.165  1.00  0.00     0.190 HD
HETATM   23  N1  UNL     1      36.498   2.325   6.857  1.00  0.00    -0.223 N 
ATOM     24  H2  UNL     1      36.541   0.444   7.730  1.00  0.00     0.210 HD
HETATM   25  C1  UNL     1      35.442   2.152   5.874  1.00  0.00     0.202 C 
HETATM   26  N11 UNL     1      37.192   3.426   7.066  1.00  0.00    -0.264 N 
ATOM     27  H11 UNL     1      37.081   4.308   6.565  1.00  0.00     0.190 HD
ENDBRANCH  15  19
ENDBRANCH   9  15
ENDBRANCH   6   7
ENDBRANCH   5   6
ENDBRANCH   2   5
ENDBRANCH   1   2
BRANCH   1  28
HETATM   28  C8  UNL     1      43.213  -0.912   4.429  1.00  0.00     0.055 C 
BRANCH  28  29
HETATM   29  C9  UNL     1      44.061  -1.765   3.547  1.00  0.00     0.233 C 
BRANCH  29  30
HETATM   30  N9  UNL     1      44.969  -1.030   2.696  1.00  0.00    -0.075 N 
ATOM     31  H92 UNL     1      45.661  -0.519   3.244  1.00  0.00     0.277 HD
ATOM     32  H91 UNL     1      45.596  -1.657   2.192  1.00  0.00     0.277 HD
BRANCH  30  33
HETATM   33  C10 UNL     1      44.270  -0.165   1.804  1.00  0.00     0.239 C 
BRANCH  33  34
HETATM   34  C11 UNL     1      44.978   1.136   1.500  1.00  0.00     0.049 C 
HETATM   35  C12 UNL     1      45.465   1.098   0.094  1.00  0.00     0.157 C 
HETATM   36  C13 UNL     1      46.078   2.485  -0.171  1.00  0.00     0.243 C 
HETATM   37  C14 UNL     1      44.887   3.399  -0.336  1.00  0.00     0.180 C 
HETATM   38  C15 UNL     1      43.870   3.271   0.733  1.00  0.00     0.153 C 
HETATM   39  C16 UNL     1      44.167   2.344   1.843  1.00  0.00     0.030 C 
BRANCH  35  40
HETATM   40  O1  UNL     1      46.480   0.120   0.030  1.00  0.00    -0.393 OA
ATOM     41  H1  UNL     1      46.732   0.036  -0.883  1.00  0.00     0.210 HD
ENDBRANCH  35  40
BRANCH  36  42
HETATM   42  N10 UNL     1      46.765   2.431  -1.461  1.00  0.00    -0.070 N 
ATOM     43 3H10 UNL     1      47.775   2.325  -1.368  1.00  0.00     0.274 HD
ATOM     44 2H10 UNL     1      46.585   1.565  -1.969  1.00  0.00     0.274 HD
ATOM     45 1H10 UNL     1      46.501   3.262  -1.989  1.00  0.00     0.274 HD
ENDBRANCH  36  42
BRANCH  37  46
HETATM   46  O2  UNL     1      45.384   4.695  -0.486  1.00  0.00    -0.391 OA
ATOM     47  H2  UNL     1      44.666   5.291  -0.307  1.00  0.00     0.210 HD
ENDBRANCH  37  46
BRANCH  38  48
HETATM   48  O3  UNL     1      42.639   2.921   0.142  1.00  0.00    -0.393 OA
ATOM     49  H3  UNL     1      42.023   3.630   0.284  1.00  0.00     0.210 HD
ENDBRANCH  38  48
BRANCH  39  50
HETATM   50  C17 UNL     1      44.822   3.072   2.999  1.00  0.00     0.079 C 
BRANCH  50  51
HETATM   51  C18 UNL     1      44.503   2.473   4.333  1.00  0.00     0.353 C 
HETATM   52  F1  UNL     1      45.648   1.772   4.739  1.00  0.00    -0.214 F 
HETATM   53  F2  UNL     1      44.373   3.516   5.237  1.00  0.00    -0.214 F 
ENDBRANCH  50  51
ENDBRANCH  39  50
ENDBRANCH  33  34
ENDBRANCH  30  33
ENDBRANCH  29  30
ENDBRANCH  28  29
ENDBRANCH   1  28
TORSDOF 17
ENDMDL
MODEL 4
REMARK VINA RESULT: -8.693677410      2.005      2.629
REMARK  17 active torsions:
REMARK  status: ('A' for Active; 'I' for Inactive)
REMARK    1  A    between atoms: C2_7  and  C3_8 
REMARK    2  A    between atoms: C3_8  and  N5_12 
REMARK       I    between atoms: N5_12  and  C4_14 
REMARK       I    between atoms: C4_14  and  N7_18 
REMARK    3  A    between atoms: N7_18  and  C5_20 
REMARK    4  A    between atoms: C5_20  and  C6_21 
REMARK    5  A    between atoms: C6_21  and  N8_22 
REMARK    6  A    between atoms: N8_22  and  C7_25 
REMARK    7  A    between atoms: C7_25  and  C8_26 
REMARK    8  A    between atoms: C8_26  and  C9_27 
REMARK    9  A    between atoms: C9_27  and  N9_28 
REMARK   10  A    between atoms: N9_28  and  C10_31 
REMARK   11  A    between atoms: C10_31  and  C11_32 
REMARK   12  A    between atoms: C12_33  and  O1_34 
REMARK   13  A    between atoms: C13_36  and  N10_37 
REMARK   14  A    between atoms: C14_41  and  O2_42 
REMARK   15  A    between atoms: C15_44  and  O3_45 
REMARK   16  A    between atoms: C16_47  and  C17_48 
REMARK   17  A    between atoms: C17_48  and  C18_49 
ROOT
HETATM    1  C7  UNL     1      43.226  -0.981   5.007  1.00  0.00     0.234 C 
ENDROOT
BRANCH   1   2
HETATM    2  N8  UNL     1      42.412   0.197   4.877  1.00  0.00    -0.074 N 
ATOM      3  H82 UNL     1      41.567  -0.003   4.342  1.00  0.00     0.277 HD
ATOM      4  H81 UNL     1      42.851   0.874   4.253  1.00  0.00     0.277 HD
BRANCH   2   5
HETATM    5  C6  UNL     1      42.086   0.801   6.133  1.00  0.00     0.252 C 
BRANCH   5   6
HETATM    6  C5  UNL     1      42.137   2.325   6.102  1.00  0.00     0.165 C 
BRANCH   6   7
HETATM    7  N7  UNL     1      41.053   2.842   6.907  1.00  0.00    -0.225 N 
HETATM    8  C4  UNL     1      41.102   4.199   7.311  1.00  0.00     0.673 C 
HETATM    9  N5  UNL     1      39.882   4.881   7.649  1.00  0.00    -0.174 N 
HETATM   10  N6  UNL     1      42.214   4.831   7.381  1.00  0.00    -0.235 N 
ATOM     11  H5  UNL     1      39.647   5.794   7.261  1.00  0.00     0.186 HD
ATOM     12  H62 UNL     1      42.250   5.808   7.672  1.00  0.00     0.174 HD
ATOM     13  H61 UNL     1      43.080   4.348   7.142  1.00  0.00     0.174 HD
ATOM     14  H7  UNL     1      40.272   2.244   7.178  1.00  0.00     0.177 HD
BRANCH   9  15
HETATM   15  C3  UNL     1      39.027   4.209   8.552  1.00  0.00     0.162 C 
HETATM   16  N4  UNL     1      39.089   4.481   9.801  1.00  0.00    -0.382 N 
ATOM     17  H42 UNL     1      38.471   3.996  10.452  1.00  0.00     0.157 HD
ATOM     18  H41 UNL     1      39.746   5.175  10.158  1.00  0.00     0.157 HD
BRANCH  15  19
HETATM   19  C2  UNL     1      38.096   3.226   8.045  1.00  0.00     0.182 A 
HETATM   20  N3  UNL     1      37.966   1.937   8.416  1.00  0.00    -0.265 N 
HETATM   21  N2  UNL     1      36.982   1.392   7.688  1.00  0.00    -0.225 N 
ATOM     22  H3  UNL     1      38.519   1.459   9.127  1.00  0.00     0.190 HD
HETATM   23  N1  UNL     1      36.509   2.306   6.885  1.00  0.00    -0.223 N 
ATOM     24  H2  UNL     1      36.658   0.426   7.750  1.00  0.00     0.210 HD
HETATM   25  C1  UNL     1      35.429   2.090   5.936  1.00  0.00     0.202 C 
HETATM   26  N11 UNL     1      37.163   3.434   7.075  1.00  0.00    -0.264 N 
ATOM     27  H11 UNL     1      36.998   4.312   6.581  1.00  0.00     0.190 HD
ENDBRANCH  15  19
ENDBRANCH   9  15
ENDBRANCH   6   7
ENDBRANCH   5   6
ENDBRANCH   2   5
ENDBRANCH   1   2
BRANCH   1  28
HETATM   28  C8  UNL     1      43.258  -1.826   3.755  1.00  0.00     0.055 C 
BRANCH  28  29
HETATM   29  C9  UNL     1      44.590  -1.797   3.083  1.00  0.00     0.233 C 
BRANCH  29  30
HETATM   30  N9  UNL     1      44.532  -1.659   1.646  1.00  0.00    -0.075 N 
ATOM     31  H92 UNL     1      45.456  -1.763   1.225  1.00  0.00     0.277 HD
ATOM     32  H91 UNL     1      44.069  -2.460   1.215  1.00  0.00     0.277 HD
BRANCH  30  33
HETATM   33  C10 UNL     1      43.919  -0.433   1.259  1.00  0.00     0.239 C 
BRANCH  33  34
HETATM   34  C11 UNL     1      44.829   0.774   1.308  1.00  0.00     0.049 C 
HETATM   35  C12 UNL     1      45.307   1.069  -0.070  1.00  0.00     0.157 C 
HETATM   36  C13 UNL     1      46.137   2.360   0.046  1.00  0.00     0.243 C 
HETATM   37  C14 UNL     1      45.110   3.456   0.203  1.00  0.00     0.180 C 
HETATM   38  C15 UNL     1      44.084   3.185   1.234  1.00  0.00     0.153 C 
HETATM   39  C16 UNL     1      44.224   1.941   2.019  1.00  0.00     0.030 C 
BRANCH  35  40
HETATM   40  O1  UNL     1      46.150   0.005  -0.456  1.00  0.00    -0.393 OA
ATOM     41  H1  UNL     1      46.063  -0.094  -1.398  1.00  0.00     0.210 HD
ENDBRANCH  35  40
BRANCH  36  42
HETATM   42  N10 UNL     1      46.810   2.575  -1.235  1.00  0.00    -0.070 N 
ATOM     43 3H10 UNL     1      47.516   3.309  -1.193  1.00  0.00     0.274 HD
ATOM     44 2H10 UNL     1      47.430   1.806  -1.491  1.00  0.00     0.274 HD
ATOM     45 1H10 UNL     1      46.092   2.755  -1.937  1.00  0.00     0.274 HD
ENDBRANCH  36  42
BRANCH  37  46
HETATM   46  O2  UNL     1      45.812   4.646   0.408  1.00  0.00    -0.391 OA
ATOM     47  H2  UNL     1      46.610   4.422   0.872  1.00  0.00     0.210 HD
ENDBRANCH  37  46
BRANCH  38  48
HETATM   48  O3  UNL     1      42.814   3.217   0.623  1.00  0.00    -0.393 OA
ATOM     49  H3  UNL     1      42.223   3.712   1.180  1.00  0.00     0.210 HD
ENDBRANCH  38  48
BRANCH  39  50
HETATM   50  C17 UNL     1      44.986   2.192   3.304  1.00  0.00     0.079 C 
BRANCH  50  51
HETATM   51  C18 UNL     1      46.044   1.169   3.574  1.00  0.00     0.353 C 
HETATM   52  F1  UNL     1      47.247   1.704   3.092  1.00  0.00    -0.214 F 
HETATM   53  F2  UNL     1      46.205   1.089   4.949  1.00  0.00    -0.214 F 
ENDBRANCH  50  51
ENDBRANCH  39  50
ENDBRANCH  33  34
ENDBRANCH  30  33
ENDBRANCH  29  30
ENDBRANCH  28  29
ENDBRANCH   1  28
TORSDOF 17
ENDMDL
MODEL 5
REMARK VINA RESULT: -8.581195608      2.346      4.236
REMARK  17 active torsions:
REMARK  status: ('A' for Active; 'I' for Inactive)
REMARK    1  A    between atoms: C2_7  and  C3_8 
REMARK    2  A    between atoms: C3_8  and  N5_12 
REMARK       I    between atoms: N5_12  and  C4_14 
REMARK       I    between atoms: C4_14  and  N7_18 
REMARK    3  A    between atoms: N7_18  and  C5_20 
REMARK    4  A    between atoms: C5_20  and  C6_21 
REMARK    5  A    between atoms: C6_21  and  N8_22 
REMARK    6  A    between atoms: N8_22  and  C7_25 
REMARK    7  A    between atoms: C7_25  and  C8_26 
REMARK    8  A    between atoms: C8_26  and  C9_27 
REMARK    9  A    between atoms: C9_27  and  N9_28 
REMARK   10  A    between atoms: N9_28  and  C10_31 
REMARK   11  A    between atoms: C10_31  and  C11_32 
REMARK   12  A    between atoms: C12_33  and  O1_34 
REMARK   13  A    between atoms: C13_36  and  N10_37 
REMARK   14  A    between atoms: C14_41  and  O2_42 
REMARK   15  A    between atoms: C15_44  and  O3_45 
REMARK   16  A    between atoms: C16_47  and  C17_48 
REMARK   17  A    between atoms: C17_48  and  C18_49 
ROOT
HETATM    1  C7  UNL     1      42.553  -2.450   5.265  1.00  0.00     0.234 C 
ENDROOT
BRANCH   1   2
HETATM    2  N8  UNL     1      41.697  -1.968   6.315  1.00  0.00    -0.074 N 
ATOM      3  H82 UNL     1      41.963  -2.373   7.213  1.00  0.00     0.277 HD
ATOM      4  H81 UNL     1      40.759  -2.358   6.225  1.00  0.00     0.277 HD
BRANCH   2   5
HETATM    5  C6  UNL     1      41.649  -0.540   6.396  1.00  0.00     0.252 C 
BRANCH   5   6
HETATM    6  C5  UNL     1      40.505  -0.023   7.262  1.00  0.00     0.165 C 
BRANCH   6   7
HETATM    7  N7  UNL     1      40.489   1.422   7.193  1.00  0.00    -0.225 N 
HETATM    8  C4  UNL     1      39.368   2.108   7.722  1.00  0.00     0.673 C 
HETATM    9  N5  UNL     1      39.509   3.478   8.136  1.00  0.00    -0.174 N 
HETATM   10  N6  UNL     1      38.229   1.532   7.837  1.00  0.00    -0.235 N 
ATOM     11  H5  UNL     1      39.181   3.804   9.046  1.00  0.00     0.186 HD
ATOM     12  H62 UNL     1      37.422   2.025   8.217  1.00  0.00     0.174 HD
ATOM     13  H61 UNL     1      38.130   0.561   7.543  1.00  0.00     0.174 HD
ATOM     14  H7  UNL     1      41.266   1.934   6.775  1.00  0.00     0.177 HD
BRANCH   9  15
HETATM   15  C3  UNL     1      40.128   4.346   7.209  1.00  0.00     0.162 C 
HETATM   16  N4  UNL     1      39.515   4.658   6.130  1.00  0.00    -0.382 N 
ATOM     17  H42 UNL     1      39.962   5.284   5.461  1.00  0.00     0.157 HD
ATOM     18  H41 UNL     1      38.584   4.291   5.927  1.00  0.00     0.157 HD
BRANCH  15  19
HETATM   19  C2  UNL     1      41.446   4.866   7.497  1.00  0.00     0.182 A 
HETATM   20  N3  UNL     1      41.993   6.021   7.073  1.00  0.00    -0.265 N 
HETATM   21  N2  UNL     1      43.233   6.103   7.577  1.00  0.00    -0.225 N 
ATOM     22  H3  UNL     1      41.544   6.713   6.473  1.00  0.00     0.190 HD
HETATM   23  N1  UNL     1      43.458   5.036   8.293  1.00  0.00    -0.223 N 
ATOM     24  H2  UNL     1      43.889   6.870   7.425  1.00  0.00     0.210 HD
HETATM   25  C1  UNL     1      44.698   4.765   9.000  1.00  0.00     0.202 C 
HETATM   26  N11 UNL     1      42.393   4.261   8.268  1.00  0.00    -0.264 N 
ATOM     27  H11 UNL     1      42.294   3.363   8.743  1.00  0.00     0.190 HD
ENDBRANCH  15  19
ENDBRANCH   9  15
ENDBRANCH   6   7
ENDBRANCH   5   6
ENDBRANCH   2   5
ENDBRANCH   1   2
BRANCH   1  28
HETATM   28  C8  UNL     1      43.150  -1.345   4.426  1.00  0.00     0.055 C 
BRANCH  28  29
HETATM   29  C9  UNL     1      43.976  -1.870   3.300  1.00  0.00     0.233 C 
BRANCH  29  30
HETATM   30  N9  UNL     1      45.112  -1.045   2.957  1.00  0.00    -0.075 N 
ATOM     31  H92 UNL     1      45.564  -0.670   3.790  1.00  0.00     0.277 HD
ATOM     32  H91 UNL     1      45.884  -1.607   2.596  1.00  0.00     0.277 HD
BRANCH  30  33
HETATM   33  C10 UNL     1      44.755  -0.009   2.047  1.00  0.00     0.239 C 
BRANCH  33  34
HETATM   34  C11 UNL     1      45.440   1.317   2.296  1.00  0.00     0.049 C 
HETATM   35  C12 UNL     1      46.527   1.489   1.294  1.00  0.00     0.157 C 
HETATM   36  C13 UNL     1      47.104   2.894   1.546  1.00  0.00     0.243 C 
HETATM   37  C14 UNL     1      46.072   3.834   0.970  1.00  0.00     0.180 C 
HETATM   38  C15 UNL     1      44.685   3.555   1.405  1.00  0.00     0.153 C 
HETATM   39  C16 UNL     1      44.488   2.466   2.384  1.00  0.00     0.030 C 
BRANCH  35  40
HETATM   40  O1  UNL     1      47.514   0.521   1.578  1.00  0.00    -0.393 OA
ATOM     41  H1  UNL     1      47.066  -0.246   1.916  1.00  0.00     0.210 HD
ENDBRANCH  35  40
BRANCH  36  42
HETATM   42  N10 UNL     1      48.315   3.030   0.736  1.00  0.00    -0.070 N 
ATOM     43 3H10 UNL     1      49.133   2.605   1.174  1.00  0.00     0.274 HD
ATOM     44 2H10 UNL     1      48.297   2.452  -0.104  1.00  0.00     0.274 HD
ATOM     45 1H10 UNL     1      48.443   4.021   0.533  1.00  0.00     0.274 HD
ENDBRANCH  36  42
BRANCH  37  46
HETATM   46  O2  UNL     1      46.500   5.133   1.254  1.00  0.00    -0.391 OA
ATOM     47  H2  UNL     1      46.592   5.195   2.197  1.00  0.00     0.210 HD
ENDBRANCH  37  46
BRANCH  38  48
HETATM   48  O3  UNL     1      43.896   3.313   0.263  1.00  0.00    -0.393 OA
ATOM     49  H3  UNL     1      43.140   3.888   0.290  1.00  0.00     0.210 HD
ENDBRANCH  38  48
BRANCH  39  50
HETATM   50  C17 UNL     1      44.483   3.002   3.800  1.00  0.00     0.079 C 
BRANCH  50  51
HETATM   51  C18 UNL     1      43.785   2.101   4.771  1.00  0.00     0.353 C 
HETATM   52  F1  UNL     1      43.621   2.839   5.952  1.00  0.00    -0.214 F 
HETATM   53  F2  UNL     1      42.502   1.885   4.292  1.00  0.00    -0.214 F 
ENDBRANCH  50  51
ENDBRANCH  39  50
ENDBRANCH  33  34
ENDBRANCH  30  33
ENDBRANCH  29  30
ENDBRANCH  28  29
ENDBRANCH   1  28
TORSDOF 17
ENDMDL
