MODEL 1
REMARK VINA RESULT: -7.889677705      0.000      0.000
REMARK  7 active torsions:
REMARK  status: ('A' for Active; 'I' for Inactive)
REMARK    1  A    between atoms: C1_4  and  N2_5 
REMARK    2  A    between atoms: C1_4  and  C10_23 
REMARK    3  A    between atoms: N2_5  and  C2_7 
REMARK    4  A    between atoms: C2_7  and  C3_8 
REMARK    5  A    between atoms: C3_8  and  N3_9 
REMARK    6  A    between atoms: N3_9  and  C4_11 
REMARK    7  A    between atoms: C8_17  and  C9_18 
ROOT
HETATM    1  C2  UNL     1     -19.305   0.370   3.834  1.00  0.00     0.141 C 
ENDROOT
BRANCH   1   2
HETATM    2  N2  UNL     1     -18.924   1.631   3.231  1.00  0.00    -0.372 N 
ATOM      3  H2  UNL     1     -18.044   2.041   3.545  1.00  0.00     0.161 HD
BRANCH   2   4
HETATM    4  C1  UNL     1     -19.642   2.344   2.259  1.00  0.00     0.140 C 
HETATM    5  N1  UNL     1     -19.827   1.801   1.094  1.00  0.00    -0.383 N 
ATOM      6  H12 UNL     1     -19.446   0.871   0.921  1.00  0.00     0.157 HD
ATOM      7  H11 UNL     1     -20.349   2.320   0.388  1.00  0.00     0.157 HD
BRANCH   4   8
HETATM    8  C10 UNL     1     -20.181   3.660   2.505  1.00  0.00     0.149 A 
HETATM    9  N7  UNL     1     -21.497   3.735   2.872  1.00  0.00    -0.346 N 
HETATM   10  C11 UNL     1     -22.117   4.882   3.126  1.00  0.00     0.133 A 
ATOM     11  H7  UNL     1     -22.028   2.867   2.954  1.00  0.00     0.167 HD
HETATM   12  C12 UNL     1     -21.434   6.055   3.025  1.00  0.00     0.147 A 
HETATM   13  F1  UNL     1     -22.021   7.248   3.274  1.00  0.00    -0.203 F 
HETATM   14  C13 UNL     1     -20.102   5.969   2.653  1.00  0.00     0.133 A 
HETATM   15  N8  UNL     1     -19.499   4.800   2.401  1.00  0.00    -0.346 N 
ATOM     16  H8  UNL     1     -18.515   4.782   2.130  1.00  0.00     0.167 HD
ENDBRANCH   4   8
ENDBRANCH   2   4
ENDBRANCH   1   2
BRANCH   1  17
HETATM   17  C3  UNL     1     -20.272   0.587   4.980  1.00  0.00     0.139 C 
BRANCH  17  18
HETATM   18  N3  UNL     1     -21.665   0.625   4.531  1.00  0.00    -0.386 N 
ATOM     19  H3  UNL     1     -21.932   1.222   3.749  1.00  0.00     0.159 HD
BRANCH  18  20
HETATM   20  C4  UNL     1     -22.645  -0.168   5.184  1.00  0.00     0.057 A 
HETATM   21  C5  UNL     1     -22.693  -1.548   4.872  1.00  0.00     0.117 A 
HETATM   22  N4  UNL     1     -23.552  -2.347   5.509  1.00  0.00    -0.373 N 
HETATM   23  C6  UNL     1     -24.392  -1.901   6.454  1.00  0.00     0.088 A 
ATOM     24  H4  UNL     1     -23.570  -3.338   5.267  1.00  0.00     0.164 HD
HETATM   25  C7  UNL     1     -24.370  -0.577   6.777  1.00  0.00     0.034 A 
HETATM   26  C8  UNL     1     -23.487   0.323   6.140  1.00  0.00     0.034 A 
BRANCH  26  27
HETATM   27  C9  UNL     1     -23.553   1.718   6.491  1.00  0.00     0.122 C 
HETATM   28  N5  UNL     1     -23.635   2.245   7.635  1.00  0.00    -0.387 N 
ATOM     29  H52 UNL     1     -23.652   1.568   8.397  1.00  0.00     0.157 HD
ATOM     30  H51 UNL     1     -23.682   3.234   7.883  1.00  0.00     0.157 HD
HETATM   31  N6  UNL     1     -23.528   2.682   5.406  1.00  0.00    -0.082 NA
ENDBRANCH  26  27
ENDBRANCH  18  20
ENDBRANCH  17  18
ENDBRANCH   1  17
TORSDOF 7
ENDMDL
MODEL 2
REMARK VINA RESULT: -7.716918726      2.482      6.473
REMARK  7 active torsions:
REMARK  status: ('A' for Active; 'I' for Inactive)
REMARK    1  A    between atoms: C1_4  and  N2_5 
REMARK    2  A    between atoms: C1_4  and  C10_23 
REMARK    3  A    between atoms: N2_5  and  C2_7 
REMARK    4  A    between atoms: C2_7  and  C3_8 
REMARK    5  A    between atoms: C3_8  and  N3_9 
REMARK    6  A    between atoms: N3_9  and  C4_11 
REMARK    7  A    between atoms: C8_17  and  C9_18 
ROOT
HETATM    1  C2  UNL     1     -20.532   1.174   3.037  1.00  0.00     0.141 C 
ENDROOT
BRANCH   1   2
HETATM    2  N2  UNL     1     -21.922   0.821   3.239  1.00  0.00    -0.372 N 
ATOM      3  H2  UNL     1     -22.617   1.500   2.931  1.00  0.00     0.161 HD
BRANCH   2   4
HETATM    4  C1  UNL     1     -22.408  -0.363   3.816  1.00  0.00     0.140 C 
HETATM    5  N1  UNL     1     -22.135  -1.496   3.244  1.00  0.00    -0.383 N 
ATOM      6  H12 UNL     1     -21.574  -1.493   2.393  1.00  0.00     0.157 HD
ATOM      7  H11 UNL     1     -22.489  -2.356   3.664  1.00  0.00     0.157 HD
BRANCH   4   8
HETATM    8  C10 UNL     1     -23.203  -0.368   5.021  1.00  0.00     0.149 A 
HETATM    9  N7  UNL     1     -23.485   0.847   5.586  1.00  0.00    -0.346 N 
HETATM   10  C11 UNL     1     -24.204   0.984   6.694  1.00  0.00     0.133 A 
ATOM     11  H7  UNL     1     -23.126   1.688   5.133  1.00  0.00     0.167 HD
HETATM   12  C12 UNL     1     -24.697  -0.119   7.319  1.00  0.00     0.147 A 
HETATM   13  F1  UNL     1     -25.435  -0.031   8.449  1.00  0.00    -0.203 F 
HETATM   14  C13 UNL     1     -24.406  -1.344   6.740  1.00  0.00     0.133 A 
HETATM   15  N8  UNL     1     -23.678  -1.457   5.622  1.00  0.00    -0.346 N 
ATOM     16  H8  UNL     1     -23.487  -2.379   5.229  1.00  0.00     0.167 HD
ENDBRANCH   4   8
ENDBRANCH   2   4
ENDBRANCH   1   2
BRANCH   1  17
HETATM   17  C3  UNL     1     -20.359   1.994   1.775  1.00  0.00     0.139 C 
BRANCH  17  18
HETATM   18  N3  UNL     1     -21.293   3.119   1.710  1.00  0.00    -0.386 N 
ATOM     19  H3  UNL     1     -22.190   3.009   1.237  1.00  0.00     0.159 HD
BRANCH  18  20
HETATM   20  C4  UNL     1     -20.953   4.362   2.305  1.00  0.00     0.057 A 
HETATM   21  C5  UNL     1     -19.650   4.868   2.079  1.00  0.00     0.117 A 
HETATM   22  N4  UNL     1     -19.305   6.065   2.561  1.00  0.00    -0.373 N 
HETATM   23  C6  UNL     1     -20.149   6.832   3.265  1.00  0.00     0.088 A 
ATOM     24  H4  UNL     1     -18.360   6.408   2.387  1.00  0.00     0.164 HD
HETATM   25  C7  UNL     1     -21.410   6.373   3.500  1.00  0.00     0.034 A 
HETATM   26  C8  UNL     1     -21.839   5.116   3.019  1.00  0.00     0.034 A 
BRANCH  26  27
HETATM   27  C9  UNL     1     -23.168   4.668   3.349  1.00  0.00     0.122 C 
HETATM   28  N5  UNL     1     -24.278   5.111   2.944  1.00  0.00    -0.387 N 
ATOM     29  H52 UNL     1     -24.193   5.892   2.293  1.00  0.00     0.157 HD
ATOM     30  H51 UNL     1     -25.219   4.794   3.178  1.00  0.00     0.157 HD
HETATM   31  N6  UNL     1     -23.288   3.557   4.276  1.00  0.00    -0.082 NA
ENDBRANCH  26  27
ENDBRANCH  18  20
ENDBRANCH  17  18
ENDBRANCH   1  17
TORSDOF 7
ENDMDL
MODEL 3
REMARK VINA RESULT: -7.702368414      2.506      6.284
REMARK  7 active torsions:
REMARK  status: ('A' for Active; 'I' for Inactive)
REMARK    1  A    between atoms: C1_4  and  N2_5 
REMARK    2  A    between atoms: C1_4  and  C10_23 
REMARK    3  A    between atoms: N2_5  and  C2_7 
REMARK    4  A    between atoms: C2_7  and  C3_8 
REMARK    5  A    between atoms: C3_8  and  N3_9 
REMARK    6  A    between atoms: N3_9  and  C4_11 
REMARK    7  A    between atoms: C8_17  and  C9_18 
ROOT
HETATM    1  C2  UNL     1     -19.922   1.302   3.387  1.00  0.00     0.141 C 
ENDROOT
BRANCH   1   2
HETATM    2  N2  UNL     1     -20.181  -0.123   3.400  1.00  0.00    -0.372 N 
ATOM      3  H2  UNL     1     -19.370  -0.735   3.486  1.00  0.00     0.161 HD
BRANCH   2   4
HETATM    4  C1  UNL     1     -21.435  -0.746   3.305  1.00  0.00     0.140 C 
HETATM    5  N1  UNL     1     -21.739  -1.380   2.214  1.00  0.00    -0.383 N 
ATOM      6  H12 UNL     1     -21.055  -1.408   1.457  1.00  0.00     0.157 HD
ATOM      7  H11 UNL     1     -22.651  -1.833   2.146  1.00  0.00     0.157 HD
BRANCH   4   8
HETATM    8  C10 UNL     1     -22.403  -0.706   4.376  1.00  0.00     0.149 A 
HETATM    9  N7  UNL     1     -22.819  -1.908   4.883  1.00  0.00    -0.346 N 
HETATM   10  C11 UNL     1     -23.705  -2.014   5.867  1.00  0.00     0.133 A 
ATOM     11  H7  UNL     1     -22.430  -2.763   4.485  1.00  0.00     0.167 HD
HETATM   12  C12 UNL     1     -24.240  -0.890   6.417  1.00  0.00     0.147 A 
HETATM   13  F1  UNL     1     -25.145  -0.946   7.421  1.00  0.00    -0.203 F 
HETATM   14  C13 UNL     1     -23.812   0.321   5.897  1.00  0.00     0.133 A 
HETATM   15  N8  UNL     1     -22.918   0.403   4.904  1.00  0.00    -0.346 N 
ATOM     16  H8  UNL     1     -22.630   1.316   4.550  1.00  0.00     0.167 HD
ENDBRANCH   4   8
ENDBRANCH   2   4
ENDBRANCH   1   2
BRANCH   1  17
HETATM   17  C3  UNL     1     -20.138   1.880   2.003  1.00  0.00     0.139 C 
BRANCH  17  18
HETATM   18  N3  UNL     1     -21.193   2.893   1.982  1.00  0.00    -0.386 N 
ATOM     19  H3  UNL     1     -22.119   2.657   1.627  1.00  0.00     0.159 HD
BRANCH  18  20
HETATM   20  C4  UNL     1     -20.930   4.205   2.456  1.00  0.00     0.057 A 
HETATM   21  C5  UNL     1     -19.647   4.752   2.210  1.00  0.00     0.117 A 
HETATM   22  N4  UNL     1     -19.373   6.006   2.577  1.00  0.00    -0.373 N 
HETATM   23  C6  UNL     1     -20.272   6.796   3.180  1.00  0.00     0.088 A 
ATOM     24  H4  UNL     1     -18.441   6.378   2.392  1.00  0.00     0.164 HD
HETATM   25  C7  UNL     1     -21.516   6.299   3.431  1.00  0.00     0.034 A 
HETATM   26  C8  UNL     1     -21.870   4.981   3.070  1.00  0.00     0.034 A 
BRANCH  26  27
HETATM   27  C9  UNL     1     -23.186   4.502   3.413  1.00  0.00     0.122 C 
HETATM   28  N5  UNL     1     -24.301   4.823   2.918  1.00  0.00    -0.387 N 
ATOM     29  H52 UNL     1     -24.233   5.518   2.174  1.00  0.00     0.157 HD
ATOM     30  H51 UNL     1     -25.232   4.484   3.161  1.00  0.00     0.157 HD
HETATM   31  N6  UNL     1     -23.281   3.513   4.471  1.00  0.00    -0.082 NA
ENDBRANCH  26  27
ENDBRANCH  18  20
ENDBRANCH  17  18
ENDBRANCH   1  17
TORSDOF 7
ENDMDL
MODEL 4
REMARK VINA RESULT: -7.695187572      2.497      6.493
REMARK  7 active torsions:
REMARK  status: ('A' for Active; 'I' for Inactive)
REMARK    1  A    between atoms: C1_4  and  N2_5 
REMARK    2  A    between atoms: C1_4  and  C10_23 
REMARK    3  A    between atoms: N2_5  and  C2_7 
REMARK    4  A    between atoms: C2_7  and  C3_8 
REMARK    5  A    between atoms: C3_8  and  N3_9 
REMARK    6  A    between atoms: N3_9  and  C4_11 
REMARK    7  A    between atoms: C8_17  and  C9_18 
ROOT
HETATM    1  C2  UNL     1     -21.365   0.625   4.888  1.00  0.00     0.141 C 
ENDROOT
BRANCH   1   2
HETATM    2  N2  UNL     1     -22.813   0.613   4.893  1.00  0.00    -0.372 N 
ATOM      3  H2  UNL     1     -23.279   1.187   4.189  1.00  0.00     0.161 HD
BRANCH   2   4
HETATM    4  C1  UNL     1     -23.641  -0.109   5.766  1.00  0.00     0.140 C 
HETATM    5  N1  UNL     1     -23.753  -1.393   5.605  1.00  0.00    -0.383 N 
ATOM      6  H12 UNL     1     -23.235  -1.839   4.849  1.00  0.00     0.157 HD
ATOM      7  H11 UNL     1     -24.355  -1.917   6.241  1.00  0.00     0.157 HD
BRANCH   4   8
HETATM    8  C10 UNL     1     -24.375   0.522   6.837  1.00  0.00     0.149 A 
HETATM    9  N7  UNL     1     -24.347   1.890   6.889  1.00  0.00    -0.346 N 
HETATM   10  C11 UNL     1     -24.978   2.595   7.822  1.00  0.00     0.133 A 
ATOM     11  H7  UNL     1     -23.816   2.392   6.177  1.00  0.00     0.167 HD
HETATM   12  C12 UNL     1     -25.695   1.952   8.783  1.00  0.00     0.147 A 
HETATM   13  F1  UNL     1     -26.355   2.626   9.753  1.00  0.00    -0.203 F 
HETATM   14  C13 UNL     1     -25.717   0.568   8.722  1.00  0.00     0.133 A 
HETATM   15  N8  UNL     1     -25.073  -0.121   7.772  1.00  0.00    -0.346 N 
ATOM     16  H8  UNL     1     -25.116  -1.141   7.763  1.00  0.00     0.167 HD
ENDBRANCH   4   8
ENDBRANCH   2   4
ENDBRANCH   1   2
BRANCH   1  17
HETATM   17  C3  UNL     1     -20.829   0.882   3.494  1.00  0.00     0.139 C 
BRANCH  17  18
HETATM   18  N3  UNL     1     -21.576   1.929   2.796  1.00  0.00    -0.386 N 
ATOM     19  H3  UNL     1     -22.468   1.709   2.354  1.00  0.00     0.159 HD
BRANCH  18  20
HETATM   20  C4  UNL     1     -21.059   3.250   2.733  1.00  0.00     0.057 A 
HETATM   21  C5  UNL     1     -19.709   3.413   2.342  1.00  0.00     0.117 A 
HETATM   22  N4  UNL     1     -19.197   4.639   2.203  1.00  0.00    -0.373 N 
HETATM   23  C6  UNL     1     -19.913   5.751   2.418  1.00  0.00     0.088 A 
ATOM     24  H4  UNL     1     -18.220   4.732   1.923  1.00  0.00     0.164 HD
HETATM   25  C7  UNL     1     -21.217   5.627   2.795  1.00  0.00     0.034 A 
HETATM   26  C8  UNL     1     -21.819   4.360   2.962  1.00  0.00     0.034 A 
BRANCH  26  27
HETATM   27  C9  UNL     1     -23.186   4.301   3.414  1.00  0.00     0.122 C 
HETATM   28  N5  UNL     1     -24.216   4.815   2.896  1.00  0.00    -0.387 N 
ATOM     29  H52 UNL     1     -24.026   5.337   2.041  1.00  0.00     0.157 HD
ATOM     30  H51 UNL     1     -25.184   4.773   3.217  1.00  0.00     0.157 HD
HETATM   31  N6  UNL     1     -23.455   3.559   4.632  1.00  0.00    -0.082 NA
ENDBRANCH  26  27
ENDBRANCH  18  20
ENDBRANCH  17  18
ENDBRANCH   1  17
TORSDOF 7
ENDMDL
MODEL 5
REMARK VINA RESULT: -7.601150418      1.487      1.943
REMARK  7 active torsions:
REMARK  status: ('A' for Active; 'I' for Inactive)
REMARK    1  A    between atoms: C1_4  and  N2_5 
REMARK    2  A    between atoms: C1_4  and  C10_23 
REMARK    3  A    between atoms: N2_5  and  C2_7 
REMARK    4  A    between atoms: C2_7  and  C3_8 
REMARK    5  A    between atoms: C3_8  and  N3_9 
REMARK    6  A    between atoms: N3_9  and  C4_11 
REMARK    7  A    between atoms: C8_17  and  C9_18 
ROOT
HETATM    1  C2  UNL     1     -21.684   0.480   1.837  1.00  0.00     0.141 C 
ENDROOT
BRANCH   1   2
HETATM    2  N2  UNL     1     -22.617   1.553   2.109  1.00  0.00    -0.372 N 
ATOM      3  H2  UNL     1     -23.308   1.386   2.840  1.00  0.00     0.161 HD
BRANCH   2   4
HETATM    4  C1  UNL     1     -22.666   2.801   1.467  1.00  0.00     0.140 C 
HETATM    5  N1  UNL     1     -23.233   2.883   0.301  1.00  0.00    -0.383 N 
ATOM      6  H12 UNL     1     -23.626   2.038  -0.113  1.00  0.00     0.157 HD
ATOM      7  H11 UNL     1     -23.268   3.790  -0.165  1.00  0.00     0.157 HD
BRANCH   4   8
HETATM    8  C10 UNL     1     -22.110   3.996   2.054  1.00  0.00     0.149 A 
HETATM    9  N7  UNL     1     -20.761   4.185   1.919  1.00  0.00    -0.346 N 
HETATM   10  C11 UNL     1     -20.122   5.241   2.412  1.00  0.00     0.133 A 
ATOM     11  H7  UNL     1     -20.220   3.481   1.417  1.00  0.00     0.167 HD
HETATM   12  C12 UNL     1     -20.818   6.197   3.085  1.00  0.00     0.147 A 
HETATM   13  F1  UNL     1     -20.213   7.290   3.604  1.00  0.00    -0.203 F 
HETATM   14  C13 UNL     1     -22.183   5.996   3.215  1.00  0.00     0.133 A 
HETATM   15  N8  UNL     1     -22.805   4.923   2.711  1.00  0.00    -0.346 N 
ATOM     16  H8  UNL     1     -23.812   4.815   2.829  1.00  0.00     0.167 HD
ENDBRANCH   4   8
ENDBRANCH   2   4
ENDBRANCH   1   2
BRANCH   1  17
HETATM   17  C3  UNL     1     -21.190  -0.148   3.125  1.00  0.00     0.139 C 
BRANCH  17  18
HETATM   18  N3  UNL     1     -21.775   0.480   4.310  1.00  0.00    -0.386 N 
ATOM     19  H3  UNL     1     -21.485   1.418   4.585  1.00  0.00     0.159 HD
BRANCH  18  20
HETATM   20  C4  UNL     1     -22.746  -0.215   5.078  1.00  0.00     0.057 A 
HETATM   21  C5  UNL     1     -22.880  -1.609   4.869  1.00  0.00     0.117 A 
HETATM   22  N4  UNL     1     -23.732  -2.318   5.613  1.00  0.00    -0.373 N 
HETATM   23  C6  UNL     1     -24.486  -1.766   6.574  1.00  0.00     0.088 A 
ATOM     24  H4  UNL     1     -23.813  -3.321   5.444  1.00  0.00     0.164 HD
HETATM   25  C7  UNL     1     -24.380  -0.426   6.800  1.00  0.00     0.034 A 
HETATM   26  C8  UNL     1     -23.500   0.382   6.046  1.00  0.00     0.034 A 
BRANCH  26  27
HETATM   27  C9  UNL     1     -23.477   1.800   6.301  1.00  0.00     0.122 C 
HETATM   28  N5  UNL     1     -23.471   2.407   7.406  1.00  0.00    -0.387 N 
ATOM     29  H52 UNL     1     -23.482   1.785   8.215  1.00  0.00     0.157 HD
ATOM     30  H51 UNL     1     -23.455   3.412   7.586  1.00  0.00     0.157 HD
HETATM   31  N6  UNL     1     -23.461   2.684   5.150  1.00  0.00    -0.082 NA
ENDBRANCH  26  27
ENDBRANCH  18  20
ENDBRANCH  17  18
ENDBRANCH   1  17
TORSDOF 7
ENDMDL
