MODEL 1
REMARK VINA RESULT: -7.363514400      0.000      0.000
REMARK  10 active torsions:
REMARK  status: ('A' for Active; 'I' for Inactive)
REMARK    1  A    between atoms: N1_1  and  N2_4 
REMARK    2  A    between atoms: N3_6  and  C1_8 
REMARK    3  A    between atoms: C3_10  and  C4_11 
REMARK    4  A    between atoms: C4_11  and  O1_12 
REMARK    5  A    between atoms: C6_15  and  C7_16 
REMARK    6  A    between atoms: C7_16  and  O2_17 
REMARK    7  A    between atoms: C7_16  and  N4_19 
REMARK    8  A    between atoms: N4_19  and  C8_22 
REMARK    9  A    between atoms: C8_22  and  C9_23 
REMARK   10  A    between atoms: C11_28  and  O3_29 
ROOT
HETATM    1  C7  UNL     1     -23.012   2.461   5.343  1.00  0.00     0.324 C 
ENDROOT
BRANCH   1   2
HETATM    2  C6  UNL     1     -23.508   1.062   5.237  1.00  0.00     0.067 C 
HETATM    3  C1  UNL     1     -22.603   0.216   4.332  1.00  0.00     0.109 C 
HETATM    4  C2  UNL     1     -23.085  -1.184   4.640  1.00  0.00     0.034 C 
HETATM    5  C3  UNL     1     -23.844  -1.109   5.950  1.00  0.00     0.012 C 
HETATM    6  C5  UNL     1     -23.407   0.250   6.511  1.00  0.00     0.017 C 
BRANCH   3   7
HETATM    7  N3  UNL     1     -21.251   0.314   4.858  1.00  0.00    -0.317 N 
HETATM    8  N2  UNL     1     -20.271  -0.069   4.219  1.00  0.00    -0.253 N 
ATOM      9  H2  UNL     1     -20.561  -1.014   3.970  1.00  0.00     0.207 HD
ATOM     10  H3  UNL     1     -21.109   0.714   5.786  1.00  0.00     0.182 HD
BRANCH   8  11
HETATM   11  N1  UNL     1     -19.166  -0.022   3.697  1.00  0.00    -0.331 N 
ATOM     12  H12 UNL     1     -19.163   0.971   3.465  1.00  0.00     0.178 HD
ATOM     13  H11 UNL     1     -18.264  -0.355   3.357  1.00  0.00     0.178 HD
ENDBRANCH   8  11
ENDBRANCH   3   7
BRANCH   5  14
HETATM   14  C4  UNL     1     -23.534  -2.250   6.862  1.00  0.00     0.168 C 
BRANCH  14  15
HETATM   15  O1  UNL     1     -24.421  -3.286   6.600  1.00  0.00    -0.400 OA
ATOM     16  H1  UNL     1     -24.435  -3.447   5.664  1.00  0.00     0.209 HD
ENDBRANCH  14  15
ENDBRANCH   5  14
ENDBRANCH   1   2
BRANCH   1  17
HETATM   17  O2  UNL     1     -23.165   3.018   6.600  1.00  0.00    -0.369 OA
ATOM     18  H2  UNL     1     -22.980   3.949   6.635  1.00  0.00     0.212 HD
ENDBRANCH   1  17
BRANCH   1  19
HETATM   19  N4  UNL     1     -23.470   3.327   4.295  1.00  0.00    -0.046 N 
ATOM     20  H42 UNL     1     -23.911   2.794   3.545  1.00  0.00     0.280 HD
ATOM     21  H41 UNL     1     -24.272   3.878   4.597  1.00  0.00     0.280 HD
BRANCH  19  22
HETATM   22  C8  UNL     1     -22.411   4.182   3.779  1.00  0.00     0.271 C 
BRANCH  22  23
HETATM   23  C9  UNL     1     -22.059   3.876   2.351  1.00  0.00     0.247 C 
HETATM   24  N5  UNL     1     -21.101   2.785   2.257  1.00  0.00    -0.064 N 
HETATM   25  C10 UNL     1     -19.793   3.429   2.388  1.00  0.00     0.267 C 
ATOM     26  H52 UNL     1     -21.262   2.031   2.924  1.00  0.00     0.277 HD
ATOM     27  H51 UNL     1     -21.200   2.216   1.416  1.00  0.00     0.277 HD
HETATM   28  C11 UNL     1     -19.951   4.605   1.425  1.00  0.00     0.179 C 
HETATM   29  C12 UNL     1     -21.318   5.097   1.812  1.00  0.00     0.232 C 
HETATM   30  F1  UNL     1     -21.114   6.041   2.813  1.00  0.00    -0.244 F 
BRANCH  28  31
HETATM   31  O3  UNL     1     -18.974   5.560   1.696  1.00  0.00    -0.391 OA
ATOM     32  H3  UNL     1     -19.204   6.378   1.271  1.00  0.00     0.210 HD
ENDBRANCH  28  31
ENDBRANCH  22  23
ENDBRANCH  19  22
ENDBRANCH   1  19
TORSDOF 10
ENDMDL
MODEL 2
REMARK VINA RESULT: -7.248625631      2.310      3.257
REMARK  10 active torsions:
REMARK  status: ('A' for Active; 'I' for Inactive)
REMARK    1  A    between atoms: N1_1  and  N2_4 
REMARK    2  A    between atoms: N3_6  and  C1_8 
REMARK    3  A    between atoms: C3_10  and  C4_11 
REMARK    4  A    between atoms: C4_11  and  O1_12 
REMARK    5  A    between atoms: C6_15  and  C7_16 
REMARK    6  A    between atoms: C7_16  and  O2_17 
REMARK    7  A    between atoms: C7_16  and  N4_19 
REMARK    8  A    between atoms: N4_19  and  C8_22 
REMARK    9  A    between atoms: C8_22  and  C9_23 
REMARK   10  A    between atoms: C11_28  and  O3_29 
ROOT
HETATM    1  C7  UNL     1     -20.969  -0.096   3.360  1.00  0.00     0.324 C 
ENDROOT
BRANCH   1   2
HETATM    2  C6  UNL     1     -21.532  -0.450   4.692  1.00  0.00     0.067 C 
HETATM    3  C1  UNL     1     -22.091   0.785   5.408  1.00  0.00     0.109 C 
HETATM    4  C2  UNL     1     -22.883   0.155   6.532  1.00  0.00     0.034 C 
HETATM    5  C3  UNL     1     -23.113  -1.293   6.150  1.00  0.00     0.012 C 
HETATM    6  C5  UNL     1     -22.786  -1.298   4.651  1.00  0.00     0.017 C 
BRANCH   3   7
HETATM    7  N3  UNL     1     -23.059   1.403   4.515  1.00  0.00    -0.317 N 
HETATM    8  N2  UNL     1     -23.118   2.622   4.357  1.00  0.00    -0.253 N 
ATOM      9  H2  UNL     1     -23.172   2.939   5.325  1.00  0.00     0.207 HD
ATOM     10  H3  UNL     1     -23.709   0.807   4.002  1.00  0.00     0.182 HD
BRANCH   8  11
HETATM   11  N1  UNL     1     -23.152   3.690   3.763  1.00  0.00    -0.331 N 
ATOM     12  H12 UNL     1     -22.338   3.545   3.166  1.00  0.00     0.178 HD
ATOM     13  H11 UNL     1     -23.485   4.618   3.500  1.00  0.00     0.178 HD
ENDBRANCH   8  11
ENDBRANCH   3   7
BRANCH   5  14
HETATM   14  C4  UNL     1     -24.500  -1.756   6.451  1.00  0.00     0.168 C 
BRANCH  14  15
HETATM   15  O1  UNL     1     -24.501  -3.143   6.530  1.00  0.00    -0.400 OA
ATOM     16  H1  UNL     1     -24.486  -3.397   7.446  1.00  0.00     0.209 HD
ENDBRANCH  14  15
ENDBRANCH   5  14
ENDBRANCH   1   2
BRANCH   1  17
HETATM   17  O2  UNL     1     -21.172  -1.060   2.390  1.00  0.00    -0.369 OA
ATOM     18  H2  UNL     1     -20.395  -1.271   1.886  1.00  0.00     0.212 HD
ENDBRANCH   1  17
BRANCH   1  19
HETATM   19  N4  UNL     1     -19.613   0.371   3.401  1.00  0.00    -0.046 N 
ATOM     20  H42 UNL     1     -19.426   0.880   4.265  1.00  0.00     0.280 HD
ATOM     21  H41 UNL     1     -18.961  -0.403   3.524  1.00  0.00     0.280 HD
BRANCH  19  22
HETATM   22  C8  UNL     1     -19.265   1.170   2.236  1.00  0.00     0.271 C 
BRANCH  22  23
HETATM   23  C9  UNL     1     -19.863   2.547   2.274  1.00  0.00     0.247 C 
HETATM   24  N5  UNL     1     -20.701   2.802   1.113  1.00  0.00    -0.064 N 
HETATM   25  C10 UNL     1     -19.776   3.287   0.088  1.00  0.00     0.267 C 
ATOM     26  H52 UNL     1     -21.261   2.001   0.821  1.00  0.00     0.277 HD
ATOM     27  H51 UNL     1     -21.485   3.429   1.295  1.00  0.00     0.277 HD
HETATM   28  C11 UNL     1     -18.969   4.310   0.887  1.00  0.00     0.179 C 
HETATM   29  C12 UNL     1     -18.702   3.531   2.145  1.00  0.00     0.232 C 
HETATM   30  F1  UNL     1     -17.502   2.863   1.932  1.00  0.00    -0.244 F 
BRANCH  28  31
HETATM   31  O3  UNL     1     -17.787   4.600   0.210  1.00  0.00    -0.391 OA
ATOM     32  H3  UNL     1     -17.840   5.473  -0.160  1.00  0.00     0.210 HD
ENDBRANCH  28  31
ENDBRANCH  22  23
ENDBRANCH  19  22
ENDBRANCH   1  19
TORSDOF 10
ENDMDL
MODEL 3
REMARK VINA RESULT: -7.167132959      2.389      3.496
REMARK  10 active torsions:
REMARK  status: ('A' for Active; 'I' for Inactive)
REMARK    1  A    between atoms: N1_1  and  N2_4 
REMARK    2  A    between atoms: N3_6  and  C1_8 
REMARK    3  A    between atoms: C3_10  and  C4_11 
REMARK    4  A    between atoms: C4_11  and  O1_12 
REMARK    5  A    between atoms: C6_15  and  C7_16 
REMARK    6  A    between atoms: C7_16  and  O2_17 
REMARK    7  A    between atoms: C7_16  and  N4_19 
REMARK    8  A    between atoms: N4_19  and  C8_22 
REMARK    9  A    between atoms: C8_22  and  C9_23 
REMARK   10  A    between atoms: C11_28  and  O3_29 
ROOT
HETATM    1  C7  UNL     1     -22.680   2.009   5.895  1.00  0.00     0.324 C 
ENDROOT
BRANCH   1   2
HETATM    2  C6  UNL     1     -22.862   0.673   6.527  1.00  0.00     0.067 C 
HETATM    3  C1  UNL     1     -23.758   0.759   7.768  1.00  0.00     0.109 C 
HETATM    4  C2  UNL     1     -24.068  -0.699   8.024  1.00  0.00     0.034 C 
HETATM    5  C3  UNL     1     -23.757  -1.445   6.743  1.00  0.00     0.012 C 
HETATM    6  C5  UNL     1     -23.670  -0.315   5.710  1.00  0.00     0.017 C 
BRANCH   3   7
HETATM    7  N3  UNL     1     -25.007   1.383   7.359  1.00  0.00    -0.317 N 
HETATM    8  N2  UNL     1     -25.533   2.283   8.013  1.00  0.00    -0.253 N 
ATOM      9  H2  UNL     1     -25.555   1.860   8.941  1.00  0.00     0.207 HD
ATOM     10  H3  UNL     1     -25.461   1.065   6.503  1.00  0.00     0.182 HD
BRANCH   8  11
HETATM   11  N1  UNL     1     -26.046   3.369   8.244  1.00  0.00    -0.331 N 
ATOM     12  H12 UNL     1     -25.824   3.820   7.357  1.00  0.00     0.178 HD
ATOM     13  H11 UNL     1     -26.549   4.087   8.764  1.00  0.00     0.178 HD
ENDBRANCH   8  11
ENDBRANCH   3   7
BRANCH   5  14
HETATM   14  C4  UNL     1     -24.790  -2.470   6.407  1.00  0.00     0.168 C 
BRANCH  14  15
HETATM   15  O1  UNL     1     -24.304  -3.725   6.754  1.00  0.00    -0.400 OA
ATOM     16  H1  UNL     1     -24.024  -4.173   5.964  1.00  0.00     0.209 HD
ENDBRANCH  14  15
ENDBRANCH   5  14
ENDBRANCH   1   2
BRANCH   1  17
HETATM   17  O2  UNL     1     -23.221   3.053   6.623  1.00  0.00    -0.369 OA
ATOM     18  H2  UNL     1     -22.585   3.534   7.139  1.00  0.00     0.212 HD
ENDBRANCH   1  17
BRANCH   1  19
HETATM   19  N4  UNL     1     -23.041   2.055   4.507  1.00  0.00    -0.046 N 
ATOM     20  H42 UNL     1     -23.339   1.138   4.174  1.00  0.00     0.280 HD
ATOM     21  H41 UNL     1     -23.911   2.569   4.371  1.00  0.00     0.280 HD
BRANCH  19  22
HETATM   22  C8  UNL     1     -21.977   2.595   3.675  1.00  0.00     0.271 C 
BRANCH  22  23
HETATM   23  C9  UNL     1     -21.434   1.591   2.698  1.00  0.00     0.247 C 
HETATM   24  N5  UNL     1     -21.020   0.365   3.363  1.00  0.00    -0.064 N 
HETATM   25  C10 UNL     1     -19.644   0.621   3.787  1.00  0.00     0.267 C 
ATOM     26  H52 UNL     1     -21.640   0.072   4.118  1.00  0.00     0.277 HD
ATOM     27  H51 UNL     1     -21.130  -0.474   2.794  1.00  0.00     0.277 HD
HETATM   28  C11 UNL     1     -19.055   1.224   2.512  1.00  0.00     0.179 C 
HETATM   29  C12 UNL     1     -20.147   2.185   2.130  1.00  0.00     0.232 C 
HETATM   30  F1  UNL     1     -19.833   3.387   2.755  1.00  0.00    -0.244 F 
BRANCH  28  31
HETATM   31  O3  UNL     1     -17.874   1.896   2.819  1.00  0.00    -0.391 OA
ATOM     32  H3  UNL     1     -18.064   2.813   2.982  1.00  0.00     0.210 HD
ENDBRANCH  28  31
ENDBRANCH  22  23
ENDBRANCH  19  22
ENDBRANCH   1  19
TORSDOF 10
ENDMDL
MODEL 4
REMARK VINA RESULT: -7.120251750      2.951      6.557
REMARK  10 active torsions:
REMARK  status: ('A' for Active; 'I' for Inactive)
REMARK    1  A    between atoms: N1_1  and  N2_4 
REMARK    2  A    between atoms: N3_6  and  C1_8 
REMARK    3  A    between atoms: C3_10  and  C4_11 
REMARK    4  A    between atoms: C4_11  and  O1_12 
REMARK    5  A    between atoms: C6_15  and  C7_16 
REMARK    6  A    between atoms: C7_16  and  O2_17 
REMARK    7  A    between atoms: C7_16  and  N4_19 
REMARK    8  A    between atoms: N4_19  and  C8_22 
REMARK    9  A    between atoms: C8_22  and  C9_23 
REMARK   10  A    between atoms: C11_28  and  O3_29 
ROOT
HETATM    1  C7  UNL     1     -19.719   0.972   4.188  1.00  0.00     0.324 C 
ENDROOT
BRANCH   1   2
HETATM    2  C6  UNL     1     -19.499   1.935   3.074  1.00  0.00     0.067 C 
HETATM    3  C1  UNL     1     -19.735   1.276   1.710  1.00  0.00     0.109 C 
HETATM    4  C2  UNL     1     -19.791   2.477   0.795  1.00  0.00     0.034 C 
HETATM    5  C3  UNL     1     -20.045   3.686   1.671  1.00  0.00     0.012 C 
HETATM    6  C5  UNL     1     -20.517   3.052   2.986  1.00  0.00     0.017 C 
BRANCH   3   7
HETATM    7  N3  UNL     1     -21.073   0.706   1.730  1.00  0.00    -0.317 N 
HETATM    8  N2  UNL     1     -21.273  -0.501   1.599  1.00  0.00    -0.253 N 
ATOM      9  H2  UNL     1     -20.743  -0.693   0.749  1.00  0.00     0.207 HD
ATOM     10  H3  UNL     1     -21.872   1.328   1.857  1.00  0.00     0.182 HD
BRANCH   8  11
HETATM   11  N1  UNL     1     -21.710  -1.614   1.854  1.00  0.00    -0.331 N 
ATOM     12  H12 UNL     1     -22.123  -1.815   0.944  1.00  0.00     0.178 HD
ATOM     13  H11 UNL     1     -21.913  -2.449   2.403  1.00  0.00     0.178 HD
ENDBRANCH   8  11
ENDBRANCH   3   7
BRANCH   5  14
HETATM   14  C4  UNL     1     -21.042   4.628   1.081  1.00  0.00     0.168 C 
BRANCH  14  15
HETATM   15  O1  UNL     1     -20.632   4.967  -0.202  1.00  0.00    -0.400 OA
ATOM     16  H1  UNL     1     -21.356   5.386  -0.654  1.00  0.00     0.209 HD
ENDBRANCH  14  15
ENDBRANCH   5  14
ENDBRANCH   1   2
BRANCH   1  17
HETATM   17  O2  UNL     1     -19.547  -0.352   3.829  1.00  0.00    -0.369 OA
ATOM     18  H2  UNL     1     -19.298  -0.919   4.550  1.00  0.00     0.212 HD
ENDBRANCH   1  17
BRANCH   1  19
HETATM   19  N4  UNL     1     -20.930   1.194   4.924  1.00  0.00    -0.046 N 
ATOM     20  H42 UNL     1     -20.749   1.718   5.780  1.00  0.00     0.280 HD
ATOM     21  H41 UNL     1     -21.532   1.864   4.447  1.00  0.00     0.280 HD
BRANCH  19  22
HETATM   22  C8  UNL     1     -21.642  -0.043   5.207  1.00  0.00     0.271 C 
BRANCH  22  23
HETATM   23  C9  UNL     1     -23.134   0.117   5.148  1.00  0.00     0.247 C 
HETATM   24  N5  UNL     1     -23.565   1.366   5.756  1.00  0.00    -0.064 N 
HETATM   25  C10 UNL     1     -23.706   1.055   7.179  1.00  0.00     0.267 C 
ATOM     26  H52 UNL     1     -22.951   2.156   5.562  1.00  0.00     0.277 HD
ATOM     27  H51 UNL     1     -24.403   1.767   5.334  1.00  0.00     0.277 HD
HETATM   28  C11 UNL     1     -24.486  -0.258   7.113  1.00  0.00     0.179 C 
HETATM   29  C12 UNL     1     -23.727  -0.977   6.033  1.00  0.00     0.232 C 
HETATM   30  F1  UNL     1     -22.726  -1.691   6.683  1.00  0.00    -0.244 F 
BRANCH  28  31
HETATM   31  O3  UNL     1     -24.382  -0.921   8.334  1.00  0.00    -0.391 OA
ATOM     32  H3  UNL     1     -23.646  -1.520   8.306  1.00  0.00     0.210 HD
ENDBRANCH  28  31
ENDBRANCH  22  23
ENDBRANCH  19  22
ENDBRANCH   1  19
TORSDOF 10
ENDMDL
MODEL 5
REMARK VINA RESULT: -7.119790961      2.313      3.247
REMARK  10 active torsions:
REMARK  status: ('A' for Active; 'I' for Inactive)
REMARK    1  A    between atoms: N1_1  and  N2_4 
REMARK    2  A    between atoms: N3_6  and  C1_8 
REMARK    3  A    between atoms: C3_10  and  C4_11 
REMARK    4  A    between atoms: C4_11  and  O1_12 
REMARK    5  A    between atoms: C6_15  and  C7_16 
REMARK    6  A    between atoms: C7_16  and  O2_17 
REMARK    7  A    between atoms: C7_16  and  N4_19 
REMARK    8  A    between atoms: N4_19  and  C8_22 
REMARK    9  A    between atoms: C8_22  and  C9_23 
REMARK   10  A    between atoms: C11_28  and  O3_29 
ROOT
HETATM    1  C7  UNL     1     -21.651   0.523   3.036  1.00  0.00     0.324 C 
ENDROOT
BRANCH   1   2
HETATM    2  C6  UNL     1     -21.774  -0.369   4.222  1.00  0.00     0.067 C 
HETATM    3  C1  UNL     1     -21.975   0.439   5.510  1.00  0.00     0.109 C 
HETATM    4  C2  UNL     1     -22.403  -0.637   6.483  1.00  0.00     0.034 C 
HETATM    5  C3  UNL     1     -22.853  -1.824   5.655  1.00  0.00     0.012 C 
HETATM    6  C5  UNL     1     -23.033  -1.210   4.261  1.00  0.00     0.017 C 
BRANCH   3   7
HETATM    7  N3  UNL     1     -23.132   1.297   5.307  1.00  0.00    -0.317 N 
HETATM    8  N2  UNL     1     -23.912   1.570   6.219  1.00  0.00    -0.253 N 
ATOM      9  H2  UNL     1     -24.132   0.638   6.569  1.00  0.00     0.207 HD
ATOM     10  H3  UNL     1     -23.301   1.686   4.379  1.00  0.00     0.182 HD
BRANCH   8  11
HETATM   11  N1  UNL     1     -24.587   2.263   6.967  1.00  0.00    -0.331 N 
ATOM     12  H12 UNL     1     -25.506   1.922   6.683  1.00  0.00     0.178 HD
ATOM     13  H11 UNL     1     -24.796   2.957   7.685  1.00  0.00     0.178 HD
ENDBRANCH   8  11
ENDBRANCH   3   7
BRANCH   5  14
HETATM   14  C4  UNL     1     -24.097  -2.458   6.184  1.00  0.00     0.168 C 
BRANCH  14  15
HETATM   15  O1  UNL     1     -24.809  -1.510   6.907  1.00  0.00    -0.400 OA
ATOM     16  H1  UNL     1     -25.630  -1.337   6.460  1.00  0.00     0.209 HD
ENDBRANCH  14  15
ENDBRANCH   5  14
ENDBRANCH   1   2
BRANCH   1  17
HETATM   17  O2  UNL     1     -22.832   0.696   2.339  1.00  0.00    -0.369 OA
ATOM     18  H2  UNL     1     -23.531   0.113   2.611  1.00  0.00     0.212 HD
ENDBRANCH   1  17
BRANCH   1  19
HETATM   19  N4  UNL     1     -20.543   0.210   2.180  1.00  0.00    -0.046 N 
ATOM     20  H42 UNL     1     -20.136  -0.693   2.421  1.00  0.00     0.280 HD
ATOM     21  H41 UNL     1     -20.858   0.000   1.233  1.00  0.00     0.280 HD
BRANCH  19  22
HETATM   22  C8  UNL     1     -19.532   1.257   2.176  1.00  0.00     0.271 C 
BRANCH  22  23
HETATM   23  C9  UNL     1     -20.120   2.635   2.067  1.00  0.00     0.247 C 
HETATM   24  N5  UNL     1     -20.784   2.835   0.788  1.00  0.00    -0.064 N 
HETATM   25  C10 UNL     1     -19.721   3.271  -0.117  1.00  0.00     0.267 C 
ATOM     26  H52 UNL     1     -21.303   2.022   0.458  1.00  0.00     0.277 HD
ATOM     27  H51 UNL     1     -21.582   3.470   0.829  1.00  0.00     0.277 HD
HETATM   28  C11 UNL     1     -19.028   4.331   0.740  1.00  0.00     0.179 C 
HETATM   29  C12 UNL     1     -18.946   3.612   2.057  1.00  0.00     0.232 C 
HETATM   30  F1  UNL     1     -17.732   2.933   2.046  1.00  0.00    -0.244 F 
BRANCH  28  31
HETATM   31  O3  UNL     1     -17.760   4.588   0.223  1.00  0.00    -0.391 OA
ATOM     32  H3  UNL     1     -17.431   3.810  -0.211  1.00  0.00     0.210 HD
ENDBRANCH  28  31
ENDBRANCH  22  23
ENDBRANCH  19  22
ENDBRANCH   1  19
TORSDOF 10
ENDMDL
