MODEL 1
REMARK VINA RESULT: -7.045349533      0.000      0.000
REMARK  7 active torsions:
REMARK  status: ('A' for Active; 'I' for Inactive)
REMARK    1  A    between atoms: C1_4  and  C2_5 
REMARK    2  A    between atoms: C1_4  and  N4_19 
REMARK    3  A    between atoms: C2_5  and  N2_6 
REMARK    4  A    between atoms: N2_6  and  C3_8 
REMARK    5  A    between atoms: C3_8  and  C4_9 
REMARK    6  A    between atoms: C4_9  and  O1_10 
REMARK    7  A    between atoms: C4_9  and  C5_12 
REMARK       I    between atoms: N4_19  and  C8_21 
REMARK       I    between atoms: C8_21  and  N5_22 
REMARK       I    between atoms: C8_21  and  N6_26 
ROOT
HETATM    1  N1  UNL     1     -18.657   0.597   2.784  1.00  0.00    -0.388 N 
ATOM      2  H11 UNL     1     -17.935   0.791   2.090  1.00  0.00     0.157 HD
ATOM      3  H12 UNL     1     -18.773  -0.310   3.237  1.00  0.00     0.157 HD
HETATM    4  C1  UNL     1     -19.469   1.585   3.090  1.00  0.00     0.091 C 
ENDROOT
BRANCH   4   5
HETATM    5  C2  UNL     1     -20.515   1.303   4.096  1.00  0.00     0.190 C 
BRANCH   5   6
HETATM    6  N2  UNL     1     -21.832   1.103   3.583  1.00  0.00    -0.412 N 
ATOM      7  H2  UNL     1     -22.551   1.820   3.676  1.00  0.00     0.153 HD
BRANCH   6   8
HETATM    8  C3  UNL     1     -22.102  -0.132   2.940  1.00  0.00     0.154 C 
BRANCH   8   9
HETATM    9  C4  UNL     1     -21.852  -1.358   3.794  1.00  0.00     0.210 C 
BRANCH   9  10
HETATM   10  O1  UNL     1     -22.072  -2.451   2.906  1.00  0.00    -0.386 OA
ATOM     11  H1  UNL     1     -23.015  -2.476   2.798  1.00  0.00     0.210 HD
ENDBRANCH   9  10
BRANCH   9  12
HETATM   12  C5  UNL     1     -22.827  -1.532   4.885  1.00  0.00     0.155 A 
HETATM   13  N3  UNL     1     -23.477  -2.623   5.302  1.00  0.00    -0.345 N 
HETATM   14  C6  UNL     1     -24.271  -2.302   6.339  1.00  0.00     0.135 A 
ATOM     15  H3  UNL     1     -23.386  -3.555   4.896  1.00  0.00     0.167 HD
HETATM   16  C7  UNL     1     -24.080  -0.954   6.544  1.00  0.00     0.139 A 
HETATM   17 BR1  UNL     1     -24.915   0.146   7.878  1.00  0.00    -0.021 Br
HETATM   18  O2  UNL     1     -23.217  -0.552   5.656  1.00  0.00    -0.286 OA
ENDBRANCH   9  12
ENDBRANCH   8   9
ENDBRANCH   6   8
ENDBRANCH   5   6
ENDBRANCH   4   5
BRANCH   4  19
HETATM   19  N4  UNL     1     -19.311   2.831   2.467  1.00  0.00    -0.330 N 
HETATM   20  C8  UNL     1     -18.245   3.201   1.582  1.00  0.00     0.481 C 
HETATM   21  N5  UNL     1     -18.421   4.583   1.142  1.00  0.00    -0.033 N 
HETATM   22  N6  UNL     1     -16.943   3.101   2.254  1.00  0.00    -0.033 N 
ATOM     23  H53 UNL     1     -19.338   4.738   0.723  1.00  0.00     0.278 HD
ATOM     24  H52 UNL     1     -18.506   5.226   1.928  1.00  0.00     0.278 HD
ATOM     25  H51 UNL     1     -17.663   4.846   0.512  1.00  0.00     0.278 HD
ATOM     26  H63 UNL     1     -16.922   3.646   3.116  1.00  0.00     0.278 HD
ATOM     27  H62 UNL     1     -16.796   2.174   2.653  1.00  0.00     0.278 HD
ATOM     28  H61 UNL     1     -16.185   3.365   1.625  1.00  0.00     0.278 HD
ATOM     29  H4  UNL     1     -20.019   3.539   2.662  1.00  0.00     0.164 HD
ENDBRANCH   4  19
TORSDOF 7
ENDMDL
MODEL 2
REMARK VINA RESULT: -6.775777190      1.101      1.261
REMARK  7 active torsions:
REMARK  status: ('A' for Active; 'I' for Inactive)
REMARK    1  A    between atoms: C1_4  and  C2_5 
REMARK    2  A    between atoms: C1_4  and  N4_19 
REMARK    3  A    between atoms: C2_5  and  N2_6 
REMARK    4  A    between atoms: N2_6  and  C3_8 
REMARK    5  A    between atoms: C3_8  and  C4_9 
REMARK    6  A    between atoms: C4_9  and  O1_10 
REMARK    7  A    between atoms: C4_9  and  C5_12 
REMARK       I    between atoms: N4_19  and  C8_21 
REMARK       I    between atoms: C8_21  and  N5_22 
REMARK       I    between atoms: C8_21  and  N6_26 
ROOT
HETATM    1  N1  UNL     1     -18.648   1.029   2.732  1.00  0.00    -0.388 N 
ATOM      2  H11 UNL     1     -17.973   1.431   3.384  1.00  0.00     0.157 HD
ATOM      3  H12 UNL     1     -18.661   0.042   2.476  1.00  0.00     0.157 HD
HETATM    4  C1  UNL     1     -19.533   1.849   2.211  1.00  0.00     0.091 C 
ENDROOT
BRANCH   4   5
HETATM    5  C2  UNL     1     -20.510   1.266   1.267  1.00  0.00     0.190 C 
BRANCH   5   6
HETATM    6  N2  UNL     1     -20.953  -0.057   1.570  1.00  0.00    -0.412 N 
ATOM      7  H2  UNL     1     -20.605  -0.863   1.052  1.00  0.00     0.153 HD
BRANCH   6   8
HETATM    8  C3  UNL     1     -21.895  -0.206   2.619  1.00  0.00     0.154 C 
BRANCH   8   9
HETATM    9  C4  UNL     1     -21.621  -1.363   3.558  1.00  0.00     0.210 C 
BRANCH   9  10
HETATM   10  O1  UNL     1     -21.770  -2.519   2.739  1.00  0.00    -0.386 OA
ATOM     11  H1  UNL     1     -22.293  -3.111   3.266  1.00  0.00     0.210 HD
ENDBRANCH   9  10
BRANCH   9  12
HETATM   12  C5  UNL     1     -22.618  -1.507   4.632  1.00  0.00     0.155 A 
HETATM   13  N3  UNL     1     -23.301  -2.581   5.044  1.00  0.00    -0.345 N 
HETATM   14  C6  UNL     1     -24.105  -2.235   6.064  1.00  0.00     0.135 A 
ATOM     15  H3  UNL     1     -23.224  -3.517   4.646  1.00  0.00     0.167 HD
HETATM   16  C7  UNL     1     -23.887  -0.890   6.264  1.00  0.00     0.139 A 
HETATM   17 BR1  UNL     1     -24.721   0.237   7.576  1.00  0.00    -0.021 Br
HETATM   18  O2  UNL     1     -23.000  -0.514   5.390  1.00  0.00    -0.286 OA
ENDBRANCH   9  12
ENDBRANCH   8   9
ENDBRANCH   6   8
ENDBRANCH   5   6
ENDBRANCH   4   5
BRANCH   4  19
HETATM   19  N4  UNL     1     -19.514   3.206   2.563  1.00  0.00    -0.330 N 
HETATM   20  C8  UNL     1     -19.389   4.311   1.656  1.00  0.00     0.481 C 
HETATM   21  N5  UNL     1     -19.402   5.568   2.398  1.00  0.00    -0.033 N 
HETATM   22  N6  UNL     1     -18.126   4.238   0.910  1.00  0.00    -0.033 N 
ATOM     23  H53 UNL     1     -20.227   5.653   2.994  1.00  0.00     0.278 HD
ATOM     24  H52 UNL     1     -18.691   5.589   3.128  1.00  0.00     0.278 HD
ATOM     25  H51 UNL     1     -19.314   6.353   1.754  1.00  0.00     0.278 HD
ATOM     26  H63 UNL     1     -17.322   4.172   1.534  1.00  0.00     0.278 HD
ATOM     27  H62 UNL     1     -18.023   3.344   0.430  1.00  0.00     0.278 HD
ATOM     28  H61 UNL     1     -18.037   5.023   0.265  1.00  0.00     0.278 HD
ATOM     29  H4  UNL     1     -19.597   3.428   3.555  1.00  0.00     0.164 HD
ENDBRANCH   4  19
TORSDOF 7
ENDMDL
MODEL 3
REMARK VINA RESULT: -6.756434954      4.558      7.086
REMARK  7 active torsions:
REMARK  status: ('A' for Active; 'I' for Inactive)
REMARK    1  A    between atoms: C1_4  and  C2_5 
REMARK    2  A    between atoms: C1_4  and  N4_19 
REMARK    3  A    between atoms: C2_5  and  N2_6 
REMARK    4  A    between atoms: N2_6  and  C3_8 
REMARK    5  A    between atoms: C3_8  and  C4_9 
REMARK    6  A    between atoms: C4_9  and  O1_10 
REMARK    7  A    between atoms: C4_9  and  C5_12 
REMARK       I    between atoms: N4_19  and  C8_21 
REMARK       I    between atoms: C8_21  and  N5_22 
REMARK       I    between atoms: C8_21  and  N6_26 
ROOT
HETATM    1  N1  UNL     1     -24.264   2.697   7.980  1.00  0.00    -0.388 N 
ATOM      2  H11 UNL     1     -24.138   3.696   8.143  1.00  0.00     0.157 HD
ATOM      3  H12 UNL     1     -23.640   2.140   7.397  1.00  0.00     0.157 HD
HETATM    4  C1  UNL     1     -25.293   2.124   8.564  1.00  0.00     0.091 C 
ENDROOT
BRANCH   4   5
HETATM    5  C2  UNL     1     -25.474   0.676   8.328  1.00  0.00     0.190 C 
BRANCH   5   6
HETATM    6  N2  UNL     1     -24.780   0.138   7.203  1.00  0.00    -0.412 N 
ATOM      7  H2  UNL     1     -24.677   0.671   6.340  1.00  0.00     0.153 HD
BRANCH   6   8
HETATM    8  C3  UNL     1     -24.241  -1.168   7.332  1.00  0.00     0.154 C 
BRANCH   8   9
HETATM    9  C4  UNL     1     -24.176  -1.956   6.040  1.00  0.00     0.210 C 
BRANCH   9  10
HETATM   10  O1  UNL     1     -23.898  -3.289   6.459  1.00  0.00    -0.386 OA
ATOM     11  H1  UNL     1     -22.953  -3.362   6.389  1.00  0.00     0.210 HD
ENDBRANCH   9  10
BRANCH   9  12
HETATM   12  C5  UNL     1     -23.053  -1.574   5.165  1.00  0.00     0.155 A 
HETATM   13  N3  UNL     1     -22.656  -2.080   3.992  1.00  0.00    -0.345 N 
HETATM   14  C6  UNL     1     -21.575  -1.407   3.559  1.00  0.00     0.135 A 
ATOM     15  H3  UNL     1     -23.103  -2.855   3.503  1.00  0.00     0.167 HD
HETATM   16  C7  UNL     1     -21.321  -0.458   4.523  1.00  0.00     0.139 A 
HETATM   17 BR1  UNL     1     -19.909   0.843   4.528  1.00  0.00    -0.021 Br
HETATM   18  O2  UNL     1     -22.226  -0.604   5.448  1.00  0.00    -0.286 OA
ENDBRANCH   9  12
ENDBRANCH   8   9
ENDBRANCH   6   8
ENDBRANCH   5   6
ENDBRANCH   4   5
BRANCH   4  19
HETATM   19  N4  UNL     1     -26.151   2.890   9.366  1.00  0.00    -0.330 N 
HETATM   20  C8  UNL     1     -27.375   3.505   8.942  1.00  0.00     0.481 C 
HETATM   21  N5  UNL     1     -27.984   4.223  10.058  1.00  0.00    -0.033 N 
HETATM   22  N6  UNL     1     -27.133   4.468   7.860  1.00  0.00    -0.033 N 
ATOM     23  H53 UNL     1     -28.119   3.623  10.872  1.00  0.00     0.278 HD
ATOM     24  H52 UNL     1     -27.342   4.896  10.475  1.00  0.00     0.278 HD
ATOM     25  H51 UNL     1     -28.855   4.660   9.756  1.00  0.00     0.278 HD
ATOM     26  H63 UNL     1     -26.435   5.163   8.124  1.00  0.00     0.278 HD
ATOM     27  H62 UNL     1     -26.636   4.040   7.078  1.00  0.00     0.278 HD
ATOM     28  H61 UNL     1     -28.003   4.906   7.558  1.00  0.00     0.278 HD
ATOM     29  H4  UNL     1     -25.879   3.021  10.341  1.00  0.00     0.164 HD
ENDBRANCH   4  19
TORSDOF 7
ENDMDL
MODEL 4
REMARK VINA RESULT: -6.737611273      2.573      3.076
REMARK  7 active torsions:
REMARK  status: ('A' for Active; 'I' for Inactive)
REMARK    1  A    between atoms: C1_4  and  C2_5 
REMARK    2  A    between atoms: C1_4  and  N4_19 
REMARK    3  A    between atoms: C2_5  and  N2_6 
REMARK    4  A    between atoms: N2_6  and  C3_8 
REMARK    5  A    between atoms: C3_8  and  C4_9 
REMARK    6  A    between atoms: C4_9  and  O1_10 
REMARK    7  A    between atoms: C4_9  and  C5_12 
REMARK       I    between atoms: N4_19  and  C8_21 
REMARK       I    between atoms: C8_21  and  N5_22 
REMARK       I    between atoms: C8_21  and  N6_26 
ROOT
HETATM    1  N1  UNL     1     -22.762   2.983   0.389  1.00  0.00    -0.388 N 
ATOM      2  H11 UNL     1     -23.166   3.740  -0.163  1.00  0.00     0.157 HD
ATOM      3  H12 UNL     1     -22.872   1.997   0.154  1.00  0.00     0.157 HD
HETATM    4  C1  UNL     1     -22.070   3.326   1.452  1.00  0.00     0.091 C 
ENDROOT
BRANCH   4   5
HETATM    5  C2  UNL     1     -21.484   2.229   2.250  1.00  0.00     0.190 C 
BRANCH   5   6
HETATM    6  N2  UNL     1     -22.400   1.233   2.705  1.00  0.00    -0.412 N 
ATOM      7  H2  UNL     1     -23.151   1.461   3.355  1.00  0.00     0.153 HD
BRANCH   6   8
HETATM    8  C3  UNL     1     -22.224  -0.087   2.216  1.00  0.00     0.154 C 
BRANCH   8   9
HETATM    9  C4  UNL     1     -21.687  -1.072   3.234  1.00  0.00     0.210 C 
BRANCH   9  10
HETATM   10  O1  UNL     1     -21.633  -2.308   2.528  1.00  0.00    -0.386 OA
ATOM     11  H1  UNL     1     -21.062  -2.853   3.056  1.00  0.00     0.210 HD
ENDBRANCH   9  10
BRANCH   9  12
HETATM   12  C5  UNL     1     -22.592  -1.305   4.373  1.00  0.00     0.155 A 
HETATM   13  N3  UNL     1     -23.127  -2.440   4.838  1.00  0.00    -0.345 N 
HETATM   14  C6  UNL     1     -23.898  -2.165   5.905  1.00  0.00     0.135 A 
ATOM     15  H3  UNL     1     -22.974  -3.368   4.446  1.00  0.00     0.167 HD
HETATM   16  C7  UNL     1     -23.815  -0.802   6.077  1.00  0.00     0.139 A 
HETATM   17 BR1  UNL     1     -24.681   0.251   7.429  1.00  0.00    -0.021 Br
HETATM   18  O2  UNL     1     -23.031  -0.346   5.143  1.00  0.00    -0.286 OA
ENDBRANCH   9  12
ENDBRANCH   8   9
ENDBRANCH   6   8
ENDBRANCH   5   6
ENDBRANCH   4   5
BRANCH   4  19
HETATM   19  N4  UNL     1     -21.918   4.682   1.775  1.00  0.00    -0.330 N 
HETATM   20  C8  UNL     1     -22.475   5.343   2.920  1.00  0.00     0.481 C 
HETATM   21  N5  UNL     1     -22.105   6.756   2.908  1.00  0.00    -0.033 N 
HETATM   22  N6  UNL     1     -23.942   5.259   2.914  1.00  0.00    -0.033 N 
ATOM     23  H53 UNL     1     -21.095   6.886   2.844  1.00  0.00     0.278 HD
ATOM     24  H52 UNL     1     -22.369   7.213   2.036  1.00  0.00     0.278 HD
ATOM     25  H51 UNL     1     -22.501   7.225   3.722  1.00  0.00     0.278 HD
ATOM     26  H63 UNL     1     -24.337   5.616   2.045  1.00  0.00     0.278 HD
ATOM     27  H62 UNL     1     -24.263   4.293   2.844  1.00  0.00     0.278 HD
ATOM     28  H61 UNL     1     -24.338   5.729   3.728  1.00  0.00     0.278 HD
ATOM     29  H4  UNL     1     -21.361   5.251   1.136  1.00  0.00     0.164 HD
ENDBRANCH   4  19
TORSDOF 7
ENDMDL
MODEL 5
REMARK VINA RESULT: -6.737279356      1.126      1.507
REMARK  7 active torsions:
REMARK  status: ('A' for Active; 'I' for Inactive)
REMARK    1  A    between atoms: C1_4  and  C2_5 
REMARK    2  A    between atoms: C1_4  and  N4_19 
REMARK    3  A    between atoms: C2_5  and  N2_6 
REMARK    4  A    between atoms: N2_6  and  C3_8 
REMARK    5  A    between atoms: C3_8  and  C4_9 
REMARK    6  A    between atoms: C4_9  and  O1_10 
REMARK    7  A    between atoms: C4_9  and  C5_12 
REMARK       I    between atoms: N4_19  and  C8_21 
REMARK       I    between atoms: C8_21  and  N5_22 
REMARK       I    between atoms: C8_21  and  N6_26 
ROOT
HETATM    1  N1  UNL     1     -20.879   2.123   0.033  1.00  0.00    -0.388 N 
ATOM      2  H11 UNL     1     -20.135   2.066  -0.662  1.00  0.00     0.157 HD
ATOM      3  H12 UNL     1     -21.871   2.118  -0.203  1.00  0.00     0.157 HD
HETATM    4  C1  UNL     1     -20.511   2.209   1.292  1.00  0.00     0.091 C 
ENDROOT
BRANCH   4   5
HETATM    5  C2  UNL     1     -21.589   2.291   2.300  1.00  0.00     0.190 C 
BRANCH   5   6
HETATM    6  N2  UNL     1     -21.679   1.192   3.206  1.00  0.00    -0.412 N 
ATOM      7  H2  UNL     1     -21.546   1.319   4.209  1.00  0.00     0.153 HD
BRANCH   6   8
HETATM    8  C3  UNL     1     -21.960  -0.085   2.656  1.00  0.00     0.154 C 
BRANCH   8   9
HETATM    9  C4  UNL     1     -21.638  -1.251   3.567  1.00  0.00     0.210 C 
BRANCH   9  10
HETATM   10  O1  UNL     1     -21.758  -2.395   2.726  1.00  0.00    -0.386 OA
ATOM     11  H1  UNL     1     -22.379  -2.952   3.179  1.00  0.00     0.210 HD
ENDBRANCH   9  10
BRANCH   9  12
HETATM   12  C5  UNL     1     -22.619  -1.451   4.649  1.00  0.00     0.155 A 
HETATM   13  N3  UNL     1     -23.255  -2.557   5.051  1.00  0.00    -0.345 N 
HETATM   14  C6  UNL     1     -24.062  -2.258   6.083  1.00  0.00     0.135 A 
ATOM     15  H3  UNL     1     -23.144  -3.483   4.638  1.00  0.00     0.167 HD
HETATM   16  C7  UNL     1     -23.896  -0.908   6.301  1.00  0.00     0.139 A 
HETATM   17 BR1  UNL     1     -24.761   0.166   7.636  1.00  0.00    -0.021 Br
HETATM   18  O2  UNL     1     -23.032  -0.484   5.424  1.00  0.00    -0.286 OA
ENDBRANCH   9  12
ENDBRANCH   8   9
ENDBRANCH   6   8
ENDBRANCH   5   6
ENDBRANCH   4   5
BRANCH   4  19
HETATM   19  N4  UNL     1     -19.147   2.216   1.617  1.00  0.00    -0.330 N 
HETATM   20  C8  UNL     1     -18.368   3.371   1.960  1.00  0.00     0.481 C 
HETATM   21  N5  UNL     1     -16.987   2.978   2.227  1.00  0.00    -0.033 N 
HETATM   22  N6  UNL     1     -18.359   4.345   0.861  1.00  0.00    -0.033 N 
ATOM     23  H53 UNL     1     -16.927   2.250   2.940  1.00  0.00     0.278 HD
ATOM     24  H52 UNL     1     -16.580   2.459   1.450  1.00  0.00     0.278 HD
ATOM     25  H51 UNL     1     -16.434   3.800   2.471  1.00  0.00     0.278 HD
ATOM     26  H63 UNL     1     -18.042   3.924  -0.012  1.00  0.00     0.278 HD
ATOM     27  H62 UNL     1     -19.305   4.600   0.576  1.00  0.00     0.278 HD
ATOM     28  H61 UNL     1     -17.805   5.166   1.105  1.00  0.00     0.278 HD
ATOM     29  H4  UNL     1     -18.664   1.317   1.609  1.00  0.00     0.164 HD
ENDBRANCH   4  19
TORSDOF 7
ENDMDL
