MODEL 1
REMARK VINA RESULT: -7.713425692      0.000      0.000
REMARK  9 active torsions:
REMARK  status: ('A' for Active; 'I' for Inactive)
REMARK    1  A    between atoms: O1_1  and  C1_3 
REMARK    2  A    between atoms: C1_3  and  C2_4 
REMARK    3  A    between atoms: C2_4  and  N1_5 
REMARK    4  A    between atoms: N1_5  and  C3_8 
REMARK    5  A    between atoms: C4_9  and  O2_10 
REMARK    6  A    between atoms: O2_10  and  C5_11 
REMARK    7  A    between atoms: C9_15  and  N2_16 
REMARK    8  A    between atoms: N2_16  and  O3_17 
REMARK    9  A    between atoms: C14_24  and  O4_25 
ROOT
HETATM    1  C3  UNL     1     -21.131   1.460   2.531  1.00  0.00     0.250 C 
HETATM    2  C4  UNL     1     -22.101   1.660   3.669  1.00  0.00     0.177 C 
HETATM    3  C11 UNL     1     -22.983   2.836   3.303  1.00  0.00     0.006 C 
HETATM    4  C12 UNL     1     -23.074   3.274   2.072  1.00  0.00     0.011 C 
HETATM    5  C13 UNL     1     -22.379   2.738   0.885  1.00  0.00     0.223 C 
HETATM    6  F1  UNL     1     -23.142   2.770  -0.266  1.00  0.00    -0.242 F 
HETATM    7  C14 UNL     1     -21.875   1.342   1.207  1.00  0.00     0.189 C 
ENDROOT
BRANCH   2   8
HETATM    8  O2  UNL     1     -22.950   0.596   3.869  1.00  0.00    -0.374 OA
BRANCH   8   9
HETATM    9  C5  UNL     1     -22.703  -0.137   5.027  1.00  0.00     0.127 C 
HETATM   10  C6  UNL     1     -22.904  -1.573   4.724  1.00  0.00     0.059 C 
HETATM   11  C7  UNL     1     -23.353  -2.401   5.843  1.00  0.00    -0.026 C 
HETATM   12  C8  UNL     1     -24.138  -1.911   6.786  1.00  0.00    -0.007 C 
HETATM   13  C9  UNL     1     -24.556  -0.509   6.692  1.00  0.00     0.131 C 
HETATM   14  C10 UNL     1     -23.498   0.411   6.164  1.00  0.00     0.059 C 
BRANCH  13  15
HETATM   15  N2  UNL     1     -24.992  -0.084   8.010  1.00  0.00    -0.095 NA
BRANCH  15  16
HETATM   16  O3  UNL     1     -24.211  -0.584   8.996  1.00  0.00    -0.295 OA
ATOM     17  H3  UNL     1     -24.718  -0.874   9.745  1.00  0.00     0.238 HD
ENDBRANCH  15  16
ENDBRANCH  13  15
ENDBRANCH   8   9
ENDBRANCH   2   8
BRANCH   1  18
HETATM   18  N1  UNL     1     -20.214   0.391   2.712  1.00  0.00    -0.064 N 
ATOM     19  H12 UNL     1     -20.080  -0.131   1.847  1.00  0.00     0.277 HD
ATOM     20  H11 UNL     1     -20.617  -0.348   3.288  1.00  0.00     0.277 HD
BRANCH  18  21
HETATM   21  C2  UNL     1     -18.967   0.838   3.245  1.00  0.00     0.258 C 
BRANCH  21  22
HETATM   22  C1  UNL     1     -18.494   2.137   2.636  1.00  0.00     0.191 C 
BRANCH  22  23
HETATM   23  O1  UNL     1     -17.125   2.251   2.581  1.00  0.00    -0.399 OA
ATOM     24  H1  UNL     1     -16.816   3.147   2.654  1.00  0.00     0.209 HD
ENDBRANCH  22  23
ENDBRANCH  21  22
ENDBRANCH  18  21
ENDBRANCH   1  18
BRANCH   7  25
HETATM   25  O4  UNL     1     -22.983   0.508   1.327  1.00  0.00    -0.390 OA
ATOM     26  H4  UNL     1     -22.845  -0.313   0.870  1.00  0.00     0.210 HD
ENDBRANCH   7  25
TORSDOF 9
ENDMDL
MODEL 2
REMARK VINA RESULT: -7.515143585      1.287      1.406
REMARK  9 active torsions:
REMARK  status: ('A' for Active; 'I' for Inactive)
REMARK    1  A    between atoms: O1_1  and  C1_3 
REMARK    2  A    between atoms: C1_3  and  C2_4 
REMARK    3  A    between atoms: C2_4  and  N1_5 
REMARK    4  A    between atoms: N1_5  and  C3_8 
REMARK    5  A    between atoms: C4_9  and  O2_10 
REMARK    6  A    between atoms: O2_10  and  C5_11 
REMARK    7  A    between atoms: C9_15  and  N2_16 
REMARK    8  A    between atoms: N2_16  and  O3_17 
REMARK    9  A    between atoms: C14_24  and  O4_25 
ROOT
HETATM    1  C3  UNL     1     -21.001   1.198   1.971  1.00  0.00     0.250 C 
HETATM    2  C4  UNL     1     -22.104   1.488   2.958  1.00  0.00     0.177 C 
HETATM    3  C11 UNL     1     -23.139   2.327   2.237  1.00  0.00     0.006 C 
HETATM    4  C12 UNL     1     -23.177   2.404   0.930  1.00  0.00     0.011 C 
HETATM    5  C13 UNL     1     -22.279   1.729  -0.026  1.00  0.00     0.223 C 
HETATM    6  F1  UNL     1     -22.911   1.308  -1.179  1.00  0.00    -0.242 F 
HETATM    7  C14 UNL     1     -21.570   0.594   0.693  1.00  0.00     0.189 C 
ENDROOT
BRANCH   2   8
HETATM    8  O2  UNL     1     -22.766   0.365   3.398  1.00  0.00    -0.374 OA
BRANCH   8   9
HETATM    9  C5  UNL     1     -22.582   0.071   4.747  1.00  0.00     0.127 C 
HETATM   10  C6  UNL     1     -23.262  -1.210   5.044  1.00  0.00     0.059 C 
HETATM   11  C7  UNL     1     -23.766  -1.361   6.408  1.00  0.00    -0.026 C 
HETATM   12  C8  UNL     1     -24.206  -0.320   7.094  1.00  0.00    -0.007 C 
HETATM   13  C9  UNL     1     -24.179   1.000   6.459  1.00  0.00     0.131 C 
HETATM   14  C10 UNL     1     -22.983   1.236   5.588  1.00  0.00     0.059 C 
BRANCH  13  15
HETATM   15  N2  UNL     1     -24.253   2.001   7.507  1.00  0.00    -0.095 NA
BRANCH  15  16
HETATM   16  O3  UNL     1     -23.285   2.940   7.390  1.00  0.00    -0.295 OA
ATOM     17  H3  UNL     1     -23.607   3.815   7.574  1.00  0.00     0.238 HD
ENDBRANCH  15  16
ENDBRANCH  13  15
ENDBRANCH   8   9
ENDBRANCH   2   8
BRANCH   1  18
HETATM   18  N1  UNL     1     -19.931   0.418   2.486  1.00  0.00    -0.064 N 
ATOM     19  H12 UNL     1     -19.450  -0.086   1.742  1.00  0.00     0.277 HD
ATOM     20  H11 UNL     1     -20.279  -0.378   3.021  1.00  0.00     0.277 HD
BRANCH  18  21
HETATM   21  C2  UNL     1     -19.019   1.200   3.256  1.00  0.00     0.258 C 
BRANCH  21  22
HETATM   22  C1  UNL     1     -18.358   2.298   2.457  1.00  0.00     0.191 C 
BRANCH  22  23
HETATM   23  O1  UNL     1     -16.990   2.323   2.585  1.00  0.00    -0.399 OA
ATOM     24  H1  UNL     1     -16.530   2.181   1.766  1.00  0.00     0.209 HD
ENDBRANCH  22  23
ENDBRANCH  21  22
ENDBRANCH  18  21
ENDBRANCH   1  18
BRANCH   7  25
HETATM   25  O4  UNL     1     -22.518  -0.384   0.980  1.00  0.00    -0.390 OA
ATOM     26  H4  UNL     1     -22.585  -0.531   1.916  1.00  0.00     0.210 HD
ENDBRANCH   7  25
TORSDOF 9
ENDMDL
MODEL 3
REMARK VINA RESULT: -7.501581018      3.220      6.086
REMARK  9 active torsions:
REMARK  status: ('A' for Active; 'I' for Inactive)
REMARK    1  A    between atoms: O1_1  and  C1_3 
REMARK    2  A    between atoms: C1_3  and  C2_4 
REMARK    3  A    between atoms: C2_4  and  N1_5 
REMARK    4  A    between atoms: N1_5  and  C3_8 
REMARK    5  A    between atoms: C4_9  and  O2_10 
REMARK    6  A    between atoms: O2_10  and  C5_11 
REMARK    7  A    between atoms: C9_15  and  N2_16 
REMARK    8  A    between atoms: N2_16  and  O3_17 
REMARK    9  A    between atoms: C14_24  and  O4_25 
ROOT
HETATM    1  C3  UNL     1     -22.414  -0.723   2.346  1.00  0.00     0.250 C 
HETATM    2  C4  UNL     1     -22.088   0.667   2.833  1.00  0.00     0.177 C 
HETATM    3  C11 UNL     1     -22.709   0.816   4.207  1.00  0.00     0.006 C 
HETATM    4  C12 UNL     1     -23.089  -0.223   4.909  1.00  0.00     0.011 C 
HETATM    5  C13 UNL     1     -22.990  -1.643   4.520  1.00  0.00     0.223 C 
HETATM    6  F1  UNL     1     -22.689  -2.486   5.571  1.00  0.00    -0.242 F 
HETATM    7  C14 UNL     1     -21.996  -1.764   3.378  1.00  0.00     0.189 C 
ENDROOT
BRANCH   2   8
HETATM    8  O2  UNL     1     -20.742   0.898   2.998  1.00  0.00    -0.374 OA
BRANCH   8   9
HETATM    9  C5  UNL     1     -20.384   2.243   3.053  1.00  0.00     0.127 C 
HETATM   10  C6  UNL     1     -21.310   3.010   2.188  1.00  0.00     0.059 C 
HETATM   11  C7  UNL     1     -20.757   4.220   1.582  1.00  0.00    -0.026 C 
HETATM   12  C8  UNL     1     -19.481   4.295   1.244  1.00  0.00    -0.007 C 
HETATM   13  C9  UNL     1     -18.621   3.134   1.490  1.00  0.00     0.131 C 
HETATM   14  C10 UNL     1     -18.931   2.402   2.761  1.00  0.00     0.059 C 
BRANCH  13  15
HETATM   15  N2  UNL     1     -17.244   3.590   1.486  1.00  0.00    -0.095 NA
BRANCH  15  16
HETATM   16  O3  UNL     1     -16.447   2.828   2.270  1.00  0.00    -0.295 OA
ATOM     17  H3  UNL     1     -16.221   2.001   1.859  1.00  0.00     0.238 HD
ENDBRANCH  15  16
ENDBRANCH  13  15
ENDBRANCH   8   9
ENDBRANCH   2   8
BRANCH   1  18
HETATM   18  N1  UNL     1     -21.909  -1.034   1.055  1.00  0.00    -0.064 N 
ATOM     19  H12 UNL     1     -22.270  -1.928   0.724  1.00  0.00     0.277 HD
ATOM     20  H11 UNL     1     -20.916  -1.264   1.092  1.00  0.00     0.277 HD
BRANCH  18  21
HETATM   21  C2  UNL     1     -22.165   0.008   0.113  1.00  0.00     0.258 C 
BRANCH  21  22
HETATM   22  C1  UNL     1     -20.912   0.526  -0.552  1.00  0.00     0.191 C 
BRANCH  22  23
HETATM   23  O1  UNL     1     -19.756   0.176   0.106  1.00  0.00    -0.399 OA
ATOM     24  H1  UNL     1     -19.147  -0.314  -0.434  1.00  0.00     0.209 HD
ENDBRANCH  22  23
ENDBRANCH  21  22
ENDBRANCH  18  21
ENDBRANCH   1  18
BRANCH   7  25
HETATM   25  O4  UNL     1     -20.730  -1.486   3.885  1.00  0.00    -0.390 OA
ATOM     26  H4  UNL     1     -20.457  -2.150   4.507  1.00  0.00     0.210 HD
ENDBRANCH   7  25
TORSDOF 9
ENDMDL
MODEL 4
REMARK VINA RESULT: -7.457631384      2.025      2.807
REMARK  9 active torsions:
REMARK  status: ('A' for Active; 'I' for Inactive)
REMARK    1  A    between atoms: O1_1  and  C1_3 
REMARK    2  A    between atoms: C1_3  and  C2_4 
REMARK    3  A    between atoms: C2_4  and  N1_5 
REMARK    4  A    between atoms: N1_5  and  C3_8 
REMARK    5  A    between atoms: C4_9  and  O2_10 
REMARK    6  A    between atoms: O2_10  and  C5_11 
REMARK    7  A    between atoms: C9_15  and  N2_16 
REMARK    8  A    between atoms: N2_16  and  O3_17 
REMARK    9  A    between atoms: C14_24  and  O4_25 
ROOT
HETATM    1  C3  UNL     1     -21.082   0.664   1.842  1.00  0.00     0.250 C 
HETATM    2  C4  UNL     1     -21.049   0.061   3.223  1.00  0.00     0.177 C 
HETATM    3  C11 UNL     1     -19.840   0.636   3.933  1.00  0.00     0.006 C 
HETATM    4  C12 UNL     1     -19.237   1.716   3.504  1.00  0.00     0.011 C 
HETATM    5  C13 UNL     1     -19.598   2.526   2.324  1.00  0.00     0.223 C 
HETATM    6  F1  UNL     1     -19.413   3.882   2.504  1.00  0.00    -0.242 F 
HETATM    7  C14 UNL     1     -21.022   2.184   1.919  1.00  0.00     0.189 C 
ENDROOT
BRANCH   2   8
HETATM    8  O2  UNL     1     -22.136   0.388   4.000  1.00  0.00    -0.374 OA
BRANCH   8   9
HETATM    9  C5  UNL     1     -22.259  -0.352   5.173  1.00  0.00     0.127 C 
HETATM   10  C6  UNL     1     -22.861  -1.663   4.838  1.00  0.00     0.059 C 
HETATM   11  C7  UNL     1     -23.666  -2.280   5.893  1.00  0.00    -0.026 C 
HETATM   12  C8  UNL     1     -24.360  -1.545   6.743  1.00  0.00    -0.007 C 
HETATM   13  C9  UNL     1     -24.309  -0.086   6.613  1.00  0.00     0.131 C 
HETATM   14  C10 UNL     1     -22.966   0.447   6.216  1.00  0.00     0.059 C 
BRANCH  13  15
HETATM   15  N2  UNL     1     -24.735   0.490   7.875  1.00  0.00    -0.095 NA
BRANCH  15  16
HETATM   16  O3  UNL     1     -24.659  -0.395   8.896  1.00  0.00    -0.295 OA
ATOM     17  H3  UNL     1     -25.357  -1.038   8.868  1.00  0.00     0.238 HD
ENDBRANCH  15  16
ENDBRANCH  13  15
ENDBRANCH   8   9
ENDBRANCH   2   8
BRANCH   1  18
HETATM   18  N1  UNL     1     -22.159   0.224   1.027  1.00  0.00    -0.064 N 
ATOM     19  H12 UNL     1     -22.626   1.010   0.576  1.00  0.00     0.277 HD
ATOM     20  H11 UNL     1     -22.934  -0.122   1.593  1.00  0.00     0.277 HD
BRANCH  18  21
HETATM   21  C2  UNL     1     -21.744  -0.749   0.068  1.00  0.00     0.258 C 
BRANCH  21  22
HETATM   22  C1  UNL     1     -20.594  -0.282  -0.791  1.00  0.00     0.191 C 
BRANCH  22  23
HETATM   23  O1  UNL     1     -19.652  -1.256  -1.024  1.00  0.00    -0.399 OA
ATOM     24  H1  UNL     1     -18.759  -0.957  -0.902  1.00  0.00     0.209 HD
ENDBRANCH  22  23
ENDBRANCH  21  22
ENDBRANCH  18  21
ENDBRANCH   1  18
BRANCH   7  25
HETATM   25  O4  UNL     1     -21.872   2.670   2.908  1.00  0.00    -0.390 OA
ATOM     26  H4  UNL     1     -21.902   3.620   2.897  1.00  0.00     0.210 HD
ENDBRANCH   7  25
TORSDOF 9
ENDMDL
MODEL 5
REMARK VINA RESULT: -7.368710354      2.003      3.167
REMARK  9 active torsions:
REMARK  status: ('A' for Active; 'I' for Inactive)
REMARK    1  A    between atoms: O1_1  and  C1_3 
REMARK    2  A    between atoms: C1_3  and  C2_4 
REMARK    3  A    between atoms: C2_4  and  N1_5 
REMARK    4  A    between atoms: N1_5  and  C3_8 
REMARK    5  A    between atoms: C4_9  and  O2_10 
REMARK    6  A    between atoms: O2_10  and  C5_11 
REMARK    7  A    between atoms: C9_15  and  N2_16 
REMARK    8  A    between atoms: N2_16  and  O3_17 
REMARK    9  A    between atoms: C14_24  and  O4_25 
ROOT
HETATM    1  C3  UNL     1     -21.190   0.750   1.877  1.00  0.00     0.250 C 
HETATM    2  C4  UNL     1     -21.122   0.100   3.235  1.00  0.00     0.177 C 
HETATM    3  C11 UNL     1     -19.790   0.484   3.848  1.00  0.00     0.006 C 
HETATM    4  C12 UNL     1     -19.084   1.488   3.392  1.00  0.00     0.011 C 
HETATM    5  C13 UNL     1     -19.431   2.380   2.268  1.00  0.00     0.223 C 
HETATM    6  F1  UNL     1     -19.048   3.692   2.462  1.00  0.00    -0.242 F 
HETATM    7  C14 UNL     1     -20.917   2.246   1.983  1.00  0.00     0.189 C 
ENDROOT
BRANCH   2   8
HETATM    8  O2  UNL     1     -22.084   0.542   4.113  1.00  0.00    -0.374 OA
BRANCH   8   9
HETATM    9  C5  UNL     1     -22.244  -0.247   5.249  1.00  0.00     0.127 C 
HETATM   10  C6  UNL     1     -22.819  -1.548   4.838  1.00  0.00     0.059 C 
HETATM   11  C7  UNL     1     -23.657  -2.215   5.835  1.00  0.00    -0.026 C 
HETATM   12  C8  UNL     1     -24.390  -1.521   6.687  1.00  0.00    -0.007 C 
HETATM   13  C9  UNL     1     -24.350  -0.058   6.619  1.00  0.00     0.131 C 
HETATM   14  C10 UNL     1     -22.998   0.502   6.296  1.00  0.00     0.059 C 
BRANCH  13  15
HETATM   15  N2  UNL     1     -24.829   0.462   7.886  1.00  0.00    -0.095 NA
BRANCH  15  16
HETATM   16  O3  UNL     1     -24.628  -0.404   8.906  1.00  0.00    -0.295 OA
ATOM     17  H3  UNL     1     -23.721  -0.425   9.188  1.00  0.00     0.238 HD
ENDBRANCH  15  16
ENDBRANCH  13  15
ENDBRANCH   8   9
ENDBRANCH   2   8
BRANCH   1  18
HETATM   18  N1  UNL     1     -22.382   0.487   1.150  1.00  0.00    -0.064 N 
ATOM     19  H12 UNL     1     -23.199   0.509   1.761  1.00  0.00     0.277 HD
ATOM     20  H11 UNL     1     -22.427  -0.488   0.855  1.00  0.00     0.277 HD
BRANCH  18  21
HETATM   21  C2  UNL     1     -22.542   1.371   0.041  1.00  0.00     0.258 C 
BRANCH  21  22
HETATM   22  C1  UNL     1     -23.898   2.035   0.002  1.00  0.00     0.191 C 
BRANCH  22  23
HETATM   23  O1  UNL     1     -24.139   2.853   1.080  1.00  0.00    -0.399 OA
ATOM     24  H1  UNL     1     -24.283   2.379   1.891  1.00  0.00     0.209 HD
ENDBRANCH  22  23
ENDBRANCH  21  22
ENDBRANCH  18  21
ENDBRANCH   1  18
BRANCH   7  25
HETATM   25  O4  UNL     1     -21.606   2.806   3.055  1.00  0.00    -0.390 OA
ATOM     26  H4  UNL     1     -22.354   2.272   3.297  1.00  0.00     0.210 HD
ENDBRANCH   7  25
TORSDOF 9
ENDMDL
