MODEL 1
REMARK VINA RESULT: -6.993780951      0.000      0.000
REMARK  12 active torsions:
REMARK  status: ('A' for Active; 'I' for Inactive)
REMARK    1  A    between atoms: N1_1  and  C1_4 
REMARK    2  A    between atoms: C1_4  and  C2_5 
REMARK    3  A    between atoms: C2_5  and  C3_6 
REMARK    4  A    between atoms: C3_6  and  O1_7 
REMARK    5  A    between atoms: C3_6  and  C4_9 
REMARK    6  A    between atoms: C4_9  and  O2_10 
REMARK    7  A    between atoms: C4_9  and  C5_12 
REMARK    8  A    between atoms: C6_13  and  O3_14 
REMARK    9  A    between atoms: C7_16  and  C8_17 
REMARK   10  A    between atoms: C8_17  and  O4_18 
REMARK   11  A    between atoms: N2_20  and  C9_21 
REMARK   12  A    between atoms: C9_21  and  C10_22 
ROOT
HETATM    1  C5  UNL     1     -20.950   2.274   2.436  1.00  0.00     0.285 C 
HETATM    2  C6  UNL     1     -19.919   1.145   2.277  1.00  0.00     0.189 C 
HETATM    3  C7  UNL     1     -21.036   0.327   2.876  1.00  0.00     0.278 C 
HETATM    4  N2  UNL     1     -21.459   1.536   3.550  1.00  0.00     0.112 N 
ENDROOT
BRANCH   1   5
HETATM    5  C4  UNL     1     -20.248   3.554   2.651  1.00  0.00     0.183 C 
BRANCH   5   6
HETATM    6  C3  UNL     1     -20.882   4.796   2.155  1.00  0.00     0.161 C 
BRANCH   6   7
HETATM    7  C2  UNL     1     -21.680   5.516   3.175  1.00  0.00     0.138 C 
BRANCH   7   8
HETATM    8  C1  UNL     1     -22.991   5.352   3.152  1.00  0.00    -0.075 C 
BRANCH   8   9
HETATM    9  N1  UNL     1     -24.215   5.007   3.055  1.00  0.00    -0.370 N 
ATOM     10  H12 UNL     1     -23.963   4.506   2.203  1.00  0.00     0.165 HD
ATOM     11  H11 UNL     1     -25.215   4.817   3.117  1.00  0.00     0.165 HD
ENDBRANCH   8   9
ENDBRANCH   7   8
ENDBRANCH   6   7
BRANCH   6  12
HETATM   12  O1  UNL     1     -21.789   4.460   1.127  1.00  0.00    -0.392 OA
ATOM     13  H1  UNL     1     -21.260   4.107   0.422  1.00  0.00     0.210 HD
ENDBRANCH   6  12
ENDBRANCH   5   6
BRANCH   5  14
HETATM   14  O2  UNL     1     -18.978   3.484   2.026  1.00  0.00    -0.391 OA
ATOM     15  H2  UNL     1     -18.358   3.851   2.646  1.00  0.00     0.210 HD
ENDBRANCH   5  14
ENDBRANCH   1   5
BRANCH   2  16
HETATM   16  O3  UNL     1     -19.595   0.864   0.967  1.00  0.00    -0.391 OA
ATOM     17  H3  UNL     1     -18.690   0.608   0.841  1.00  0.00     0.210 HD
ENDBRANCH   2  16
BRANCH   4  18
HETATM   18  C9  UNL     1     -22.860   1.669   3.766  1.00  0.00     0.312 C 
BRANCH  18  19
HETATM   19  C10 UNL     1     -23.271   1.336   5.152  1.00  0.00    -0.030 A 
HETATM   20  C11 UNL     1     -23.342   2.307   6.122  1.00  0.00     0.009 A 
HETATM   21  C12 UNL     1     -23.728   2.035   7.419  1.00  0.00     0.001 A 
HETATM   22  C13 UNL     1     -24.053   0.761   7.770  1.00  0.00     0.000 A 
HETATM   23  C14 UNL     1     -23.996  -0.245   6.832  1.00  0.00     0.001 A 
HETATM   24  C15 UNL     1     -23.602   0.051   5.520  1.00  0.00     0.009 A 
ENDBRANCH  18  19
ENDBRANCH   4  18
BRANCH   3  25
HETATM   25  C8  UNL     1     -20.589  -0.812   3.751  1.00  0.00     0.202 C 
BRANCH  25  26
HETATM   26  O4  UNL     1     -21.262  -1.954   3.291  1.00  0.00    -0.399 OA
ATOM     27  H4  UNL     1     -21.058  -2.031   2.366  1.00  0.00     0.209 HD
ENDBRANCH  25  26
ENDBRANCH   3  25
TORSDOF 12
ENDMDL
MODEL 2
REMARK VINA RESULT: -6.992343874      0.029      1.030
REMARK  12 active torsions:
REMARK  status: ('A' for Active; 'I' for Inactive)
REMARK    1  A    between atoms: N1_1  and  C1_4 
REMARK    2  A    between atoms: C1_4  and  C2_5 
REMARK    3  A    between atoms: C2_5  and  C3_6 
REMARK    4  A    between atoms: C3_6  and  O1_7 
REMARK    5  A    between atoms: C3_6  and  C4_9 
REMARK    6  A    between atoms: C4_9  and  O2_10 
REMARK    7  A    between atoms: C4_9  and  C5_12 
REMARK    8  A    between atoms: C6_13  and  O3_14 
REMARK    9  A    between atoms: C7_16  and  C8_17 
REMARK   10  A    between atoms: C8_17  and  O4_18 
REMARK   11  A    between atoms: N2_20  and  C9_21 
REMARK   12  A    between atoms: C9_21  and  C10_22 
ROOT
HETATM    1  C5  UNL     1     -20.947   2.281   2.421  1.00  0.00     0.285 C 
HETATM    2  C6  UNL     1     -19.910   1.156   2.271  1.00  0.00     0.189 C 
HETATM    3  C7  UNL     1     -21.025   0.335   2.869  1.00  0.00     0.278 C 
HETATM    4  N2  UNL     1     -21.457   1.545   3.537  1.00  0.00     0.112 N 
ENDROOT
BRANCH   1   5
HETATM    5  C4  UNL     1     -20.252   3.566   2.633  1.00  0.00     0.183 C 
BRANCH   5   6
HETATM    6  C3  UNL     1     -20.900   4.804   2.146  1.00  0.00     0.161 C 
BRANCH   6   7
HETATM    7  C2  UNL     1     -21.703   5.509   3.173  1.00  0.00     0.138 C 
BRANCH   7   8
HETATM    8  C1  UNL     1     -23.012   5.331   3.154  1.00  0.00    -0.075 C 
BRANCH   8   9
HETATM    9  N1  UNL     1     -24.232   4.971   3.064  1.00  0.00    -0.370 N 
ATOM     10  H12 UNL     1     -24.089   4.423   3.912  1.00  0.00     0.165 HD
ATOM     11  H11 UNL     1     -25.211   4.776   2.856  1.00  0.00     0.165 HD
ENDBRANCH   8   9
ENDBRANCH   7   8
ENDBRANCH   6   7
BRANCH   6  12
HETATM   12  O1  UNL     1     -21.807   4.466   1.119  1.00  0.00    -0.392 OA
ATOM     13  H1  UNL     1     -21.313   3.937   0.504  1.00  0.00     0.210 HD
ENDBRANCH   6  12
ENDBRANCH   5   6
BRANCH   5  14
HETATM   14  O2  UNL     1     -18.988   3.507   1.995  1.00  0.00    -0.391 OA
ATOM     15  H2  UNL     1     -18.525   2.779   2.394  1.00  0.00     0.210 HD
ENDBRANCH   5  14
ENDBRANCH   1   5
BRANCH   2  16
HETATM   16  O3  UNL     1     -19.580   0.871   0.963  1.00  0.00    -0.391 OA
ATOM     17  H3  UNL     1     -18.666   0.645   0.837  1.00  0.00     0.210 HD
ENDBRANCH   2  16
BRANCH   4  18
HETATM   18  C9  UNL     1     -22.858   1.672   3.746  1.00  0.00     0.312 C 
BRANCH  18  19
HETATM   19  C10 UNL     1     -23.270   1.364   5.138  1.00  0.00    -0.030 A 
HETATM   20  C11 UNL     1     -23.619   0.087   5.507  1.00  0.00     0.009 A 
HETATM   21  C12 UNL     1     -23.999  -0.237   6.793  1.00  0.00     0.001 A 
HETATM   22  C13 UNL     1     -24.037   0.732   7.747  1.00  0.00     0.000 A 
HETATM   23  C14 UNL     1     -23.696   2.026   7.424  1.00  0.00     0.001 A 
HETATM   24  C15 UNL     1     -23.312   2.336   6.113  1.00  0.00     0.009 A 
ENDBRANCH  18  19
ENDBRANCH   4  18
BRANCH   3  25
HETATM   25  C8  UNL     1     -20.575  -0.798   3.751  1.00  0.00     0.202 C 
BRANCH  25  26
HETATM   26  O4  UNL     1     -21.251  -1.942   3.301  1.00  0.00    -0.399 OA
ATOM     27  H4  UNL     1     -20.622  -2.654   3.328  1.00  0.00     0.209 HD
ENDBRANCH  25  26
ENDBRANCH   3  25
TORSDOF 12
ENDMDL
MODEL 3
REMARK VINA RESULT: -6.986614744      1.884      2.367
REMARK  12 active torsions:
REMARK  status: ('A' for Active; 'I' for Inactive)
REMARK    1  A    between atoms: N1_1  and  C1_4 
REMARK    2  A    between atoms: C1_4  and  C2_5 
REMARK    3  A    between atoms: C2_5  and  C3_6 
REMARK    4  A    between atoms: C3_6  and  O1_7 
REMARK    5  A    between atoms: C3_6  and  C4_9 
REMARK    6  A    between atoms: C4_9  and  O2_10 
REMARK    7  A    between atoms: C4_9  and  C5_12 
REMARK    8  A    between atoms: C6_13  and  O3_14 
REMARK    9  A    between atoms: C7_16  and  C8_17 
REMARK   10  A    between atoms: C8_17  and  O4_18 
REMARK   11  A    between atoms: N2_20  and  C9_21 
REMARK   12  A    between atoms: C9_21  and  C10_22 
ROOT
HETATM    1  C5  UNL     1     -21.790   2.802   2.737  1.00  0.00     0.285 C 
HETATM    2  C6  UNL     1     -20.256   2.703   2.759  1.00  0.00     0.189 C 
HETATM    3  C7  UNL     1     -20.563   1.347   3.346  1.00  0.00     0.278 C 
HETATM    4  N2  UNL     1     -21.777   1.934   3.874  1.00  0.00     0.112 N 
ENDROOT
BRANCH   1   5
HETATM    5  C4  UNL     1     -22.194   4.214   2.885  1.00  0.00     0.183 C 
BRANCH   5   6
HETATM    6  C3  UNL     1     -21.258   5.264   2.427  1.00  0.00     0.161 C 
BRANCH   6   7
HETATM    7  C2  UNL     1     -21.208   6.455   3.308  1.00  0.00     0.138 C 
BRANCH   7   8
HETATM    8  C1  UNL     1     -20.033   7.033   3.489  1.00  0.00    -0.075 C 
BRANCH   8   9
HETATM    9  N1  UNL     1     -18.888   7.591   3.458  1.00  0.00    -0.370 N 
ATOM     10  H12 UNL     1     -19.286   8.347   4.013  1.00  0.00     0.165 HD
ATOM     11  H11 UNL     1     -17.925   7.906   3.343  1.00  0.00     0.165 HD
ENDBRANCH   8   9
ENDBRANCH   7   8
ENDBRANCH   6   7
BRANCH   6  12
HETATM   12  O1  UNL     1     -21.691   5.738   1.169  1.00  0.00    -0.392 OA
ATOM     13  H1  UNL     1     -21.012   5.491   0.554  1.00  0.00     0.210 HD
ENDBRANCH   6  12
ENDBRANCH   5   6
BRANCH   5  14
HETATM   14  O2  UNL     1     -22.434   4.474   4.258  1.00  0.00    -0.391 OA
ATOM     15  H2  UNL     1     -23.038   3.802   4.551  1.00  0.00     0.210 HD
ENDBRANCH   5  14
ENDBRANCH   1   5
BRANCH   2  16
HETATM   16  O3  UNL     1     -19.678   2.705   1.507  1.00  0.00    -0.391 OA
ATOM     17  H3  UNL     1     -19.533   1.838   1.148  1.00  0.00     0.210 HD
ENDBRANCH   2  16
BRANCH   4  18
HETATM   18  C9  UNL     1     -22.896   1.061   3.973  1.00  0.00     0.312 C 
BRANCH  18  19
HETATM   19  C10 UNL     1     -23.354   0.856   5.369  1.00  0.00    -0.030 A 
HETATM   20  C11 UNL     1     -23.674  -0.398   5.832  1.00  0.00     0.009 A 
HETATM   21  C12 UNL     1     -24.096  -0.626   7.126  1.00  0.00     0.001 A 
HETATM   22  C13 UNL     1     -24.206   0.418   7.991  1.00  0.00     0.000 A 
HETATM   23  C14 UNL     1     -23.897   1.692   7.571  1.00  0.00     0.001 A 
HETATM   24  C15 UNL     1     -23.470   1.905   6.254  1.00  0.00     0.009 A 
ENDBRANCH  18  19
ENDBRANCH   4  18
BRANCH   3  25
HETATM   25  C8  UNL     1     -19.560   0.851   4.353  1.00  0.00     0.202 C 
BRANCH  25  26
HETATM   26  O4  UNL     1     -19.052  -0.354   3.844  1.00  0.00    -0.399 OA
ATOM     27  H4  UNL     1     -19.012  -0.958   4.576  1.00  0.00     0.209 HD
ENDBRANCH  25  26
ENDBRANCH   3  25
TORSDOF 12
ENDMDL
MODEL 4
REMARK VINA RESULT: -6.884277018      1.174      1.664
REMARK  12 active torsions:
REMARK  status: ('A' for Active; 'I' for Inactive)
REMARK    1  A    between atoms: N1_1  and  C1_4 
REMARK    2  A    between atoms: C1_4  and  C2_5 
REMARK    3  A    between atoms: C2_5  and  C3_6 
REMARK    4  A    between atoms: C3_6  and  O1_7 
REMARK    5  A    between atoms: C3_6  and  C4_9 
REMARK    6  A    between atoms: C4_9  and  O2_10 
REMARK    7  A    between atoms: C4_9  and  C5_12 
REMARK    8  A    between atoms: C6_13  and  O3_14 
REMARK    9  A    between atoms: C7_16  and  C8_17 
REMARK   10  A    between atoms: C8_17  and  O4_18 
REMARK   11  A    between atoms: N2_20  and  C9_21 
REMARK   12  A    between atoms: C9_21  and  C10_22 
ROOT
HETATM    1  C5  UNL     1     -20.253   3.273   2.287  1.00  0.00     0.285 C 
HETATM    2  C6  UNL     1     -18.895   2.619   2.590  1.00  0.00     0.189 C 
HETATM    3  C7  UNL     1     -19.778   1.460   2.981  1.00  0.00     0.278 C 
HETATM    4  N2  UNL     1     -20.787   2.441   3.321  1.00  0.00     0.112 N 
ENDROOT
BRANCH   1   5
HETATM    5  C4  UNL     1     -20.151   4.732   2.486  1.00  0.00     0.183 C 
BRANCH   5   6
HETATM    6  C3  UNL     1     -21.252   5.587   1.990  1.00  0.00     0.161 C 
BRANCH   6   7
HETATM    7  C2  UNL     1     -22.209   6.008   3.039  1.00  0.00     0.138 C 
BRANCH   7   8
HETATM    8  C1  UNL     1     -23.377   5.391   3.086  1.00  0.00    -0.075 C 
BRANCH   8   9
HETATM    9  N1  UNL     1     -24.433   4.687   2.969  1.00  0.00    -0.370 N 
ATOM     10  H12 UNL     1     -23.832   3.863   2.943  1.00  0.00     0.165 HD
ATOM     11  H11 UNL     1     -25.359   4.268   2.882  1.00  0.00     0.165 HD
ENDBRANCH   8   9
ENDBRANCH   7   8
ENDBRANCH   6   7
BRANCH   6  12
HETATM   12  O1  UNL     1     -22.011   4.850   1.055  1.00  0.00    -0.392 OA
ATOM     13  H1  UNL     1     -22.016   3.957   1.377  1.00  0.00     0.210 HD
ENDBRANCH   6  12
ENDBRANCH   5   6
BRANCH   5  14
HETATM   14  O2  UNL     1     -18.974   5.195   1.845  1.00  0.00    -0.391 OA
ATOM     15  H2  UNL     1     -18.450   4.422   1.667  1.00  0.00     0.210 HD
ENDBRANCH   5  14
ENDBRANCH   1   5
BRANCH   2  16
HETATM   16  O3  UNL     1     -18.104   2.431   1.477  1.00  0.00    -0.391 OA
ATOM     17  H3  UNL     1     -18.590   2.203   0.694  1.00  0.00     0.210 HD
ENDBRANCH   2  16
BRANCH   4  18
HETATM   18  C9  UNL     1     -22.137   2.036   3.125  1.00  0.00     0.312 C 
BRANCH  18  19
HETATM   19  C10 UNL     1     -22.782   1.534   4.363  1.00  0.00    -0.030 A 
HETATM   20  C11 UNL     1     -22.968   0.189   4.569  1.00  0.00     0.009 A 
HETATM   21  C12 UNL     1     -23.556  -0.314   5.712  1.00  0.00     0.001 A 
HETATM   22  C13 UNL     1     -23.975   0.542   6.683  1.00  0.00     0.000 A 
HETATM   23  C14 UNL     1     -23.811   1.899   6.521  1.00  0.00     0.001 A 
HETATM   24  C15 UNL     1     -23.211   2.390   5.354  1.00  0.00     0.009 A 
ENDBRANCH  18  19
ENDBRANCH   4  18
BRANCH   3  25
HETATM   25  C8  UNL     1     -19.252   0.614   4.109  1.00  0.00     0.202 C 
BRANCH  25  26
HETATM   26  O4  UNL     1     -19.473  -0.721   3.740  1.00  0.00    -0.399 OA
ATOM     27  H4  UNL     1     -20.330  -0.955   4.076  1.00  0.00     0.209 HD
ENDBRANCH  25  26
ENDBRANCH   3  25
TORSDOF 12
ENDMDL
MODEL 5
REMARK VINA RESULT: -6.852346373      2.007      2.852
REMARK  12 active torsions:
REMARK  status: ('A' for Active; 'I' for Inactive)
REMARK    1  A    between atoms: N1_1  and  C1_4 
REMARK    2  A    between atoms: C1_4  and  C2_5 
REMARK    3  A    between atoms: C2_5  and  C3_6 
REMARK    4  A    between atoms: C3_6  and  O1_7 
REMARK    5  A    between atoms: C3_6  and  C4_9 
REMARK    6  A    between atoms: C4_9  and  O2_10 
REMARK    7  A    between atoms: C4_9  and  C5_12 
REMARK    8  A    between atoms: C6_13  and  O3_14 
REMARK    9  A    between atoms: C7_16  and  C8_17 
REMARK   10  A    between atoms: C8_17  and  O4_18 
REMARK   11  A    between atoms: N2_20  and  C9_21 
REMARK   12  A    between atoms: C9_21  and  C10_22 
ROOT
HETATM    1  C5  UNL     1     -21.606   3.437   2.256  1.00  0.00     0.285 C 
HETATM    2  C6  UNL     1     -20.088   3.668   2.329  1.00  0.00     0.189 C 
HETATM    3  C7  UNL     1     -20.078   2.165   2.460  1.00  0.00     0.278 C 
HETATM    4  N2  UNL     1     -21.383   2.285   3.075  1.00  0.00     0.112 N 
ENDROOT
BRANCH   1   5
HETATM    5  C4  UNL     1     -22.309   4.613   2.804  1.00  0.00     0.183 C 
BRANCH   5   6
HETATM    6  C3  UNL     1     -21.795   5.959   2.468  1.00  0.00     0.161 C 
BRANCH   6   7
HETATM    7  C2  UNL     1     -21.184   6.674   3.613  1.00  0.00     0.138 C 
BRANCH   7   8
HETATM    8  C1  UNL     1     -19.934   7.084   3.482  1.00  0.00    -0.075 C 
BRANCH   8   9
HETATM    9  N1  UNL     1     -18.797   7.658   3.433  1.00  0.00    -0.370 N 
ATOM     10  H12 UNL     1     -18.804   7.494   2.427  1.00  0.00     0.165 HD
ATOM     11  H11 UNL     1     -17.904   8.134   3.558  1.00  0.00     0.165 HD
ENDBRANCH   8   9
ENDBRANCH   7   8
ENDBRANCH   6   7
BRANCH   6  12
HETATM   12  O1  UNL     1     -22.876   6.764   2.048  1.00  0.00    -0.392 OA
ATOM     13  H1  UNL     1     -23.659   6.318   2.347  1.00  0.00     0.210 HD
ENDBRANCH   6  12
ENDBRANCH   5   6
BRANCH   5  14
HETATM   14  O2  UNL     1     -22.297   4.529   4.219  1.00  0.00    -0.391 OA
ATOM     15  H2  UNL     1     -22.718   5.320   4.534  1.00  0.00     0.210 HD
ENDBRANCH   5  14
ENDBRANCH   1   5
BRANCH   2  16
HETATM   16  O3  UNL     1     -19.545   4.180   1.170  1.00  0.00    -0.391 OA
ATOM     17  H3  UNL     1     -18.659   3.885   0.997  1.00  0.00     0.210 HD
ENDBRANCH   2  16
BRANCH   4  18
HETATM   18  C9  UNL     1     -22.280   1.205   2.845  1.00  0.00     0.312 C 
BRANCH  18  19
HETATM   19  C10 UNL     1     -22.736   0.549   4.095  1.00  0.00    -0.030 A 
HETATM   20  C11 UNL     1     -22.651  -0.814   4.251  1.00  0.00     0.009 A 
HETATM   21  C12 UNL     1     -23.058  -1.456   5.403  1.00  0.00     0.001 A 
HETATM   22  C13 UNL     1     -23.567  -0.729   6.434  1.00  0.00     0.000 A 
HETATM   23  C14 UNL     1     -23.672   0.639   6.323  1.00  0.00     0.001 A 
HETATM   24  C15 UNL     1     -23.253   1.274   5.146  1.00  0.00     0.009 A 
ENDBRANCH  18  19
ENDBRANCH   4  18
BRANCH   3  25
HETATM   25  C8  UNL     1     -18.975   1.611   3.321  1.00  0.00     0.202 C 
BRANCH  25  26
HETATM   26  O4  UNL     1     -18.490   0.472   2.660  1.00  0.00    -0.399 OA
ATOM     27  H4  UNL     1     -19.203  -0.156   2.650  1.00  0.00     0.209 HD
ENDBRANCH  25  26
ENDBRANCH   3  25
TORSDOF 12
ENDMDL
