MODEL 1
REMARK VINA RESULT: -7.149448475      0.000      0.000
REMARK  9 active torsions:
REMARK  status: ('A' for Active; 'I' for Inactive)
REMARK    1  A    between atoms: C1_2  and  N1_3 
REMARK    2  A    between atoms: N1_3  and  C2_5 
REMARK    3  A    between atoms: C2_5  and  C3_6 
REMARK    4  A    between atoms: C3_6  and  C4_7 
REMARK    5  A    between atoms: C4_7  and  N2_8 
REMARK    6  A    between atoms: N2_8  and  C5_10 
REMARK    7  A    between atoms: C5_10  and  C6_11 
REMARK    8  A    between atoms: C6_11  and  C7_12 
REMARK    9  A    between atoms: N3_13  and  C8_15 
ROOT
HETATM    1  C8  UNL     1       4.875  13.493  45.089  1.00  0.00     0.139 A 
HETATM    2  N4  UNL     1       4.556  12.789  46.242  1.00  0.00    -0.283 N 
ATOM      3  H4  UNL     1       3.978  11.950  46.273  1.00  0.00     0.188 HD
HETATM    4  N5  UNL     1       5.101  13.354  47.276  1.00  0.00    -0.283 N 
ATOM      5  H5  UNL     1       5.004  13.012  48.232  1.00  0.00     0.188 HD
HETATM    6  C9  UNL     1       5.816  14.456  46.933  1.00  0.00     0.143 A 
HETATM    7  N6  UNL     1       6.532  15.342  47.628  1.00  0.00    -0.292 N 
ATOM      8  H6  UNL     1       6.615  15.244  48.640  1.00  0.00     0.172 HD
HETATM    9  C10 UNL     1       7.146  16.361  47.006  1.00  0.00     0.328 A 
HETATM   10  O2  UNL     1       7.832  17.217  47.639  1.00  0.00    -0.247 OA
HETATM   11  N7  UNL     1       6.999  16.434  45.671  1.00  0.00    -0.275 N 
ATOM     12  H7  UNL     1       7.462  17.203  45.187  1.00  0.00     0.173 HD
HETATM   13  C11 UNL     1       6.292  15.571  44.931  1.00  0.00     0.267 A 
HETATM   14  O3  UNL     1       6.174  15.671  43.692  1.00  0.00    -0.267 OA
HETATM   15  C12 UNL     1       5.660  14.525  45.552  1.00  0.00     0.123 A 
ENDROOT
BRANCH   1  16
HETATM   16  N3  UNL     1       4.462  13.122  43.989  1.00  0.00    -0.354 N 
HETATM   17  C7  UNL     1       3.552  13.199  42.993  1.00  0.00     0.068 C 
ATOM     18  H3  UNL     1       5.130  12.416  43.681  1.00  0.00     0.166 HD
BRANCH  17  19
HETATM   19  C6  UNL     1       2.484  12.104  42.925  1.00  0.00     0.089 C 
BRANCH  19  20
HETATM   20  C5  UNL     1       3.002  10.805  43.458  1.00  0.00     0.065 C 
BRANCH  20  21
HETATM   21  N2  UNL     1       2.247  10.215  44.491  1.00  0.00    -0.382 N 
ATOM     22  H2  UNL     1       2.597   9.384  44.969  1.00  0.00     0.164 HD
BRANCH  21  23
HETATM   23  C4  UNL     1       1.008  10.776  44.860  1.00  0.00     0.061 C 
BRANCH  23  24
HETATM   24  C3  UNL     1      -0.035   9.759  45.282  1.00  0.00     0.064 C 
BRANCH  24  25
HETATM   25  C2  UNL     1      -1.028  10.438  46.227  1.00  0.00     0.127 C 
BRANCH  25  26
HETATM   26  N1  UNL     1      -1.148   9.739  47.471  1.00  0.00    -0.368 N 
ATOM     27  H1  UNL     1      -0.753  10.182  48.300  1.00  0.00     0.161 HD
BRANCH  26  28
HETATM   28  C1  UNL     1      -1.776   8.474  47.640  1.00  0.00     0.348 C 
HETATM   29  O1  UNL     1      -1.124   7.459  47.917  1.00  0.00    -0.284 OA
ENDBRANCH  26  28
ENDBRANCH  25  26
ENDBRANCH  24  25
ENDBRANCH  23  24
ENDBRANCH  21  23
ENDBRANCH  20  21
ENDBRANCH  19  20
ENDBRANCH  17  19
ENDBRANCH   1  16
TORSDOF 9
ENDMDL
MODEL 2
REMARK VINA RESULT: -7.136680703      2.915      8.411
REMARK  9 active torsions:
REMARK  status: ('A' for Active; 'I' for Inactive)
REMARK    1  A    between atoms: C1_2  and  N1_3 
REMARK    2  A    between atoms: N1_3  and  C2_5 
REMARK    3  A    between atoms: C2_5  and  C3_6 
REMARK    4  A    between atoms: C3_6  and  C4_7 
REMARK    5  A    between atoms: C4_7  and  N2_8 
REMARK    6  A    between atoms: N2_8  and  C5_10 
REMARK    7  A    between atoms: C5_10  and  C6_11 
REMARK    8  A    between atoms: C6_11  and  C7_12 
REMARK    9  A    between atoms: N3_13  and  C8_15 
ROOT
HETATM    1  C8  UNL     1       2.574  11.341  44.409  1.00  0.00     0.139 A 
HETATM    2  N4  UNL     1       1.344  11.064  44.991  1.00  0.00    -0.283 N 
ATOM      3  H4  UNL     1       0.787  11.730  45.524  1.00  0.00     0.188 HD
HETATM    4  N5  UNL     1       1.007   9.832  44.757  1.00  0.00    -0.283 N 
ATOM      5  H5  UNL     1       0.142   9.403  45.086  1.00  0.00     0.188 HD
HETATM    6  C9  UNL     1       1.943   9.181  44.020  1.00  0.00     0.143 A 
HETATM    7  N6  UNL     1       2.040   7.938  43.545  1.00  0.00    -0.292 N 
ATOM      8  H6  UNL     1       1.294   7.268  43.725  1.00  0.00     0.172 HD
HETATM    9  C10 UNL     1       3.113   7.564  42.830  1.00  0.00     0.328 A 
HETATM   10  O2  UNL     1       3.233   6.392  42.366  1.00  0.00    -0.247 OA
HETATM   11  N7  UNL     1       4.062   8.494  42.626  1.00  0.00    -0.275 N 
ATOM     12  H7  UNL     1       4.881   8.222  42.083  1.00  0.00     0.173 HD
HETATM   13  C11 UNL     1       4.010   9.752  43.082  1.00  0.00     0.267 A 
HETATM   14  O3  UNL     1       4.912  10.591  42.876  1.00  0.00    -0.267 OA
HETATM   15  C12 UNL     1       2.921  10.149  43.814  1.00  0.00     0.123 A 
ENDROOT
BRANCH   1  16
HETATM   16  N3  UNL     1       3.079  12.460  44.507  1.00  0.00    -0.354 N 
HETATM   17  C7  UNL     1       3.660  13.538  43.932  1.00  0.00     0.068 C 
ATOM     18  H3  UNL     1       3.041  12.682  45.501  1.00  0.00     0.166 HD
BRANCH  17  19
HETATM   19  C6  UNL     1       5.181  13.665  44.044  1.00  0.00     0.089 C 
BRANCH  19  20
HETATM   20  C5  UNL     1       5.575  14.984  44.630  1.00  0.00     0.065 C 
BRANCH  20  21
HETATM   21  N2  UNL     1       4.919  15.353  45.821  1.00  0.00    -0.382 N 
ATOM     22  H2  UNL     1       3.900  15.341  45.869  1.00  0.00     0.164 HD
BRANCH  21  23
HETATM   23  C4  UNL     1       5.677  15.739  46.945  1.00  0.00     0.061 C 
BRANCH  23  24
HETATM   24  C3  UNL     1       7.175  15.571  46.773  1.00  0.00     0.064 C 
BRANCH  24  25
HETATM   25  C2  UNL     1       7.844  16.936  46.944  1.00  0.00     0.127 C 
BRANCH  25  26
HETATM   26  N1  UNL     1       7.323  17.651  48.071  1.00  0.00    -0.368 N 
ATOM     27  H1  UNL     1       6.448  17.318  48.476  1.00  0.00     0.161 HD
BRANCH  26  28
HETATM   28  C1  UNL     1       7.930  18.789  48.668  1.00  0.00     0.348 C 
HETATM   29  O1  UNL     1       8.465  18.727  49.782  1.00  0.00    -0.284 OA
ENDBRANCH  26  28
ENDBRANCH  25  26
ENDBRANCH  24  25
ENDBRANCH  23  24
ENDBRANCH  21  23
ENDBRANCH  20  21
ENDBRANCH  19  20
ENDBRANCH  17  19
ENDBRANCH   1  16
TORSDOF 9
ENDMDL
MODEL 3
REMARK VINA RESULT: -7.102499488      2.597      3.636
REMARK  9 active torsions:
REMARK  status: ('A' for Active; 'I' for Inactive)
REMARK    1  A    between atoms: C1_2  and  N1_3 
REMARK    2  A    between atoms: N1_3  and  C2_5 
REMARK    3  A    between atoms: C2_5  and  C3_6 
REMARK    4  A    between atoms: C3_6  and  C4_7 
REMARK    5  A    between atoms: C4_7  and  N2_8 
REMARK    6  A    between atoms: N2_8  and  C5_10 
REMARK    7  A    between atoms: C5_10  and  C6_11 
REMARK    8  A    between atoms: C6_11  and  C7_12 
REMARK    9  A    between atoms: N3_13  and  C8_15 
ROOT
HETATM    1  C8  UNL     1       4.530  13.477  44.940  1.00  0.00     0.139 A 
HETATM    2  N4  UNL     1       4.404  12.648  46.046  1.00  0.00    -0.283 N 
ATOM      3  H4  UNL     1       3.806  11.824  46.092  1.00  0.00     0.188 HD
HETATM    4  N5  UNL     1       5.159  13.074  47.012  1.00  0.00    -0.283 N 
ATOM      5  H5  UNL     1       5.230  12.622  47.924  1.00  0.00     0.188 HD
HETATM    6  C9  UNL     1       5.844  14.193  46.664  1.00  0.00     0.143 A 
HETATM    7  N6  UNL     1       6.718  14.973  47.303  1.00  0.00    -0.292 N 
ATOM      8  H6  UNL     1       6.986  14.754  48.263  1.00  0.00     0.172 HD
HETATM    9  C10 UNL     1       7.247  16.046  46.694  1.00  0.00     0.328 A 
HETATM   10  O2  UNL     1       8.078  16.805  47.274  1.00  0.00    -0.247 OA
HETATM   11  N7  UNL     1       6.854  16.281  45.429  1.00  0.00    -0.275 N 
ATOM     12  H7  UNL     1       7.250  17.092  44.955  1.00  0.00     0.173 HD
HETATM   13  C11 UNL     1       5.982  15.528  44.747  1.00  0.00     0.267 A 
HETATM   14  O3  UNL     1       5.636  15.777  43.573  1.00  0.00    -0.267 OA
HETATM   15  C12 UNL     1       5.433  14.430  45.356  1.00  0.00     0.123 A 
ENDROOT
BRANCH   1  16
HETATM   16  N3  UNL     1       3.901  13.249  43.906  1.00  0.00    -0.354 N 
HETATM   17  C7  UNL     1       2.722  13.118  43.256  1.00  0.00     0.068 C 
ATOM     18  H3  UNL     1       4.612  13.076  43.196  1.00  0.00     0.166 HD
BRANCH  17  19
HETATM   19  C6  UNL     1       2.219  11.698  42.984  1.00  0.00     0.089 C 
BRANCH  19  20
HETATM   20  C5  UNL     1       1.914  10.975  44.258  1.00  0.00     0.065 C 
BRANCH  20  21
HETATM   21  N2  UNL     1       2.530   9.718  44.420  1.00  0.00    -0.382 N 
ATOM     22  H2  UNL     1       3.446   9.650  44.863  1.00  0.00     0.164 HD
BRANCH  21  23
HETATM   23  C4  UNL     1       1.874   8.555  43.966  1.00  0.00     0.061 C 
BRANCH  23  24
HETATM   24  C3  UNL     1       2.708   7.693  43.037  1.00  0.00     0.064 C 
BRANCH  24  25
HETATM   25  C2  UNL     1       4.186   7.902  43.369  1.00  0.00     0.127 C 
BRANCH  25  26
HETATM   26  N1  UNL     1       4.895   8.525  42.291  1.00  0.00    -0.368 N 
ATOM     27  H1  UNL     1       5.008   7.989  41.431  1.00  0.00     0.161 HD
BRANCH  26  28
HETATM   28  C1  UNL     1       5.453   9.832  42.327  1.00  0.00     0.348 C 
HETATM   29  O1  UNL     1       5.424  10.521  43.354  1.00  0.00    -0.284 OA
ENDBRANCH  26  28
ENDBRANCH  25  26
ENDBRANCH  24  25
ENDBRANCH  23  24
ENDBRANCH  21  23
ENDBRANCH  20  21
ENDBRANCH  19  20
ENDBRANCH  17  19
ENDBRANCH   1  16
TORSDOF 9
ENDMDL
MODEL 4
REMARK VINA RESULT: -7.007370198      2.176      2.496
REMARK  9 active torsions:
REMARK  status: ('A' for Active; 'I' for Inactive)
REMARK    1  A    between atoms: C1_2  and  N1_3 
REMARK    2  A    between atoms: N1_3  and  C2_5 
REMARK    3  A    between atoms: C2_5  and  C3_6 
REMARK    4  A    between atoms: C3_6  and  C4_7 
REMARK    5  A    between atoms: C4_7  and  N2_8 
REMARK    6  A    between atoms: N2_8  and  C5_10 
REMARK    7  A    between atoms: C5_10  and  C6_11 
REMARK    8  A    between atoms: C6_11  and  C7_12 
REMARK    9  A    between atoms: N3_13  and  C8_15 
ROOT
HETATM    1  C8  UNL     1       4.577  13.427  45.056  1.00  0.00     0.139 A 
HETATM    2  N4  UNL     1       4.477  12.663  46.211  1.00  0.00    -0.283 N 
ATOM      3  H4  UNL     1       3.895  11.832  46.312  1.00  0.00     0.188 HD
HETATM    4  N5  UNL     1       5.231  13.161  47.143  1.00  0.00    -0.283 N 
ATOM      5  H5  UNL     1       5.318  12.767  48.080  1.00  0.00     0.188 HD
HETATM    6  C9  UNL     1       5.890  14.270  46.723  1.00  0.00     0.143 A 
HETATM    7  N6  UNL     1       6.753  15.105  47.306  1.00  0.00    -0.292 N 
ATOM      8  H6  UNL     1       7.033  14.948  48.274  1.00  0.00     0.172 HD
HETATM    9  C10 UNL     1       7.255  16.149  46.629  1.00  0.00     0.328 A 
HETATM   10  O2  UNL     1       8.076  16.958  47.155  1.00  0.00    -0.247 OA
HETATM   11  N7  UNL     1       6.848  16.300  45.356  1.00  0.00    -0.275 N 
ATOM     12  H7  UNL     1       7.224  17.089  44.830  1.00  0.00     0.173 HD
HETATM   13  C11 UNL     1       5.985  15.491  44.728  1.00  0.00     0.267 A 
HETATM   14  O3  UNL     1       5.626  15.663  43.545  1.00  0.00    -0.267 OA
HETATM   15  C12 UNL     1       5.464  14.421  45.407  1.00  0.00     0.123 A 
ENDROOT
BRANCH   1  16
HETATM   16  N3  UNL     1       3.944  13.125  44.044  1.00  0.00    -0.354 N 
HETATM   17  C7  UNL     1       2.787  13.117  43.344  1.00  0.00     0.068 C 
ATOM     18  H3  UNL     1       4.618  12.654  43.441  1.00  0.00     0.166 HD
BRANCH  17  19
HETATM   19  C6  UNL     1       1.981  11.815  43.325  1.00  0.00     0.089 C 
BRANCH  19  20
HETATM   20  C5  UNL     1       2.872  10.623  43.480  1.00  0.00     0.065 C 
BRANCH  20  21
HETATM   21  N2  UNL     1       2.464   9.664  44.429  1.00  0.00    -0.382 N 
ATOM     22  H2  UNL     1       2.672   9.801  45.418  1.00  0.00     0.164 HD
BRANCH  21  23
HETATM   23  C4  UNL     1       1.765   8.515  44.005  1.00  0.00     0.061 C 
BRANCH  23  24
HETATM   24  C3  UNL     1       2.641   7.455  43.365  1.00  0.00     0.064 C 
BRANCH  24  25
HETATM   25  C2  UNL     1       3.143   6.509  44.457  1.00  0.00     0.127 C 
BRANCH  25  26
HETATM   26  N1  UNL     1       2.168   6.316  45.488  1.00  0.00    -0.368 N 
ATOM     27  H1  UNL     1       1.275   6.798  45.388  1.00  0.00     0.161 HD
BRANCH  26  28
HETATM   28  C1  UNL     1       2.348   5.504  46.641  1.00  0.00     0.348 C 
HETATM   29  O1  UNL     1       3.178   5.791  47.512  1.00  0.00    -0.284 OA
ENDBRANCH  26  28
ENDBRANCH  25  26
ENDBRANCH  24  25
ENDBRANCH  23  24
ENDBRANCH  21  23
ENDBRANCH  20  21
ENDBRANCH  19  20
ENDBRANCH  17  19
ENDBRANCH   1  16
TORSDOF 9
ENDMDL
MODEL 5
REMARK VINA RESULT: -6.975987341      2.444      3.118
REMARK  9 active torsions:
REMARK  status: ('A' for Active; 'I' for Inactive)
REMARK    1  A    between atoms: C1_2  and  N1_3 
REMARK    2  A    between atoms: N1_3  and  C2_5 
REMARK    3  A    between atoms: C2_5  and  C3_6 
REMARK    4  A    between atoms: C3_6  and  C4_7 
REMARK    5  A    between atoms: C4_7  and  N2_8 
REMARK    6  A    between atoms: N2_8  and  C5_10 
REMARK    7  A    between atoms: C5_10  and  C6_11 
REMARK    8  A    between atoms: C6_11  and  C7_12 
REMARK    9  A    between atoms: N3_13  and  C8_15 
ROOT
HETATM    1  C8  UNL     1       5.209  13.842  44.004  1.00  0.00     0.139 A 
HETATM    2  N4  UNL     1       5.411  14.712  42.942  1.00  0.00    -0.283 N 
ATOM      3  H4  UNL     1       5.075  14.560  41.991  1.00  0.00     0.188 HD
HETATM    4  N5  UNL     1       6.090  15.747  43.333  1.00  0.00    -0.283 N 
ATOM      5  H5  UNL     1       6.358  16.519  42.723  1.00  0.00     0.188 HD
HETATM    6  C9  UNL     1       6.401  15.678  44.653  1.00  0.00     0.143 A 
HETATM    7  N6  UNL     1       7.069  16.481  45.484  1.00  0.00    -0.292 N 
ATOM      8  H6  UNL     1       7.462  17.355  45.136  1.00  0.00     0.172 HD
HETATM    9  C10 UNL     1       7.228  16.146  46.774  1.00  0.00     0.328 A 
HETATM   10  O2  UNL     1       7.856  16.887  47.586  1.00  0.00    -0.247 OA
HETATM   11  N7  UNL     1       6.685  14.981  47.170  1.00  0.00    -0.275 N 
ATOM     12  H7  UNL     1       6.798  14.717  48.149  1.00  0.00     0.173 HD
HETATM   13  C11 UNL     1       6.008  14.143  46.375  1.00  0.00     0.267 A 
HETATM   14  O3  UNL     1       5.519  13.067  46.776  1.00  0.00    -0.267 OA
HETATM   15  C12 UNL     1       5.838  14.471  45.055  1.00  0.00     0.123 A 
ENDROOT
BRANCH   1  16
HETATM   16  N3  UNL     1       4.579  12.795  43.851  1.00  0.00    -0.354 N 
HETATM   17  C7  UNL     1       3.862  11.963  43.062  1.00  0.00     0.068 C 
ATOM     18  H3  UNL     1       4.617  12.329  44.758  1.00  0.00     0.166 HD
BRANCH  17  19
HETATM   19  C6  UNL     1       2.339  11.975  43.222  1.00  0.00     0.089 C 
BRANCH  19  20
HETATM   20  C5  UNL     1       1.899  11.039  44.303  1.00  0.00     0.065 C 
BRANCH  20  21
HETATM   21  N2  UNL     1       2.550   9.790  44.344  1.00  0.00    -0.382 N 
ATOM     22  H2  UNL     1       3.524   9.730  44.640  1.00  0.00     0.164 HD
BRANCH  21  23
HETATM   23  C4  UNL     1       1.849   8.624  43.974  1.00  0.00     0.061 C 
BRANCH  23  24
HETATM   24  C3  UNL     1       2.716   7.552  43.340  1.00  0.00     0.064 C 
BRANCH  24  25
HETATM   25  C2  UNL     1       3.157   6.571  44.428  1.00  0.00     0.127 C 
BRANCH  25  26
HETATM   26  N1  UNL     1       2.155   6.407  45.438  1.00  0.00    -0.368 N 
ATOM     27  H1  UNL     1       1.289   6.934  45.333  1.00  0.00     0.161 HD
BRANCH  26  28
HETATM   28  C1  UNL     1       2.275   5.565  46.578  1.00  0.00     0.348 C 
HETATM   29  O1  UNL     1       3.156   5.747  47.428  1.00  0.00    -0.284 OA
ENDBRANCH  26  28
ENDBRANCH  25  26
ENDBRANCH  24  25
ENDBRANCH  23  24
ENDBRANCH  21  23
ENDBRANCH  20  21
ENDBRANCH  19  20
ENDBRANCH  17  19
ENDBRANCH   1  16
TORSDOF 9
ENDMDL
