MODEL 1
REMARK VINA RESULT: -6.076120585      0.000      0.000
REMARK  12 active torsions:
REMARK  status: ('A' for Active; 'I' for Inactive)
REMARK    1  A    between atoms: N1_2  and  C4_5 
REMARK    2  A    between atoms: C4_5  and  C5_6 
REMARK    3  A    between atoms: C6_9  and  C7_10 
REMARK    4  A    between atoms: C7_10  and  C8_11 
REMARK    5  A    between atoms: C8_11  and  C9_12 
REMARK    6  A    between atoms: C9_12  and  N3_13 
REMARK    7  A    between atoms: N3_13  and  C10_15 
REMARK    8  A    between atoms: C10_15  and  C11_16 
REMARK    9  A    between atoms: C11_16  and  N4_17 
REMARK   10  A    between atoms: C12_21  and  O1_22 
REMARK   11  A    between atoms: C13_24  and  O2_25 
REMARK   12  A    between atoms: C14_27  and  O3_28 
ROOT
HETATM    1  C5  UNL     1       4.788  10.599  43.193  1.00  0.00     0.134 C 
HETATM    2  N2  UNL     1       4.845  11.964  42.851  1.00  0.00    -0.406 N 
ATOM      3  H2  UNL     1       5.655  12.322  42.344  1.00  0.00     0.154 HD
HETATM    4  C6  UNL     1       3.811  12.836  43.193  1.00  0.00     0.108 C 
HETATM    5  C12 UNL     1       2.509  12.228  43.615  1.00  0.00     0.171 C 
HETATM    6  C13 UNL     1       2.614  10.963  44.379  1.00  0.00     0.179 C 
HETATM    7  C14 UNL     1       3.994  10.409  44.486  1.00  0.00     0.173 C 
ENDROOT
BRANCH   4   8
HETATM    8  C7  UNL     1       4.259  13.831  44.231  1.00  0.00     0.029 C 
BRANCH   8   9
HETATM    9  C8  UNL     1       5.351  14.763  43.779  1.00  0.00     0.022 C 
BRANCH   9  10
HETATM   10  C9  UNL     1       5.908  15.617  44.926  1.00  0.00     0.119 C 
BRANCH  10  11
HETATM   11  N3  UNL     1       5.163  15.419  46.111  1.00  0.00    -0.401 N 
ATOM     12  H3  UNL     1       4.149  15.525  46.096  1.00  0.00     0.158 HD
BRANCH  11  13
HETATM   13  C10 UNL     1       5.810  15.079  47.308  1.00  0.00     0.082 C 
BRANCH  13  14
HETATM   14  C11 UNL     1       5.854  13.651  47.697  1.00  0.00     0.273 C 
BRANCH  14  15
HETATM   15  N4  UNL     1       4.593  13.023  47.952  1.00  0.00    -0.075 N 
ATOM     16  H43 UNL     1       3.856  13.513  47.444  1.00  0.00     0.274 HD
ATOM     17  H42 UNL     1       4.562  12.113  47.492  1.00  0.00     0.274 HD
ATOM     18  H41 UNL     1       4.328  12.924  48.932  1.00  0.00     0.274 HD
ENDBRANCH  14  15
ENDBRANCH  13  14
ENDBRANCH  11  13
ENDBRANCH  10  11
ENDBRANCH   9  10
ENDBRANCH   8   9
ENDBRANCH   4   8
BRANCH   5  19
HETATM   19  O1  UNL     1       1.622  12.149  42.542  1.00  0.00    -0.391 OA
ATOM     20  H1  UNL     1       1.996  11.650  41.825  1.00  0.00     0.210 HD
ENDBRANCH   5  19
BRANCH   1  21
HETATM   21  C4  UNL     1       4.353   9.642  42.147  1.00  0.00     0.263 C 
BRANCH  21  22
HETATM   22  N1  UNL     1       5.309   8.749  41.610  1.00  0.00    -0.077 N 
HETATM   23  C1  UNL     1       5.749   9.335  40.322  1.00  0.00     0.271 C 
HETATM   24  C2  UNL     1       6.535   8.602  42.369  1.00  0.00     0.271 C 
HETATM   25  C3  UNL     1       4.763   7.460  41.228  1.00  0.00     0.271 C 
ENDBRANCH  21  22
ENDBRANCH   1  21
BRANCH   6  26
HETATM   26  O2  UNL     1       1.765   9.996  43.792  1.00  0.00    -0.390 OA
ATOM     27  H2  UNL     1       2.052   9.829  42.903  1.00  0.00     0.210 HD
ENDBRANCH   6  26
BRANCH   7  28
HETATM   28  O3  UNL     1       3.877   9.039  44.768  1.00  0.00    -0.391 OA
ATOM     29  H3  UNL     1       4.401   8.827  45.532  1.00  0.00     0.210 HD
ENDBRANCH   7  28
TORSDOF 12
ENDMDL
MODEL 2
REMARK VINA RESULT: -5.688998212      0.858      1.303
REMARK  12 active torsions:
REMARK  status: ('A' for Active; 'I' for Inactive)
REMARK    1  A    between atoms: N1_2  and  C4_5 
REMARK    2  A    between atoms: C4_5  and  C5_6 
REMARK    3  A    between atoms: C6_9  and  C7_10 
REMARK    4  A    between atoms: C7_10  and  C8_11 
REMARK    5  A    between atoms: C8_11  and  C9_12 
REMARK    6  A    between atoms: C9_12  and  N3_13 
REMARK    7  A    between atoms: N3_13  and  C10_15 
REMARK    8  A    between atoms: C10_15  and  C11_16 
REMARK    9  A    between atoms: C11_16  and  N4_17 
REMARK   10  A    between atoms: C12_21  and  O1_22 
REMARK   11  A    between atoms: C13_24  and  O2_25 
REMARK   12  A    between atoms: C14_27  and  O3_28 
ROOT
HETATM    1  C5  UNL     1       4.730  10.466  43.153  1.00  0.00     0.134 C 
HETATM    2  N2  UNL     1       4.814  11.818  42.768  1.00  0.00    -0.406 N 
ATOM      3  H2  UNL     1       5.620  12.137  42.230  1.00  0.00     0.154 HD
HETATM    4  C6  UNL     1       3.813  12.728  43.109  1.00  0.00     0.108 C 
HETATM    5  C12 UNL     1       2.507  12.169  43.582  1.00  0.00     0.171 C 
HETATM    6  C13 UNL     1       2.599  10.924  44.382  1.00  0.00     0.179 C 
HETATM    7  C14 UNL     1       3.965  10.336  44.471  1.00  0.00     0.173 C 
ENDROOT
BRANCH   4   8
HETATM    8  C7  UNL     1       4.315  13.740  44.105  1.00  0.00     0.029 C 
BRANCH   8   9
HETATM    9  C8  UNL     1       5.448  14.600  43.610  1.00  0.00     0.022 C 
BRANCH   9  10
HETATM   10  C9  UNL     1       5.861  15.671  44.629  1.00  0.00     0.119 C 
BRANCH  10  11
HETATM   11  N3  UNL     1       5.181  15.492  45.855  1.00  0.00    -0.401 N 
ATOM     12  H3  UNL     1       4.168  15.365  45.859  1.00  0.00     0.158 HD
BRANCH  11  13
HETATM   13  C10 UNL     1       5.889  15.487  47.065  1.00  0.00     0.082 C 
BRANCH  13  14
HETATM   14  C11 UNL     1       7.220  16.135  47.099  1.00  0.00     0.273 C 
BRANCH  14  15
HETATM   15  N4  UNL     1       7.299  17.386  47.790  1.00  0.00    -0.075 N 
ATOM     16  H43 UNL     1       6.725  18.080  47.313  1.00  0.00     0.274 HD
ATOM     17  H42 UNL     1       6.806  17.319  48.681  1.00  0.00     0.274 HD
ATOM     18  H41 UNL     1       8.236  17.759  47.942  1.00  0.00     0.274 HD
ENDBRANCH  14  15
ENDBRANCH  13  14
ENDBRANCH  11  13
ENDBRANCH  10  11
ENDBRANCH   9  10
ENDBRANCH   8   9
ENDBRANCH   4   8
BRANCH   5  19
HETATM   19  O1  UNL     1       1.590  12.082  42.536  1.00  0.00    -0.391 OA
ATOM     20  H1  UNL     1       1.441  12.932  42.140  1.00  0.00     0.210 HD
ENDBRANCH   5  19
BRANCH   1  21
HETATM   21  C4  UNL     1       4.242   9.490  42.148  1.00  0.00     0.263 C 
BRANCH  21  22
HETATM   22  N1  UNL     1       5.172   8.595  41.570  1.00  0.00    -0.077 N 
HETATM   23  C1  UNL     1       5.682   9.258  40.347  1.00  0.00     0.271 C 
HETATM   24  C2  UNL     1       6.363   8.327  42.351  1.00  0.00     0.271 C 
HETATM   25  C3  UNL     1       4.578   7.369  41.070  1.00  0.00     0.271 C 
ENDBRANCH  21  22
ENDBRANCH   1  21
BRANCH   6  26
HETATM   26  O2  UNL     1       1.709   9.964  43.847  1.00  0.00    -0.390 OA
ATOM     27  H2  UNL     1       2.196   9.183  43.617  1.00  0.00     0.210 HD
ENDBRANCH   6  26
BRANCH   7  28
HETATM   28  O3  UNL     1       3.820   8.979  44.798  1.00  0.00    -0.391 OA
ATOM     29  H3  UNL     1       3.031   8.638  44.394  1.00  0.00     0.210 HD
ENDBRANCH   7  28
TORSDOF 12
ENDMDL
MODEL 3
REMARK VINA RESULT: -5.655121750      1.299      1.848
REMARK  12 active torsions:
REMARK  status: ('A' for Active; 'I' for Inactive)
REMARK    1  A    between atoms: N1_2  and  C4_5 
REMARK    2  A    between atoms: C4_5  and  C5_6 
REMARK    3  A    between atoms: C6_9  and  C7_10 
REMARK    4  A    between atoms: C7_10  and  C8_11 
REMARK    5  A    between atoms: C8_11  and  C9_12 
REMARK    6  A    between atoms: C9_12  and  N3_13 
REMARK    7  A    between atoms: N3_13  and  C10_15 
REMARK    8  A    between atoms: C10_15  and  C11_16 
REMARK    9  A    between atoms: C11_16  and  N4_17 
REMARK   10  A    between atoms: C12_21  and  O1_22 
REMARK   11  A    between atoms: C13_24  and  O2_25 
REMARK   12  A    between atoms: C14_27  and  O3_28 
ROOT
HETATM    1  C5  UNL     1       4.905  11.022  43.337  1.00  0.00     0.134 C 
HETATM    2  N2  UNL     1       5.112  12.393  43.089  1.00  0.00    -0.406 N 
ATOM      3  H2  UNL     1       6.005  12.704  42.706  1.00  0.00     0.154 HD
HETATM    4  C6  UNL     1       4.117  13.333  43.359  1.00  0.00     0.108 C 
HETATM    5  C12 UNL     1       2.729  12.819  43.583  1.00  0.00     0.171 C 
HETATM    6  C13 UNL     1       2.637  11.511  44.275  1.00  0.00     0.179 C 
HETATM    7  C14 UNL     1       3.943  10.835  44.512  1.00  0.00     0.173 C 
ENDROOT
BRANCH   4   8
HETATM    8  C7  UNL     1       4.511  14.230  44.503  1.00  0.00     0.029 C 
BRANCH   8   9
HETATM    9  C8  UNL     1       5.887  13.974  45.057  1.00  0.00     0.022 C 
BRANCH   9  10
HETATM   10  C9  UNL     1       5.876  13.756  46.576  1.00  0.00     0.119 C 
BRANCH  10  11
HETATM   11  N3  UNL     1       6.714  14.690  47.227  1.00  0.00    -0.401 N 
ATOM     12  H3  UNL     1       7.369  14.372  47.942  1.00  0.00     0.158 HD
BRANCH  11  13
HETATM   13  C10 UNL     1       6.651  16.051  46.896  1.00  0.00     0.082 C 
BRANCH  13  14
HETATM   14  C11 UNL     1       7.923  16.785  46.708  1.00  0.00     0.273 C 
BRANCH  14  15
HETATM   15  N4  UNL     1       8.256  17.142  45.362  1.00  0.00    -0.075 N 
ATOM     16  H43 UNL     1       8.063  18.132  45.211  1.00  0.00     0.274 HD
ATOM     17  H42 UNL     1       9.269  17.131  45.244  1.00  0.00     0.274 HD
ATOM     18  H41 UNL     1       7.817  16.589  44.626  1.00  0.00     0.274 HD
ENDBRANCH  14  15
ENDBRANCH  13  14
ENDBRANCH  11  13
ENDBRANCH  10  11
ENDBRANCH   9  10
ENDBRANCH   8   9
ENDBRANCH   4   8
BRANCH   5  19
HETATM   19  O1  UNL     1       1.978  12.873  42.409  1.00  0.00    -0.391 OA
ATOM     20  H1  UNL     1       1.158  13.333  42.548  1.00  0.00     0.210 HD
ENDBRANCH   5  19
BRANCH   1  21
HETATM   21  C4  UNL     1       4.528  10.162  42.189  1.00  0.00     0.263 C 
BRANCH  21  22
HETATM   22  N1  UNL     1       5.431   9.155  41.776  1.00  0.00    -0.077 N 
HETATM   23  C1  UNL     1       5.730   9.424  40.350  1.00  0.00     0.271 C 
HETATM   24  C2  UNL     1       6.730   9.167  42.418  1.00  0.00     0.271 C 
HETATM   25  C3  UNL     1       4.859   7.821  41.758  1.00  0.00     0.271 C 
ENDBRANCH  21  22
ENDBRANCH   1  21
BRANCH   6  26
HETATM   26  O2  UNL     1       1.792  10.654  43.532  1.00  0.00    -0.390 OA
ATOM     27  H2  UNL     1       2.281  10.291  42.804  1.00  0.00     0.210 HD
ENDBRANCH   6  26
BRANCH   7  28
HETATM   28  O3  UNL     1       3.684   9.468  44.692  1.00  0.00    -0.391 OA
ATOM     29  H3  UNL     1       2.855   9.359  45.143  1.00  0.00     0.210 HD
ENDBRANCH   7  28
TORSDOF 12
ENDMDL
MODEL 4
REMARK VINA RESULT: -5.417643484      1.535      6.199
REMARK  12 active torsions:
REMARK  status: ('A' for Active; 'I' for Inactive)
REMARK    1  A    between atoms: N1_2  and  C4_5 
REMARK    2  A    between atoms: C4_5  and  C5_6 
REMARK    3  A    between atoms: C6_9  and  C7_10 
REMARK    4  A    between atoms: C7_10  and  C8_11 
REMARK    5  A    between atoms: C8_11  and  C9_12 
REMARK    6  A    between atoms: C9_12  and  N3_13 
REMARK    7  A    between atoms: N3_13  and  C10_15 
REMARK    8  A    between atoms: C10_15  and  C11_16 
REMARK    9  A    between atoms: C11_16  and  N4_17 
REMARK   10  A    between atoms: C12_21  and  O1_22 
REMARK   11  A    between atoms: C13_24  and  O2_25 
REMARK   12  A    between atoms: C14_27  and  O3_28 
ROOT
HETATM    1  C5  UNL     1       4.122  12.815  43.283  1.00  0.00     0.134 C 
HETATM    2  N2  UNL     1       5.119  11.898  42.897  1.00  0.00    -0.406 N 
ATOM      3  H2  UNL     1       6.018  12.245  42.561  1.00  0.00     0.154 HD
HETATM    4  C6  UNL     1       4.898  10.522  42.967  1.00  0.00     0.108 C 
HETATM    5  C12 UNL     1       3.729  10.053  43.774  1.00  0.00     0.171 C 
HETATM    6  C13 UNL     1       2.537  10.934  43.742  1.00  0.00     0.179 C 
HETATM    7  C14 UNL     1       2.733  12.227  43.028  1.00  0.00     0.173 C 
ENDROOT
BRANCH   4   8
HETATM    8  C7  UNL     1       4.835   9.911  41.591  1.00  0.00     0.029 C 
BRANCH   8   9
HETATM    9  C8  UNL     1       4.910   8.408  41.567  1.00  0.00     0.022 C 
BRANCH   9  10
HETATM   10  C9  UNL     1       5.397   7.865  40.217  1.00  0.00     0.119 C 
BRANCH  10  11
HETATM   11  N3  UNL     1       6.070   8.868  39.482  1.00  0.00    -0.401 N 
ATOM     12  H3  UNL     1       5.549   9.668  39.121  1.00  0.00     0.158 HD
BRANCH  11  13
HETATM   13  C10 UNL     1       7.448   8.770  39.245  1.00  0.00     0.082 C 
BRANCH  13  14
HETATM   14  C11 UNL     1       8.374   9.140  40.339  1.00  0.00     0.273 C 
BRANCH  14  15
HETATM   15  N4  UNL     1       8.346  10.509  40.758  1.00  0.00    -0.075 N 
ATOM     16  H43 UNL     1       8.460  10.562  41.770  1.00  0.00     0.274 HD
ATOM     17  H42 UNL     1       9.198  10.980  40.451  1.00  0.00     0.274 HD
ATOM     18  H41 UNL     1       7.531  11.052  40.474  1.00  0.00     0.274 HD
ENDBRANCH  14  15
ENDBRANCH  13  14
ENDBRANCH  11  13
ENDBRANCH  10  11
ENDBRANCH   9  10
ENDBRANCH   8   9
ENDBRANCH   4   8
BRANCH   5  19
HETATM   19  O1  UNL     1       4.119   9.706  45.068  1.00  0.00    -0.391 OA
ATOM     20  H1  UNL     1       4.048   8.769  45.206  1.00  0.00     0.210 HD
ENDBRANCH   5  19
BRANCH   1  21
HETATM   21  C4  UNL     1       4.216  13.408  44.639  1.00  0.00     0.263 C 
BRANCH  21  22
HETATM   22  N1  UNL     1       5.187  14.410  44.871  1.00  0.00    -0.077 N 
HETATM   23  C1  UNL     1       6.325  13.740  45.543  1.00  0.00     0.271 C 
HETATM   24  C2  UNL     1       5.775  15.008  43.689  1.00  0.00     0.271 C 
HETATM   25  C3  UNL     1       4.774  15.420  45.828  1.00  0.00     0.271 C 
ENDBRANCH  21  22
ENDBRANCH   1  21
BRANCH   6  26
HETATM   26  O2  UNL     1       2.114  11.189  45.067  1.00  0.00    -0.390 OA
ATOM     27  H2  UNL     1       2.217  12.114  45.254  1.00  0.00     0.210 HD
ENDBRANCH   6  26
BRANCH   7  28
HETATM   28  O3  UNL     1       1.754  13.118  43.493  1.00  0.00    -0.391 OA
ATOM     29  H3  UNL     1       1.814  13.191  44.438  1.00  0.00     0.210 HD
ENDBRANCH   7  28
TORSDOF 12
ENDMDL
MODEL 5
REMARK VINA RESULT: -5.333666830      1.790      6.819
REMARK  12 active torsions:
REMARK  status: ('A' for Active; 'I' for Inactive)
REMARK    1  A    between atoms: N1_2  and  C4_5 
REMARK    2  A    between atoms: C4_5  and  C5_6 
REMARK    3  A    between atoms: C6_9  and  C7_10 
REMARK    4  A    between atoms: C7_10  and  C8_11 
REMARK    5  A    between atoms: C8_11  and  C9_12 
REMARK    6  A    between atoms: C9_12  and  N3_13 
REMARK    7  A    between atoms: N3_13  and  C10_15 
REMARK    8  A    between atoms: C10_15  and  C11_16 
REMARK    9  A    between atoms: C11_16  and  N4_17 
REMARK   10  A    between atoms: C12_21  and  O1_22 
REMARK   11  A    between atoms: C13_24  and  O2_25 
REMARK   12  A    between atoms: C14_27  and  O3_28 
ROOT
HETATM    1  C5  UNL     1       4.121  12.827  43.284  1.00  0.00     0.134 C 
HETATM    2  N2  UNL     1       5.125  11.919  42.896  1.00  0.00    -0.406 N 
ATOM      3  H2  UNL     1       6.023  12.274  42.565  1.00  0.00     0.154 HD
HETATM    4  C6  UNL     1       4.913  10.541  42.956  1.00  0.00     0.108 C 
HETATM    5  C12 UNL     1       3.744  10.060  43.758  1.00  0.00     0.171 C 
HETATM    6  C13 UNL     1       2.547  10.933  43.727  1.00  0.00     0.179 C 
HETATM    7  C14 UNL     1       2.737  12.232  43.022  1.00  0.00     0.173 C 
ENDROOT
BRANCH   4   8
HETATM    8  C7  UNL     1       4.858   9.938  41.577  1.00  0.00     0.029 C 
BRANCH   8   9
HETATM    9  C8  UNL     1       5.288   8.498  41.503  1.00  0.00     0.022 C 
BRANCH   9  10
HETATM   10  C9  UNL     1       5.942   8.148  40.160  1.00  0.00     0.119 C 
BRANCH  10  11
HETATM   11  N3  UNL     1       5.001   7.578  39.272  1.00  0.00    -0.401 N 
ATOM     12  H3  UNL     1       5.057   7.783  38.274  1.00  0.00     0.158 HD
BRANCH  11  13
HETATM   13  C10 UNL     1       3.992   6.732  39.754  1.00  0.00     0.082 C 
BRANCH  13  14
HETATM   14  C11 UNL     1       3.137   6.031  38.769  1.00  0.00     0.273 C 
BRANCH  14  15
HETATM   15  N4  UNL     1       1.934   6.703  38.382  1.00  0.00    -0.075 N 
ATOM     16  H43 UNL     1       1.512   7.151  39.196  1.00  0.00     0.274 HD
ATOM     17  H42 UNL     1       2.162   7.522  37.818  1.00  0.00     0.274 HD
ATOM     18  H41 UNL     1       1.236   6.137  37.900  1.00  0.00     0.274 HD
ENDBRANCH  14  15
ENDBRANCH  13  14
ENDBRANCH  11  13
ENDBRANCH  10  11
ENDBRANCH   9  10
ENDBRANCH   8   9
ENDBRANCH   4   8
BRANCH   5  19
HETATM   19  O1  UNL     1       4.132   9.708  45.050  1.00  0.00    -0.391 OA
ATOM     20  H1  UNL     1       3.787   8.856  45.291  1.00  0.00     0.210 HD
ENDBRANCH   5  19
BRANCH   1  21
HETATM   21  C4  UNL     1       4.208  13.413  44.644  1.00  0.00     0.263 C 
BRANCH  21  22
HETATM   22  N1  UNL     1       5.177  14.414  44.887  1.00  0.00    -0.077 N 
HETATM   23  C1  UNL     1       6.321  13.736  45.540  1.00  0.00     0.271 C 
HETATM   24  C2  UNL     1       5.756  15.033  43.712  1.00  0.00     0.271 C 
HETATM   25  C3  UNL     1       4.767  15.407  45.863  1.00  0.00     0.271 C 
ENDBRANCH  21  22
ENDBRANCH   1  21
BRANCH   6  26
HETATM   26  O2  UNL     1       2.118  11.178  45.053  1.00  0.00    -0.390 OA
ATOM     27  H2  UNL     1       1.306  10.710  45.208  1.00  0.00     0.210 HD
ENDBRANCH   6  26
BRANCH   7  28
HETATM   28  O3  UNL     1       1.751  13.114  43.489  1.00  0.00    -0.391 OA
ATOM     29  H3  UNL     1       1.499  12.871  44.372  1.00  0.00     0.210 HD
ENDBRANCH   7  28
TORSDOF 12
ENDMDL
