MODEL 1
REMARK VINA RESULT: -5.984240849      0.000      0.000
REMARK  13 active torsions:
REMARK  status: ('A' for Active; 'I' for Inactive)
REMARK    1  A    between atoms: C2_2  and  N1_5 
REMARK    2  A    between atoms: N1_5  and  C5_8 
REMARK    3  A    between atoms: C5_8  and  C6_9 
REMARK    4  A    between atoms: C6_9  and  C7_10 
REMARK    5  A    between atoms: C7_10  and  O1_11 
REMARK    6  A    between atoms: C7_10  and  C8_13 
REMARK    7  A    between atoms: C8_13  and  O2_14 
REMARK    8  A    between atoms: C8_13  and  C9_16 
REMARK    9  A    between atoms: C9_16  and  O3_17 
REMARK   10  A    between atoms: C9_16  and  C10_19 
REMARK   11  A    between atoms: C10_19  and  O4_20 
REMARK   12  A    between atoms: C10_19  and  C11_22 
REMARK   13  A    between atoms: C11_22  and  S1_23 
ROOT
HETATM    1  C8  UNL     1       3.278  11.478  44.290  1.00  0.00     0.178 C 
ENDROOT
BRANCH   1   2
HETATM    2  C7  UNL     1       3.585  12.457  43.221  1.00  0.00     0.151 C 
BRANCH   2   3
HETATM    3  C6  UNL     1       4.950  13.067  43.311  1.00  0.00     0.062 C 
BRANCH   3   4
HETATM    4  C5  UNL     1       4.993  14.513  43.678  1.00  0.00     0.236 C 
BRANCH   4   5
HETATM    5  N1  UNL     1       4.679  14.598  45.103  1.00  0.00    -0.067 N 
ATOM      6  H12 UNL     1       4.404  13.688  45.473  1.00  0.00     0.278 HD
ATOM      7  H11 UNL     1       3.808  15.107  45.258  1.00  0.00     0.278 HD
BRANCH   5   8
HETATM    8  C2  UNL     1       5.748  15.162  45.864  1.00  0.00     0.115 C 
HETATM    9  C1  UNL     1       5.277  16.081  46.973  1.00  0.00     0.045 C 
HETATM   10  C3  UNL     1       6.472  13.999  46.541  1.00  0.00     0.045 C 
HETATM   11  C4  UNL     1       6.727  15.937  45.005  1.00  0.00     0.045 C 
ENDBRANCH   5   8
ENDBRANCH   4   5
ENDBRANCH   3   4
ENDBRANCH   2   3
BRANCH   2  12
HETATM   12  O1  UNL     1       2.603  13.427  43.028  1.00  0.00    -0.393 OA
ATOM     13  H1  UNL     1       2.019  13.486  43.775  1.00  0.00     0.210 HD
ENDBRANCH   2  12
ENDBRANCH   1   2
BRANCH   1  14
HETATM   14  O2  UNL     1       3.164  12.176  45.528  1.00  0.00    -0.390 OA
ATOM     15  H2  UNL     1       2.606  11.673  46.109  1.00  0.00     0.210 HD
ENDBRANCH   1  14
BRANCH   1  16
HETATM   16  C9  UNL     1       2.048  10.666  44.139  1.00  0.00     0.178 C 
BRANCH  16  17
HETATM   17  O3  UNL     1       2.226   9.290  44.303  1.00  0.00    -0.390 OA
ATOM     18  H3  UNL     1       1.511   8.753  43.985  1.00  0.00     0.210 HD
ENDBRANCH  16  17
BRANCH  16  19
HETATM   19  C10 UNL     1       0.820  11.162  44.849  1.00  0.00     0.159 C 
BRANCH  19  20
HETATM   20  O4  UNL     1       0.098  11.966  43.983  1.00  0.00    -0.392 OA
ATOM     21  H4  UNL     1      -0.751  12.146  44.369  1.00  0.00     0.210 HD
ENDBRANCH  19  20
BRANCH  19  22
HETATM   22  C11 UNL     1       0.002   9.995  45.303  1.00  0.00     0.115 C 
BRANCH  22  23
HETATM   23  S1  UNL     1      -1.326  10.440  46.389  1.00  0.00    -0.129 SA
HETATM   24  C12 UNL     1      -2.821   9.536  46.203  1.00  0.00     0.097 C 
HETATM   25  C13 UNL     1      -3.471  10.853  46.650  1.00  0.00     0.132 C 
HETATM   26  N2  UNL     1      -2.495  11.511  45.764  1.00  0.00    -0.189 NA
ENDBRANCH  22  23
ENDBRANCH  19  22
ENDBRANCH  16  19
ENDBRANCH   1  16
TORSDOF 13
ENDMDL
MODEL 2
REMARK VINA RESULT: -5.895901063      2.987      3.669
REMARK  13 active torsions:
REMARK  status: ('A' for Active; 'I' for Inactive)
REMARK    1  A    between atoms: C2_2  and  N1_5 
REMARK    2  A    between atoms: N1_5  and  C5_8 
REMARK    3  A    between atoms: C5_8  and  C6_9 
REMARK    4  A    between atoms: C6_9  and  C7_10 
REMARK    5  A    between atoms: C7_10  and  O1_11 
REMARK    6  A    between atoms: C7_10  and  C8_13 
REMARK    7  A    between atoms: C8_13  and  O2_14 
REMARK    8  A    between atoms: C8_13  and  C9_16 
REMARK    9  A    between atoms: C9_16  and  O3_17 
REMARK   10  A    between atoms: C9_16  and  C10_19 
REMARK   11  A    between atoms: C10_19  and  O4_20 
REMARK   12  A    between atoms: C10_19  and  C11_22 
REMARK   13  A    between atoms: C11_22  and  S1_23 
ROOT
HETATM    1  C8  UNL     1       2.725  12.369  43.505  1.00  0.00     0.178 C 
ENDROOT
BRANCH   1   2
HETATM    2  C7  UNL     1       3.627  13.198  44.340  1.00  0.00     0.151 C 
BRANCH   2   3
HETATM    3  C6  UNL     1       4.789  13.786  43.602  1.00  0.00     0.062 C 
BRANCH   3   4
HETATM    4  C5  UNL     1       5.476  14.928  44.275  1.00  0.00     0.236 C 
BRANCH   4   5
HETATM    5  N1  UNL     1       6.303  14.358  45.336  1.00  0.00    -0.067 N 
ATOM      6  H12 UNL     1       7.267  14.237  45.025  1.00  0.00     0.278 HD
ATOM      7  H11 UNL     1       6.063  13.381  45.506  1.00  0.00     0.278 HD
BRANCH   5   8
HETATM    8  C2  UNL     1       6.243  15.120  46.543  1.00  0.00     0.115 C 
HETATM    9  C1  UNL     1       5.052  16.054  46.605  1.00  0.00     0.045 C 
HETATM   10  C3  UNL     1       6.074  14.123  47.689  1.00  0.00     0.045 C 
HETATM   11  C4  UNL     1       7.492  15.947  46.771  1.00  0.00     0.045 C 
ENDBRANCH   5   8
ENDBRANCH   4   5
ENDBRANCH   3   4
ENDBRANCH   2   3
BRANCH   2  12
HETATM   12  O1  UNL     1       4.029  12.593  45.530  1.00  0.00    -0.393 OA
ATOM     13  H1  UNL     1       3.708  11.701  45.594  1.00  0.00     0.210 HD
ENDBRANCH   2  12
ENDBRANCH   1   2
BRANCH   1  14
HETATM   14  O2  UNL     1       3.462  11.874  42.390  1.00  0.00    -0.390 OA
ATOM     15  H2  UNL     1       3.516  10.928  42.457  1.00  0.00     0.210 HD
ENDBRANCH   1  14
BRANCH   1  16
HETATM   16  C9  UNL     1       2.082  11.200  44.149  1.00  0.00     0.178 C 
BRANCH  16  17
HETATM   17  O3  UNL     1       0.685  11.204  44.119  1.00  0.00    -0.390 OA
ATOM     18  H3  UNL     1       0.267  11.321  44.963  1.00  0.00     0.210 HD
ENDBRANCH  16  17
BRANCH  16  19
HETATM   19  C10 UNL     1       2.647   9.849  43.812  1.00  0.00     0.159 C 
BRANCH  19  20
HETATM   20  O4  UNL     1       3.832   9.675  44.504  1.00  0.00    -0.392 OA
ATOM     21  H4  UNL     1       4.553   9.967  43.957  1.00  0.00     0.210 HD
ENDBRANCH  19  20
BRANCH  19  22
HETATM   22  C11 UNL     1       1.655   8.789  44.175  1.00  0.00     0.115 C 
BRANCH  22  23
HETATM   23  S1  UNL     1       2.322   7.149  44.133  1.00  0.00    -0.129 SA
HETATM   24  C12 UNL     1       1.795   6.059  45.407  1.00  0.00     0.097 C 
HETATM   25  C13 UNL     1       3.196   5.455  45.232  1.00  0.00     0.132 C 
HETATM   26  N2  UNL     1       3.668   6.846  45.134  1.00  0.00    -0.189 NA
ENDBRANCH  22  23
ENDBRANCH  19  22
ENDBRANCH  16  19
ENDBRANCH   1  16
TORSDOF 13
ENDMDL
MODEL 3
REMARK VINA RESULT: -5.856455984      1.125      1.648
REMARK  13 active torsions:
REMARK  status: ('A' for Active; 'I' for Inactive)
REMARK    1  A    between atoms: C2_2  and  N1_5 
REMARK    2  A    between atoms: N1_5  and  C5_8 
REMARK    3  A    between atoms: C5_8  and  C6_9 
REMARK    4  A    between atoms: C6_9  and  C7_10 
REMARK    5  A    between atoms: C7_10  and  O1_11 
REMARK    6  A    between atoms: C7_10  and  C8_13 
REMARK    7  A    between atoms: C8_13  and  O2_14 
REMARK    8  A    between atoms: C8_13  and  C9_16 
REMARK    9  A    between atoms: C9_16  and  O3_17 
REMARK   10  A    between atoms: C9_16  and  C10_19 
REMARK   11  A    between atoms: C10_19  and  O4_20 
REMARK   12  A    between atoms: C10_19  and  C11_22 
REMARK   13  A    between atoms: C11_22  and  S1_23 
ROOT
HETATM    1  C8  UNL     1       3.248  11.772  43.247  1.00  0.00     0.178 C 
ENDROOT
BRANCH   1   2
HETATM    2  C7  UNL     1       3.917  12.687  44.201  1.00  0.00     0.151 C 
BRANCH   2   3
HETATM    3  C6  UNL     1       4.812  13.704  43.563  1.00  0.00     0.062 C 
BRANCH   3   4
HETATM    4  C5  UNL     1       5.196  14.863  44.422  1.00  0.00     0.236 C 
BRANCH   4   5
HETATM    5  N1  UNL     1       6.253  14.395  45.317  1.00  0.00    -0.067 N 
ATOM      6  H12 UNL     1       7.172  14.506  44.889  1.00  0.00     0.278 HD
ATOM      7  H11 UNL     1       6.236  13.379  45.406  1.00  0.00     0.278 HD
BRANCH   5   8
HETATM    8  C2  UNL     1       6.200  15.025  46.598  1.00  0.00     0.115 C 
HETATM    9  C1  UNL     1       7.425  15.861  46.908  1.00  0.00     0.045 C 
HETATM   10  C3  UNL     1       5.013  15.987  46.570  1.00  0.00     0.045 C 
HETATM   11  C4  UNL     1       6.021  14.031  47.728  1.00  0.00     0.045 C 
ENDBRANCH   5   8
ENDBRANCH   4   5
ENDBRANCH   3   4
ENDBRANCH   2   3
BRANCH   2  12
HETATM   12  O1  UNL     1       4.546  12.049  45.268  1.00  0.00    -0.393 OA
ATOM     13  H1  UNL     1       4.818  12.668  45.935  1.00  0.00     0.210 HD
ENDBRANCH   2  12
ENDBRANCH   1   2
BRANCH   1  14
HETATM   14  O2  UNL     1       4.246  11.129  42.457  1.00  0.00    -0.390 OA
ATOM     15  H2  UNL     1       4.474  10.304  42.869  1.00  0.00     0.210 HD
ENDBRANCH   1  14
BRANCH   1  16
HETATM   16  C9  UNL     1       2.393  10.703  43.812  1.00  0.00     0.178 C 
BRANCH  16  17
HETATM   17  O3  UNL     1       3.085   9.670  44.451  1.00  0.00    -0.390 OA
ATOM     18  H3  UNL     1       2.737   8.800  44.297  1.00  0.00     0.210 HD
ENDBRANCH  16  17
BRANCH  16  19
HETATM   19  C10 UNL     1       1.191  11.144  44.598  1.00  0.00     0.159 C 
BRANCH  19  20
HETATM   20  O4  UNL     1       0.414  11.968  43.802  1.00  0.00    -0.392 OA
ATOM     21  H4  UNL     1       0.985  12.467  43.230  1.00  0.00     0.210 HD
ENDBRANCH  19  20
BRANCH  19  22
HETATM   22  C11 UNL     1       0.416   9.942  45.040  1.00  0.00     0.115 C 
BRANCH  22  23
HETATM   23  S1  UNL     1      -0.849  10.311  46.224  1.00  0.00    -0.129 SA
HETATM   24  C12 UNL     1      -2.287   9.301  46.169  1.00  0.00     0.097 C 
HETATM   25  C13 UNL     1      -2.990  10.577  46.652  1.00  0.00     0.132 C 
HETATM   26  N2  UNL     1      -2.138  11.287  45.684  1.00  0.00    -0.189 NA
ENDBRANCH  22  23
ENDBRANCH  19  22
ENDBRANCH  16  19
ENDBRANCH   1  16
TORSDOF 13
ENDMDL
MODEL 4
REMARK VINA RESULT: -5.832157286      4.021      5.499
REMARK  13 active torsions:
REMARK  status: ('A' for Active; 'I' for Inactive)
REMARK    1  A    between atoms: C2_2  and  N1_5 
REMARK    2  A    between atoms: N1_5  and  C5_8 
REMARK    3  A    between atoms: C5_8  and  C6_9 
REMARK    4  A    between atoms: C6_9  and  C7_10 
REMARK    5  A    between atoms: C7_10  and  O1_11 
REMARK    6  A    between atoms: C7_10  and  C8_13 
REMARK    7  A    between atoms: C8_13  and  O2_14 
REMARK    8  A    between atoms: C8_13  and  C9_16 
REMARK    9  A    between atoms: C9_16  and  O3_17 
REMARK   10  A    between atoms: C9_16  and  C10_19 
REMARK   11  A    between atoms: C10_19  and  O4_20 
REMARK   12  A    between atoms: C10_19  and  C11_22 
REMARK   13  A    between atoms: C11_22  and  S1_23 
ROOT
HETATM    1  C8  UNL     1       3.784  11.949  44.246  1.00  0.00     0.178 C 
ENDROOT
BRANCH   1   2
HETATM    2  C7  UNL     1       3.444  13.051  43.316  1.00  0.00     0.151 C 
BRANCH   2   3
HETATM    3  C6  UNL     1       4.237  14.304  43.523  1.00  0.00     0.062 C 
BRANCH   3   4
HETATM    4  C5  UNL     1       5.585  14.126  44.140  1.00  0.00     0.236 C 
BRANCH   4   5
HETATM    5  N1  UNL     1       5.983  15.429  44.670  1.00  0.00    -0.067 N 
ATOM      6  H12 UNL     1       5.289  16.143  44.448  1.00  0.00     0.278 HD
ATOM      7  H11 UNL     1       6.778  15.809  44.155  1.00  0.00     0.278 HD
BRANCH   5   8
HETATM    8  C2  UNL     1       6.251  15.388  46.073  1.00  0.00     0.115 C 
HETATM    9  C1  UNL     1       7.455  16.212  46.480  1.00  0.00     0.045 C 
HETATM   10  C3  UNL     1       5.043  16.009  46.773  1.00  0.00     0.045 C 
HETATM   11  C4  UNL     1       6.462  13.976  46.583  1.00  0.00     0.045 C 
ENDBRANCH   5   8
ENDBRANCH   4   5
ENDBRANCH   3   4
ENDBRANCH   2   3
BRANCH   2  12
HETATM   12  O1  UNL     1       2.080  13.320  43.215  1.00  0.00    -0.393 OA
ATOM     13  H1  UNL     1       1.796  13.349  42.308  1.00  0.00     0.210 HD
ENDBRANCH   2  12
ENDBRANCH   1   2
BRANCH   1  14
HETATM   14  O2  UNL     1       2.915  12.020  45.374  1.00  0.00    -0.390 OA
ATOM     15  H2  UNL     1       2.612  11.143  45.580  1.00  0.00     0.210 HD
ENDBRANCH   1  14
BRANCH   1  16
HETATM   16  C9  UNL     1       3.697  10.565  43.724  1.00  0.00     0.178 C 
BRANCH  16  17
HETATM   17  O3  UNL     1       2.398  10.097  43.508  1.00  0.00    -0.390 OA
ATOM     18  H3  UNL     1       1.829  10.129  44.267  1.00  0.00     0.210 HD
ENDBRANCH  16  17
BRANCH  16  19
HETATM   19  C10 UNL     1       4.617  10.212  42.590  1.00  0.00     0.159 C 
BRANCH  19  20
HETATM   20  O4  UNL     1       5.882  10.698  42.873  1.00  0.00    -0.392 OA
ATOM     21  H4  UNL     1       6.467  10.461  42.163  1.00  0.00     0.210 HD
ENDBRANCH  19  20
BRANCH  19  22
HETATM   22  C11 UNL     1       4.643   8.726  42.413  1.00  0.00     0.115 C 
BRANCH  22  23
HETATM   23  S1  UNL     1       5.377   8.207  40.887  1.00  0.00    -0.129 SA
HETATM   24  C12 UNL     1       7.130   8.087  40.866  1.00  0.00     0.097 C 
HETATM   25  C13 UNL     1       6.966   8.473  39.389  1.00  0.00     0.132 C 
HETATM   26  N2  UNL     1       5.960   9.438  39.863  1.00  0.00    -0.189 NA
ENDBRANCH  22  23
ENDBRANCH  19  22
ENDBRANCH  16  19
ENDBRANCH   1  16
TORSDOF 13
ENDMDL
MODEL 5
REMARK VINA RESULT: -5.739056293      3.696      4.714
REMARK  13 active torsions:
REMARK  status: ('A' for Active; 'I' for Inactive)
REMARK    1  A    between atoms: C2_2  and  N1_5 
REMARK    2  A    between atoms: N1_5  and  C5_8 
REMARK    3  A    between atoms: C5_8  and  C6_9 
REMARK    4  A    between atoms: C6_9  and  C7_10 
REMARK    5  A    between atoms: C7_10  and  O1_11 
REMARK    6  A    between atoms: C7_10  and  C8_13 
REMARK    7  A    between atoms: C8_13  and  O2_14 
REMARK    8  A    between atoms: C8_13  and  C9_16 
REMARK    9  A    between atoms: C9_16  and  O3_17 
REMARK   10  A    between atoms: C9_16  and  C10_19 
REMARK   11  A    between atoms: C10_19  and  O4_20 
REMARK   12  A    between atoms: C10_19  and  C11_22 
REMARK   13  A    between atoms: C11_22  and  S1_23 
ROOT
HETATM    1  C8  UNL     1       3.880  11.155  43.450  1.00  0.00     0.178 C 
ENDROOT
BRANCH   1   2
HETATM    2  C7  UNL     1       3.730  12.489  44.078  1.00  0.00     0.151 C 
BRANCH   2   3
HETATM    3  C6  UNL     1       4.655  13.536  43.540  1.00  0.00     0.062 C 
BRANCH   3   4
HETATM    4  C5  UNL     1       4.989  14.651  44.476  1.00  0.00     0.236 C 
BRANCH   4   5
HETATM    5  N1  UNL     1       6.072  14.172  45.334  1.00  0.00    -0.067 N 
ATOM      6  H12 UNL     1       6.968  14.211  44.851  1.00  0.00     0.278 HD
ATOM      7  H11 UNL     1       6.008  13.164  45.480  1.00  0.00     0.278 HD
BRANCH   5   8
HETATM    8  C2  UNL     1       6.127  14.869  46.580  1.00  0.00     0.115 C 
HETATM    9  C1  UNL     1       7.418  15.636  46.783  1.00  0.00     0.045 C 
HETATM   10  C3  UNL     1       5.005  15.906  46.558  1.00  0.00     0.045 C 
HETATM   11  C4  UNL     1       5.944  13.949  47.770  1.00  0.00     0.045 C 
ENDBRANCH   5   8
ENDBRANCH   4   5
ENDBRANCH   3   4
ENDBRANCH   2   3
BRANCH   2  12
HETATM   12  O1  UNL     1       3.728  12.473  45.472  1.00  0.00    -0.393 OA
ATOM     13  H1  UNL     1       3.142  11.808  45.813  1.00  0.00     0.210 HD
ENDBRANCH   2  12
ENDBRANCH   1   2
BRANCH   1  14
HETATM   14  O2  UNL     1       5.268  10.832  43.394  1.00  0.00    -0.390 OA
ATOM     15  H2  UNL     1       5.362   9.960  43.029  1.00  0.00     0.210 HD
ENDBRANCH   1  14
BRANCH   1  16
HETATM   16  C9  UNL     1       3.199  10.013  44.102  1.00  0.00     0.178 C 
BRANCH  16  17
HETATM   17  O3  UNL     1       1.853   9.856  43.760  1.00  0.00    -0.390 OA
ATOM     18  H3  UNL     1       1.264   9.740  44.496  1.00  0.00     0.210 HD
ENDBRANCH  16  17
BRANCH  16  19
HETATM   19  C10 UNL     1       3.933   8.702  44.108  1.00  0.00     0.159 C 
BRANCH  19  20
HETATM   20  O4  UNL     1       4.782   8.671  45.201  1.00  0.00    -0.392 OA
ATOM     21  H4  UNL     1       5.136   7.793  45.288  1.00  0.00     0.210 HD
ENDBRANCH  19  20
BRANCH  19  22
HETATM   22  C11 UNL     1       2.946   7.579  44.165  1.00  0.00     0.115 C 
BRANCH  22  23
HETATM   23  S1  UNL     1       3.633   6.009  43.711  1.00  0.00    -0.129 SA
HETATM   24  C12 UNL     1       3.415   4.701  44.864  1.00  0.00     0.097 C 
HETATM   25  C13 UNL     1       4.762   4.219  44.308  1.00  0.00     0.132 C 
HETATM   26  N2  UNL     1       5.167   5.634  44.352  1.00  0.00    -0.189 NA
ENDBRANCH  22  23
ENDBRANCH  19  22
ENDBRANCH  16  19
ENDBRANCH   1  16
TORSDOF 13
ENDMDL
