MODEL 1
REMARK VINA RESULT: -5.816235096      0.000      0.000
REMARK  11 active torsions:
REMARK  status: ('A' for Active; 'I' for Inactive)
REMARK    1  A    between atoms: C2_5  and  N3_6 
REMARK    2  A    between atoms: C2_5  and  C8_18 
REMARK    3  A    between atoms: N3_6  and  C3_8 
REMARK    4  A    between atoms: C3_8  and  C4_9 
REMARK    5  A    between atoms: C4_9  and  O1_10 
REMARK    6  A    between atoms: O1_10  and  C5_11 
REMARK    7  A    between atoms: C5_11  and  C6_12 
REMARK    8  A    between atoms: C6_12  and  N4_13 
REMARK    9  A    between atoms: C8_18  and  N7_19 
REMARK   10  A    between atoms: C8_18  and  C9_23 
REMARK   11  A    between atoms: C9_23  and  C10_24 
ROOT
HETATM    1  N1  UNL     1       6.350  10.216  42.877  1.00  0.00    -0.172 NA
HETATM    2  C1  UNL     1       5.696   9.385  42.457  1.00  0.00     0.183 C 
HETATM    3  N2  UNL     1       4.881   8.363  41.962  1.00  0.00    -0.281 N 
ATOM      4  H2  UNL     1       5.091   7.956  41.051  1.00  0.00     0.179 HD
HETATM    5  C2  UNL     1       3.875   7.926  42.627  1.00  0.00     0.117 C 
ENDROOT
BRANCH   5   6
HETATM    6  N3  UNL     1       3.093   6.897  42.075  1.00  0.00    -0.375 N 
ATOM      7  H3  UNL     1       2.082   6.890  42.209  1.00  0.00     0.160 HD
BRANCH   6   8
HETATM    8  C3  UNL     1       3.730   5.855  41.322  1.00  0.00     0.147 C 
BRANCH   8   9
HETATM    9  C4  UNL     1       3.747   4.530  42.030  1.00  0.00     0.187 C 
BRANCH   9  10
HETATM   10  O1  UNL     1       3.615   4.619  43.388  1.00  0.00    -0.388 OA
BRANCH  10  11
HETATM   11  C5  UNL     1       3.942   3.463  44.044  1.00  0.00     0.187 C 
BRANCH  11  12
HETATM   12  C6  UNL     1       3.138   3.145  45.259  1.00  0.00     0.148 C 
BRANCH  12  13
HETATM   13  N4  UNL     1       3.580   4.037  46.320  1.00  0.00    -0.365 N 
HETATM   14  C7  UNL     1       2.805   4.961  46.796  1.00  0.00     0.197 C 
HETATM   15  N5  UNL     1       3.287   5.798  47.825  1.00  0.00    -0.067 NA
HETATM   16  N6  UNL     1       1.515   5.089  46.264  1.00  0.00    -0.067 NA
ATOM     17  H4  UNL     1       4.522   3.934  46.698  1.00  0.00     0.161 HD
ENDBRANCH  12  13
ENDBRANCH  11  12
ENDBRANCH  10  11
ENDBRANCH   9  10
ENDBRANCH   8   9
ENDBRANCH   6   8
ENDBRANCH   5   6
BRANCH   5  18
HETATM   18  C8  UNL     1       3.564   8.511  43.952  1.00  0.00     0.256 C 
BRANCH  18  19
HETATM   19  N7  UNL     1       3.396   7.507  44.968  1.00  0.00    -0.068 N 
ATOM     20  H73 UNL     1       4.219   6.908  45.033  1.00  0.00     0.275 HD
ATOM     21  H72 UNL     1       3.420   7.920  45.900  1.00  0.00     0.275 HD
ATOM     22  H71 UNL     1       2.550   6.955  44.831  1.00  0.00     0.275 HD
ENDBRANCH  18  19
BRANCH  18  23
HETATM   23  C9  UNL     1       2.310   9.391  43.859  1.00  0.00     0.099 C 
BRANCH  23  24
HETATM   24  C10 UNL     1       2.670  10.821  44.022  1.00  0.00     0.028 A 
HETATM   25  C11 UNL     1       1.985  11.948  43.626  1.00  0.00     0.114 A 
HETATM   26  N8  UNL     1       2.718  13.027  43.999  1.00  0.00    -0.360 N 
HETATM   27  C12 UNL     1       3.840  12.608  44.618  1.00  0.00     0.180 A 
ATOM     28  H8  UNL     1       2.461  14.000  43.837  1.00  0.00     0.166 HD
HETATM   29  N9  UNL     1       3.806  11.264  44.629  1.00  0.00    -0.355 N 
ATOM     30  H9  UNL     1       4.525  10.665  45.033  1.00  0.00     0.166 HD
ENDBRANCH  23  24
ENDBRANCH  18  23
ENDBRANCH   5  18
TORSDOF 11
ENDMDL
MODEL 2
REMARK VINA RESULT: -5.756980106      2.045      4.659
REMARK  11 active torsions:
REMARK  status: ('A' for Active; 'I' for Inactive)
REMARK    1  A    between atoms: C2_5  and  N3_6 
REMARK    2  A    between atoms: C2_5  and  C8_18 
REMARK    3  A    between atoms: N3_6  and  C3_8 
REMARK    4  A    between atoms: C3_8  and  C4_9 
REMARK    5  A    between atoms: C4_9  and  O1_10 
REMARK    6  A    between atoms: O1_10  and  C5_11 
REMARK    7  A    between atoms: C5_11  and  C6_12 
REMARK    8  A    between atoms: C6_12  and  N4_13 
REMARK    9  A    between atoms: C8_18  and  N7_19 
REMARK   10  A    between atoms: C8_18  and  C9_23 
REMARK   11  A    between atoms: C9_23  and  C10_24 
ROOT
HETATM    1  N1  UNL     1      -0.645   8.254  44.818  1.00  0.00    -0.172 NA
HETATM    2  C1  UNL     1       0.247   7.574  45.011  1.00  0.00     0.183 C 
HETATM    3  N2  UNL     1       1.354   6.750  45.230  1.00  0.00    -0.281 N 
ATOM      4  H2  UNL     1       1.289   6.001  45.919  1.00  0.00     0.179 HD
HETATM    5  C2  UNL     1       2.452   6.915  44.585  1.00  0.00     0.117 C 
ENDROOT
BRANCH   5   6
HETATM    6  N3  UNL     1       3.530   6.054  44.851  1.00  0.00    -0.375 N 
ATOM      7  H3  UNL     1       4.460   6.433  45.027  1.00  0.00     0.160 HD
BRANCH   6   8
HETATM    8  C3  UNL     1       3.310   4.636  44.872  1.00  0.00     0.147 C 
BRANCH   8   9
HETATM    9  C4  UNL     1       3.821   3.933  43.646  1.00  0.00     0.187 C 
BRANCH   9  10
HETATM   10  O1  UNL     1       3.656   4.639  42.486  1.00  0.00    -0.388 OA
BRANCH  10  11
HETATM   11  C5  UNL     1       4.069   3.960  41.372  1.00  0.00     0.187 C 
BRANCH  11  12
HETATM   12  C6  UNL     1       4.532   4.794  40.227  1.00  0.00     0.148 C 
BRANCH  12  13
HETATM   13  N4  UNL     1       3.350   5.224  39.494  1.00  0.00    -0.365 N 
HETATM   14  C7  UNL     1       3.229   6.439  39.058  1.00  0.00     0.197 C 
HETATM   15  N5  UNL     1       2.060   6.800  38.354  1.00  0.00    -0.067 NA
HETATM   16  N6  UNL     1       4.268   7.345  39.307  1.00  0.00    -0.067 NA
ATOM     17  H4  UNL     1       2.601   4.555  39.320  1.00  0.00     0.161 HD
ENDBRANCH  12  13
ENDBRANCH  11  12
ENDBRANCH  10  11
ENDBRANCH   9  10
ENDBRANCH   8   9
ENDBRANCH   6   8
ENDBRANCH   5   6
BRANCH   5  18
HETATM   18  C8  UNL     1       2.554   8.000  43.583  1.00  0.00     0.256 C 
BRANCH  18  19
HETATM   19  N7  UNL     1       3.078   7.537  42.326  1.00  0.00    -0.068 N 
ATOM     20  H73 UNL     1       3.138   8.298  41.650  1.00  0.00     0.275 HD
ATOM     21  H72 UNL     1       4.069   7.308  42.403  1.00  0.00     0.275 HD
ATOM     22  H71 UNL     1       2.546   6.752  41.950  1.00  0.00     0.275 HD
ENDBRANCH  18  19
BRANCH  18  23
HETATM   23  C9  UNL     1       3.418   9.145  44.132  1.00  0.00     0.099 C 
BRANCH  23  24
HETATM   24  C10 UNL     1       2.801  10.456  43.812  1.00  0.00     0.028 A 
HETATM   25  C11 UNL     1       1.611  10.994  44.249  1.00  0.00     0.114 A 
HETATM   26  N8  UNL     1       1.481  12.218  43.679  1.00  0.00    -0.360 N 
HETATM   27  C12 UNL     1       2.554  12.462  42.900  1.00  0.00     0.180 A 
ATOM     28  H8  UNL     1       0.695  12.854  43.817  1.00  0.00     0.166 HD
HETATM   29  N9  UNL     1       3.355  11.385  42.985  1.00  0.00    -0.355 N 
ATOM     30  H9  UNL     1       4.246  11.281  42.500  1.00  0.00     0.166 HD
ENDBRANCH  23  24
ENDBRANCH  18  23
ENDBRANCH   5  18
TORSDOF 11
ENDMDL
MODEL 3
REMARK VINA RESULT: -5.722766426      3.688      5.655
REMARK  11 active torsions:
REMARK  status: ('A' for Active; 'I' for Inactive)
REMARK    1  A    between atoms: C2_5  and  N3_6 
REMARK    2  A    between atoms: C2_5  and  C8_18 
REMARK    3  A    between atoms: N3_6  and  C3_8 
REMARK    4  A    between atoms: C3_8  and  C4_9 
REMARK    5  A    between atoms: C4_9  and  O1_10 
REMARK    6  A    between atoms: O1_10  and  C5_11 
REMARK    7  A    between atoms: C5_11  and  C6_12 
REMARK    8  A    between atoms: C6_12  and  N4_13 
REMARK    9  A    between atoms: C8_18  and  N7_19 
REMARK   10  A    between atoms: C8_18  and  C9_23 
REMARK   11  A    between atoms: C9_23  and  C10_24 
ROOT
HETATM    1  N1  UNL     1       0.945  10.549  44.593  1.00  0.00    -0.172 NA
HETATM    2  C1  UNL     1       1.929  10.388  44.044  1.00  0.00     0.183 C 
HETATM    3  N2  UNL     1       3.144  10.211  43.377  1.00  0.00    -0.281 N 
ATOM      4  H2  UNL     1       3.320   9.335  42.885  1.00  0.00     0.179 HD
HETATM    5  C2  UNL     1       4.043  11.127  43.367  1.00  0.00     0.117 C 
ENDROOT
BRANCH   5   6
HETATM    6  N3  UNL     1       5.245  10.890  42.678  1.00  0.00    -0.375 N 
ATOM      7  H3  UNL     1       5.947  11.626  42.599  1.00  0.00     0.160 HD
BRANCH   6   8
HETATM    8  C3  UNL     1       5.474   9.604  42.086  1.00  0.00     0.147 C 
BRANCH   8   9
HETATM    9  C4  UNL     1       5.652   9.655  40.594  1.00  0.00     0.187 C 
BRANCH   9  10
HETATM   10  O1  UNL     1       5.264   8.516  39.944  1.00  0.00    -0.388 OA
BRANCH  10  11
HETATM   11  C5  UNL     1       4.852   7.521  40.789  1.00  0.00     0.187 C 
BRANCH  11  12
HETATM   12  C6  UNL     1       4.375   6.265  40.143  1.00  0.00     0.148 C 
BRANCH  12  13
HETATM   13  N4  UNL     1       2.993   6.479  39.739  1.00  0.00    -0.365 N 
HETATM   14  C7  UNL     1       2.657   6.559  38.490  1.00  0.00     0.197 C 
HETATM   15  N5  UNL     1       1.301   6.767  38.157  1.00  0.00    -0.067 NA
HETATM   16  N6  UNL     1       3.660   6.435  37.519  1.00  0.00    -0.067 NA
ATOM     17  H4  UNL     1       2.273   6.568  40.456  1.00  0.00     0.161 HD
ENDBRANCH  12  13
ENDBRANCH  11  12
ENDBRANCH  10  11
ENDBRANCH   9  10
ENDBRANCH   8   9
ENDBRANCH   6   8
ENDBRANCH   5   6
BRANCH   5  18
HETATM   18  C8  UNL     1       3.795  12.403  44.077  1.00  0.00     0.256 C 
BRANCH  18  19
HETATM   19  N7  UNL     1       2.771  13.190  43.446  1.00  0.00    -0.068 N 
ATOM     20  H73 UNL     1       3.091  14.143  43.277  1.00  0.00     0.275 HD
ATOM     21  H72 UNL     1       2.622  12.895  42.481  1.00  0.00     0.275 HD
ATOM     22  H71 UNL     1       1.897  13.184  43.972  1.00  0.00     0.275 HD
ENDBRANCH  18  19
BRANCH  18  23
HETATM   23  C9  UNL     1       5.098  13.208  44.186  1.00  0.00     0.099 C 
BRANCH  23  24
HETATM   24  C10 UNL     1       5.354  13.587  45.597  1.00  0.00     0.028 A 
HETATM   25  C11 UNL     1       6.016  14.683  46.104  1.00  0.00     0.114 A 
HETATM   26  N8  UNL     1       5.992  14.588  47.457  1.00  0.00    -0.360 N 
HETATM   27  C12 UNL     1       5.335  13.465  47.811  1.00  0.00     0.180 A 
ATOM     28  H8  UNL     1       6.405  15.260  48.104  1.00  0.00     0.166 HD
HETATM   29  N9  UNL     1       4.949  12.859  46.675  1.00  0.00    -0.355 N 
ATOM     30  H9  UNL     1       4.429  11.983  46.628  1.00  0.00     0.166 HD
ENDBRANCH  23  24
ENDBRANCH  18  23
ENDBRANCH   5  18
TORSDOF 11
ENDMDL
MODEL 4
REMARK VINA RESULT: -5.606614024      2.363      4.732
REMARK  11 active torsions:
REMARK  status: ('A' for Active; 'I' for Inactive)
REMARK    1  A    between atoms: C2_5  and  N3_6 
REMARK    2  A    between atoms: C2_5  and  C8_18 
REMARK    3  A    between atoms: N3_6  and  C3_8 
REMARK    4  A    between atoms: C3_8  and  C4_9 
REMARK    5  A    between atoms: C4_9  and  O1_10 
REMARK    6  A    between atoms: O1_10  and  C5_11 
REMARK    7  A    between atoms: C5_11  and  C6_12 
REMARK    8  A    between atoms: C6_12  and  N4_13 
REMARK    9  A    between atoms: C8_18  and  N7_19 
REMARK   10  A    between atoms: C8_18  and  C9_23 
REMARK   11  A    between atoms: C9_23  and  C10_24 
ROOT
HETATM    1  N1  UNL     1       6.466  10.153  42.874  1.00  0.00    -0.172 NA
HETATM    2  C1  UNL     1       5.780   9.353  42.443  1.00  0.00     0.183 C 
HETATM    3  N2  UNL     1       4.926   8.371  41.933  1.00  0.00    -0.281 N 
ATOM      4  H2  UNL     1       5.125   7.963  41.020  1.00  0.00     0.179 HD
HETATM    5  C2  UNL     1       3.897   7.972  42.588  1.00  0.00     0.117 C 
ENDROOT
BRANCH   5   6
HETATM    6  N3  UNL     1       3.076   6.982  42.022  1.00  0.00    -0.375 N 
ATOM      7  H3  UNL     1       2.076   6.966  42.223  1.00  0.00     0.160 HD
BRANCH   6   8
HETATM    8  C3  UNL     1       3.658   5.993  41.161  1.00  0.00     0.147 C 
BRANCH   8   9
HETATM    9  C4  UNL     1       3.300   6.177  39.713  1.00  0.00     0.187 C 
BRANCH   9  10
HETATM   10  O1  UNL     1       3.767   5.189  38.890  1.00  0.00    -0.388 OA
BRANCH  10  11
HETATM   11  C5  UNL     1       4.348   5.662  37.745  1.00  0.00     0.187 C 
BRANCH  11  12
HETATM   12  C6  UNL     1       5.838   5.711  37.735  1.00  0.00     0.148 C 
BRANCH  12  13
HETATM   13  N4  UNL     1       6.229   7.110  37.830  1.00  0.00    -0.365 N 
HETATM   14  C7  UNL     1       6.762   7.592  38.909  1.00  0.00     0.197 C 
HETATM   15  N5  UNL     1       7.122   8.957  38.943  1.00  0.00    -0.067 NA
HETATM   16  N6  UNL     1       6.958   6.734  39.999  1.00  0.00    -0.067 NA
ATOM     17  H4  UNL     1       6.081   7.724  37.029  1.00  0.00     0.161 HD
ENDBRANCH  12  13
ENDBRANCH  11  12
ENDBRANCH  10  11
ENDBRANCH   9  10
ENDBRANCH   8   9
ENDBRANCH   6   8
ENDBRANCH   5   6
BRANCH   5  18
HETATM   18  C8  UNL     1       3.602   8.559  43.915  1.00  0.00     0.256 C 
BRANCH  18  19
HETATM   19  N7  UNL     1       3.443   7.557  44.934  1.00  0.00    -0.068 N 
ATOM     20  H73 UNL     1       3.132   6.672  44.535  1.00  0.00     0.275 HD
ATOM     21  H72 UNL     1       4.347   7.262  45.302  1.00  0.00     0.275 HD
ATOM     22  H71 UNL     1       2.822   7.861  45.684  1.00  0.00     0.275 HD
ENDBRANCH  18  19
BRANCH  18  23
HETATM   23  C9  UNL     1       2.348   9.442  43.834  1.00  0.00     0.099 C 
BRANCH  23  24
HETATM   24  C10 UNL     1       2.710  10.870  44.004  1.00  0.00     0.028 A 
HETATM   25  C11 UNL     1       2.019  12.000  43.627  1.00  0.00     0.114 A 
HETATM   26  N8  UNL     1       2.757  13.076  43.998  1.00  0.00    -0.360 N 
HETATM   27  C12 UNL     1       3.890  12.653  44.595  1.00  0.00     0.180 A 
ATOM     28  H8  UNL     1       2.498  14.051  43.848  1.00  0.00     0.166 HD
HETATM   29  N9  UNL     1       3.856  11.309  44.596  1.00  0.00    -0.355 N 
ATOM     30  H9  UNL     1       4.582  10.707  44.983  1.00  0.00     0.166 HD
ENDBRANCH  23  24
ENDBRANCH  18  23
ENDBRANCH   5  18
TORSDOF 11
ENDMDL
MODEL 5
REMARK VINA RESULT: -5.579180667      2.799      7.037
REMARK  11 active torsions:
REMARK  status: ('A' for Active; 'I' for Inactive)
REMARK    1  A    between atoms: C2_5  and  N3_6 
REMARK    2  A    between atoms: C2_5  and  C8_18 
REMARK    3  A    between atoms: N3_6  and  C3_8 
REMARK    4  A    between atoms: C3_8  and  C4_9 
REMARK    5  A    between atoms: C4_9  and  O1_10 
REMARK    6  A    between atoms: O1_10  and  C5_11 
REMARK    7  A    between atoms: C5_11  and  C6_12 
REMARK    8  A    between atoms: C6_12  and  N4_13 
REMARK    9  A    between atoms: C8_18  and  N7_19 
REMARK   10  A    between atoms: C8_18  and  C9_23 
REMARK   11  A    between atoms: C9_23  and  C10_24 
ROOT
HETATM    1  N1  UNL     1       6.239   7.924  44.308  1.00  0.00    -0.172 NA
HETATM    2  C1  UNL     1       5.313   8.586  44.342  1.00  0.00     0.183 C 
HETATM    3  N2  UNL     1       4.164   9.380  44.376  1.00  0.00    -0.281 N 
ATOM      4  H2  UNL     1       4.248  10.369  44.613  1.00  0.00     0.179 HD
HETATM    5  C2  UNL     1       3.005   8.894  44.116  1.00  0.00     0.117 C 
ENDROOT
BRANCH   5   6
HETATM    6  N3  UNL     1       1.886   9.744  44.167  1.00  0.00    -0.375 N 
ATOM      7  H3  UNL     1       0.955   9.382  43.962  1.00  0.00     0.160 HD
BRANCH   6   8
HETATM    8  C3  UNL     1       2.067  11.125  44.511  1.00  0.00     0.147 C 
BRANCH   8   9
HETATM    9  C4  UNL     1       1.914  12.057  43.341  1.00  0.00     0.187 C 
BRANCH   9  10
HETATM   10  O1  UNL     1       2.445  13.301  43.543  1.00  0.00    -0.388 OA
BRANCH  10  11
HETATM   11  C5  UNL     1       3.802  13.348  43.371  1.00  0.00     0.187 C 
BRANCH  11  12
HETATM   12  C6  UNL     1       4.555  14.225  44.313  1.00  0.00     0.148 C 
BRANCH  12  13
HETATM   13  N4  UNL     1       4.877  13.429  45.488  1.00  0.00    -0.365 N 
HETATM   14  C7  UNL     1       5.756  13.826  46.355  1.00  0.00     0.197 C 
HETATM   15  N5  UNL     1       6.027  13.012  47.476  1.00  0.00    -0.067 NA
HETATM   16  N6  UNL     1       6.402  15.050  46.139  1.00  0.00    -0.067 NA
ATOM     17  H4  UNL     1       4.400  12.540  45.633  1.00  0.00     0.161 HD
ENDBRANCH  12  13
ENDBRANCH  11  12
ENDBRANCH  10  11
ENDBRANCH   9  10
ENDBRANCH   8   9
ENDBRANCH   6   8
ENDBRANCH   5   6
BRANCH   5  18
HETATM   18  C8  UNL     1       2.874   7.460  43.771  1.00  0.00     0.256 C 
BRANCH  18  19
HETATM   19  N7  UNL     1       2.617   7.255  42.371  1.00  0.00    -0.068 N 
ATOM     20  H73 UNL     1       3.242   7.819  41.796  1.00  0.00     0.275 HD
ATOM     21  H72 UNL     1       2.916   6.326  42.075  1.00  0.00     0.275 HD
ATOM     22  H71 UNL     1       1.642   7.423  42.127  1.00  0.00     0.275 HD
ENDBRANCH  18  19
BRANCH  18  23
HETATM   23  C9  UNL     1       1.769   6.812  44.617  1.00  0.00     0.099 C 
BRANCH  23  24
HETATM   24  C10 UNL     1       2.358   5.878  45.608  1.00  0.00     0.028 A 
HETATM   25  C11 UNL     1       3.229   4.829  45.413  1.00  0.00     0.114 A 
HETATM   26  N8  UNL     1       3.479   4.273  46.625  1.00  0.00    -0.360 N 
HETATM   27  C12 UNL     1       2.790   4.942  47.571  1.00  0.00     0.180 A 
ATOM     28  H8  UNL     1       4.090   3.474  46.793  1.00  0.00     0.166 HD
HETATM   29  N9  UNL     1       2.110   5.918  46.947  1.00  0.00    -0.355 N 
ATOM     30  H9  UNL     1       1.497   6.591  47.408  1.00  0.00     0.166 HD
ENDBRANCH  23  24
ENDBRANCH  18  23
ENDBRANCH   5  18
TORSDOF 11
ENDMDL
