MODEL 1
REMARK VINA RESULT: -8.032772225      0.000      0.000
REMARK  7 active torsions:
REMARK  status: ('A' for Active; 'I' for Inactive)
REMARK    1  A    between atoms: C2_2  and  N1_3 
REMARK    2  A    between atoms: C3_6  and  N3_7 
REMARK    3  A    between atoms: C6_12  and  C7_13 
REMARK    4  A    between atoms: C7_13  and  O1_14 
REMARK    5  A    between atoms: C9_18  and  N6_19 
REMARK    6  A    between atoms: N6_19  and  C10_21 
REMARK    7  A    between atoms: C14_27  and  N8_28 
ROOT
HETATM    1  N3  UNL     1      33.208  41.769  21.270  1.00  0.00    -0.277 N 
ATOM      2  H3  UNL     1      33.404  42.737  21.523  1.00  0.00     0.179 HD
HETATM    3  C4  UNL     1      33.973  40.744  21.837  1.00  0.00     0.183 C 
HETATM    4  N4  UNL     1      34.599  39.873  22.309  1.00  0.00    -0.172 NA
ENDROOT
BRANCH   1   5
HETATM    5  C3  UNL     1      32.262  41.514  20.434  1.00  0.00     0.145 A 
HETATM    6  N2  UNL     1      32.427  40.963  19.243  1.00  0.00    -0.280 N 
HETATM    7  N1  UNL     1      31.287  40.818  18.601  1.00  0.00    -0.274 N 
ATOM      8  H2  UNL     1      33.331  40.683  18.864  1.00  0.00     0.189 HD
HETATM    9  C15 UNL     1      30.333  41.299  19.415  1.00  0.00     0.153 A 
HETATM   10  C5  UNL     1      30.918  41.755  20.602  1.00  0.00     0.081 A 
HETATM   11  N10 UNL     1      28.985  41.422  19.318  1.00  0.00    -0.174 N 
HETATM   12  C6  UNL     1      30.151  42.298  21.611  1.00  0.00     0.068 A 
HETATM   13  N5  UNL     1      28.814  42.389  21.444  1.00  0.00    -0.192 N 
HETATM   14  C9  UNL     1      28.243  41.954  20.308  1.00  0.00     0.685 A 
ATOM     15  H5  UNL     1      28.236  42.790  22.183  1.00  0.00     0.184 HD
ATOM     16  H10 UNL     1      28.519  41.101  18.470  1.00  0.00     0.186 HD
BRANCH   7  17
HETATM   17  C2  UNL     1      31.090  40.253  17.277  1.00  0.00     0.146 C 
HETATM   18  C1  UNL     1      30.948  38.766  17.422  1.00  0.00     0.028 C 
ENDBRANCH   7  17
BRANCH  12  19
HETATM   19  C7  UNL     1      30.823  42.766  22.849  1.00  0.00     0.225 C 
BRANCH  19  20
HETATM   20  O1  UNL     1      31.096  41.702  23.713  1.00  0.00    -0.390 OA
HETATM   21  C8  UNL     1      30.098  40.762  23.727  1.00  0.00     0.201 C 
ENDBRANCH  19  20
ENDBRANCH  12  19
BRANCH  14  22
HETATM   22  N6  UNL     1      26.966  42.040  20.147  1.00  0.00    -0.176 N 
ATOM     23  H6  UNL     1      26.398  41.203  20.275  1.00  0.00     0.186 HD
BRANCH  22  24
HETATM   24  C10 UNL     1      26.320  43.248  19.801  1.00  0.00     0.138 A 
HETATM   25  C11 UNL     1      26.880  44.163  18.917  1.00  0.00     0.074 A 
HETATM   26  C12 UNL     1      26.203  45.327  18.615  1.00  0.00     0.026 A 
HETATM   27  C13 UNL     1      26.842  46.292  17.656  1.00  0.00     0.069 C 
HETATM   28  N7  UNL     1      25.013  45.575  19.170  1.00  0.00    -0.196 N 
HETATM   29  C14 UNL     1      24.477  44.691  20.021  1.00  0.00     0.677 A 
ATOM     30  H7  UNL     1      24.514  46.437  18.946  1.00  0.00     0.184 HD
HETATM   31  N9  UNL     1      25.124  43.561  20.319  1.00  0.00    -0.176 N 
ATOM     32  H9  UNL     1      24.689  42.907  20.969  1.00  0.00     0.186 HD
BRANCH  29  33
HETATM   33  N8  UNL     1      23.330  44.909  20.566  1.00  0.00    -0.234 N 
ATOM     34  H82 UNL     1      22.928  45.844  20.503  1.00  0.00     0.174 HD
ATOM     35  H81 UNL     1      22.833  44.164  21.055  1.00  0.00     0.174 HD
ENDBRANCH  29  33
ENDBRANCH  22  24
ENDBRANCH  14  22
ENDBRANCH   1   5
TORSDOF 7
ENDMDL
MODEL 2
REMARK VINA RESULT: -7.803313385      1.084      1.547
REMARK  7 active torsions:
REMARK  status: ('A' for Active; 'I' for Inactive)
REMARK    1  A    between atoms: C2_2  and  N1_3 
REMARK    2  A    between atoms: C3_6  and  N3_7 
REMARK    3  A    between atoms: C6_12  and  C7_13 
REMARK    4  A    between atoms: C7_13  and  O1_14 
REMARK    5  A    between atoms: C9_18  and  N6_19 
REMARK    6  A    between atoms: N6_19  and  C10_21 
REMARK    7  A    between atoms: C14_27  and  N8_28 
ROOT
HETATM    1  N3  UNL     1      33.218  41.936  21.189  1.00  0.00    -0.277 N 
ATOM      2  H3  UNL     1      33.460  42.924  21.271  1.00  0.00     0.179 HD
HETATM    3  C4  UNL     1      33.901  40.996  21.967  1.00  0.00     0.183 C 
HETATM    4  N4  UNL     1      34.459  40.196  22.618  1.00  0.00    -0.172 NA
ENDROOT
BRANCH   1   5
HETATM    5  C3  UNL     1      32.291  41.580  20.369  1.00  0.00     0.145 A 
HETATM    6  N2  UNL     1      32.493  41.036  19.180  1.00  0.00    -0.280 N 
HETATM    7  N1  UNL     1      31.366  40.772  18.557  1.00  0.00    -0.274 N 
ATOM      8  H2  UNL     1      33.417  40.842  18.792  1.00  0.00     0.189 HD
HETATM    9  C15 UNL     1      30.379  41.164  19.380  1.00  0.00     0.153 A 
HETATM   10  C5  UNL     1      30.932  41.688  20.554  1.00  0.00     0.081 A 
HETATM   11  N10 UNL     1      29.024  41.151  19.301  1.00  0.00    -0.174 N 
HETATM   12  C6  UNL     1      30.128  42.163  21.569  1.00  0.00     0.068 A 
HETATM   13  N5  UNL     1      28.787  42.120  21.420  1.00  0.00    -0.192 N 
HETATM   14  C9  UNL     1      28.247  41.618  20.297  1.00  0.00     0.685 A 
ATOM     15  H5  UNL     1      28.182  42.469  22.163  1.00  0.00     0.184 HD
ATOM     16  H10 UNL     1      28.582  40.777  18.462  1.00  0.00     0.186 HD
BRANCH   7  17
HETATM   17  C2  UNL     1      31.208  40.175  17.241  1.00  0.00     0.146 C 
HETATM   18  C1  UNL     1      30.912  38.715  17.424  1.00  0.00     0.028 C 
ENDBRANCH   7  17
BRANCH  12  19
HETATM   19  C7  UNL     1      30.766  42.709  22.792  1.00  0.00     0.225 C 
BRANCH  19  20
HETATM   20  O1  UNL     1      31.109  41.690  23.685  1.00  0.00    -0.390 OA
HETATM   21  C8  UNL     1      30.083  40.804  23.897  1.00  0.00     0.201 C 
ENDBRANCH  19  20
ENDBRANCH  12  19
BRANCH  14  22
HETATM   22  N6  UNL     1      26.965  41.575  20.153  1.00  0.00    -0.176 N 
ATOM     23  H6  UNL     1      26.464  40.745  20.469  1.00  0.00     0.186 HD
BRANCH  22  24
HETATM   24  C10 UNL     1      26.227  42.632  19.576  1.00  0.00     0.138 A 
HETATM   25  C11 UNL     1      25.612  43.615  20.343  1.00  0.00     0.074 A 
HETATM   26  C12 UNL     1      24.903  44.624  19.723  1.00  0.00     0.026 A 
HETATM   27  C13 UNL     1      24.252  45.668  20.587  1.00  0.00     0.069 C 
HETATM   28  N7  UNL     1      24.807  44.658  18.391  1.00  0.00    -0.196 N 
HETATM   29  C14 UNL     1      25.401  43.708  17.656  1.00  0.00     0.677 A 
ATOM     30  H7  UNL     1      24.283  45.405  17.935  1.00  0.00     0.184 HD
HETATM   31  N9  UNL     1      26.090  42.728  18.246  1.00  0.00    -0.176 N 
ATOM     32  H9  UNL     1      26.531  42.021  17.658  1.00  0.00     0.186 HD
BRANCH  29  33
HETATM   33  N8  UNL     1      25.323  43.722  16.370  1.00  0.00    -0.234 N 
ATOM     34  H82 UNL     1      24.624  43.133  15.916  1.00  0.00     0.174 HD
ATOM     35  H81 UNL     1      25.947  44.307  15.814  1.00  0.00     0.174 HD
ENDBRANCH  29  33
ENDBRANCH  22  24
ENDBRANCH  14  22
ENDBRANCH   1   5
TORSDOF 7
ENDMDL
MODEL 3
REMARK VINA RESULT: -7.772574909      3.068      6.945
REMARK  7 active torsions:
REMARK  status: ('A' for Active; 'I' for Inactive)
REMARK    1  A    between atoms: C2_2  and  N1_3 
REMARK    2  A    between atoms: C3_6  and  N3_7 
REMARK    3  A    between atoms: C6_12  and  C7_13 
REMARK    4  A    between atoms: C7_13  and  O1_14 
REMARK    5  A    between atoms: C9_18  and  N6_19 
REMARK    6  A    between atoms: N6_19  and  C10_21 
REMARK    7  A    between atoms: C14_27  and  N8_28 
ROOT
HETATM    1  N3  UNL     1      29.922  41.372  23.012  1.00  0.00    -0.277 N 
ATOM      2  H3  UNL     1      29.477  42.262  23.236  1.00  0.00     0.179 HD
HETATM    3  C4  UNL     1      29.486  40.207  23.651  1.00  0.00     0.183 C 
HETATM    4  N4  UNL     1      29.127  39.220  24.173  1.00  0.00    -0.172 NA
ENDROOT
BRANCH   1   5
HETATM    5  C3  UNL     1      30.874  41.344  22.145  1.00  0.00     0.145 A 
HETATM    6  N2  UNL     1      32.160  41.476  22.423  1.00  0.00    -0.280 N 
HETATM    7  N1  UNL     1      32.911  41.407  21.345  1.00  0.00    -0.274 N 
ATOM      8  H2  UNL     1      32.529  41.615  23.364  1.00  0.00     0.189 HD
HETATM    9  C15 UNL     1      32.071  41.221  20.313  1.00  0.00     0.153 A 
HETATM   10  C5  UNL     1      30.755  41.174  20.784  1.00  0.00     0.081 A 
HETATM   11  N10 UNL     1      32.241  41.076  18.974  1.00  0.00    -0.174 N 
HETATM   12  C6  UNL     1      29.696  40.990  19.922  1.00  0.00     0.068 A 
HETATM   13  N5  UNL     1      29.939  40.854  18.601  1.00  0.00    -0.192 N 
HETATM   14  C9  UNL     1      31.200  40.897  18.138  1.00  0.00     0.685 A 
ATOM     15  H5  UNL     1      29.164  40.718  17.952  1.00  0.00     0.184 HD
ATOM     16  H10 UNL     1      33.185  41.104  18.589  1.00  0.00     0.186 HD
BRANCH   7  17
HETATM   17  C2  UNL     1      34.359  41.511  21.274  1.00  0.00     0.146 C 
HETATM   18  C1  UNL     1      34.937  40.754  22.435  1.00  0.00     0.028 C 
ENDBRANCH   7  17
BRANCH  12  19
HETATM   19  C7  UNL     1      28.319  40.949  20.475  1.00  0.00     0.225 C 
BRANCH  19  20
HETATM   20  O1  UNL     1      27.814  42.236  20.677  1.00  0.00    -0.390 OA
HETATM   21  C8  UNL     1      26.678  42.480  19.948  1.00  0.00     0.201 C 
ENDBRANCH  19  20
ENDBRANCH  12  19
BRANCH  14  22
HETATM   22  N6  UNL     1      31.435  40.766  16.876  1.00  0.00    -0.176 N 
ATOM     23  H6  UNL     1      31.298  41.573  16.267  1.00  0.00     0.186 HD
BRANCH  22  24
HETATM   24  C10 UNL     1      31.876  39.553  16.304  1.00  0.00     0.138 A 
HETATM   25  C11 UNL     1      31.039  38.454  16.153  1.00  0.00     0.074 A 
HETATM   26  C12 UNL     1      31.526  37.294  15.586  1.00  0.00     0.026 A 
HETATM   27  C13 UNL     1      30.589  36.127  15.443  1.00  0.00     0.069 C 
HETATM   28  N7  UNL     1      32.797  37.225  15.182  1.00  0.00    -0.196 N 
HETATM   29  C14 UNL     1      33.601  38.287  15.329  1.00  0.00     0.677 A 
ATOM     30  H7  UNL     1      33.156  36.366  14.764  1.00  0.00     0.184 HD
HETATM   31  N9  UNL     1      33.140  39.414  15.875  1.00  0.00    -0.176 N 
ATOM     32  H9  UNL     1      33.776  40.205  15.972  1.00  0.00     0.186 HD
BRANCH  29  33
HETATM   33  N8  UNL     1      34.830  38.244  14.945  1.00  0.00    -0.234 N 
ATOM     34  H82 UNL     1      35.268  39.101  14.608  1.00  0.00     0.174 HD
ATOM     35  H81 UNL     1      35.357  37.370  14.974  1.00  0.00     0.174 HD
ENDBRANCH  29  33
ENDBRANCH  22  24
ENDBRANCH  14  22
ENDBRANCH   1   5
TORSDOF 7
ENDMDL
MODEL 4
REMARK VINA RESULT: -7.639082695      0.885      1.636
REMARK  7 active torsions:
REMARK  status: ('A' for Active; 'I' for Inactive)
REMARK    1  A    between atoms: C2_2  and  N1_3 
REMARK    2  A    between atoms: C3_6  and  N3_7 
REMARK    3  A    between atoms: C6_12  and  C7_13 
REMARK    4  A    between atoms: C7_13  and  O1_14 
REMARK    5  A    between atoms: C9_18  and  N6_19 
REMARK    6  A    between atoms: N6_19  and  C10_21 
REMARK    7  A    between atoms: C14_27  and  N8_28 
ROOT
HETATM    1  N3  UNL     1      33.078  41.835  21.645  1.00  0.00    -0.277 N 
ATOM      2  H3  UNL     1      33.094  42.791  22.001  1.00  0.00     0.179 HD
HETATM    3  C4  UNL     1      33.947  40.885  22.190  1.00  0.00     0.183 C 
HETATM    4  N4  UNL     1      34.664  40.074  22.641  1.00  0.00    -0.172 NA
ENDROOT
BRANCH   1   5
HETATM    5  C3  UNL     1      32.256  41.528  20.702  1.00  0.00     0.145 A 
HETATM    6  N2  UNL     1      32.596  41.002  19.537  1.00  0.00    -0.280 N 
HETATM    7  N1  UNL     1      31.553  40.789  18.764  1.00  0.00    -0.274 N 
ATOM      8  H2  UNL     1      33.556  40.785  19.268  1.00  0.00     0.189 HD
HETATM    9  C15 UNL     1      30.480  41.198  19.460  1.00  0.00     0.153 A 
HETATM   10  C5  UNL     1      30.888  41.678  20.709  1.00  0.00     0.081 A 
HETATM   11  N10 UNL     1      29.147  41.233  19.203  1.00  0.00    -0.174 N 
HETATM   12  C6  UNL     1      29.973  42.159  21.621  1.00  0.00     0.068 A 
HETATM   13  N5  UNL     1      28.662  42.165  21.297  1.00  0.00    -0.192 N 
HETATM   14  C9  UNL     1      28.260  41.706  20.100  1.00  0.00     0.685 A 
ATOM     15  H5  UNL     1      27.976  42.519  21.962  1.00  0.00     0.184 HD
ATOM     16  H10 UNL     1      28.808  40.892  18.305  1.00  0.00     0.186 HD
BRANCH   7  17
HETATM   17  C2  UNL     1      31.553  40.226  17.424  1.00  0.00     0.146 C 
HETATM   18  C1  UNL     1      30.912  38.870  17.489  1.00  0.00     0.028 C 
ENDBRANCH   7  17
BRANCH  12  19
HETATM   19  C7  UNL     1      30.460  42.658  22.931  1.00  0.00     0.225 C 
BRANCH  19  20
HETATM   20  O1  UNL     1      30.823  41.603  23.773  1.00  0.00    -0.390 OA
HETATM   21  C8  UNL     1      29.895  40.593  23.787  1.00  0.00     0.201 C 
ENDBRANCH  19  20
ENDBRANCH  12  19
BRANCH  14  22
HETATM   22  N6  UNL     1      27.008  41.710  19.788  1.00  0.00    -0.176 N 
ATOM     23  H6  UNL     1      26.491  40.831  19.825  1.00  0.00     0.186 HD
BRANCH  22  24
HETATM   24  C10 UNL     1      26.323  42.882  19.397  1.00  0.00     0.138 A 
HETATM   25  C11 UNL     1      24.945  43.016  19.525  1.00  0.00     0.074 A 
HETATM   26  C12 UNL     1      24.331  44.185  19.126  1.00  0.00     0.026 A 
HETATM   27  C13 UNL     1      22.839  44.291  19.280  1.00  0.00     0.069 C 
HETATM   28  N7  UNL     1      25.055  45.186  18.619  1.00  0.00    -0.196 N 
HETATM   29  C14 UNL     1      26.383  45.053  18.497  1.00  0.00     0.677 A 
ATOM     30  H7  UNL     1      24.599  46.050  18.324  1.00  0.00     0.184 HD
HETATM   31  N9  UNL     1      26.987  43.926  18.881  1.00  0.00    -0.176 N 
ATOM     32  H9  UNL     1      27.999  43.856  18.776  1.00  0.00     0.186 HD
BRANCH  29  33
HETATM   33  N8  UNL     1      27.101  46.005  18.011  1.00  0.00    -0.234 N 
ATOM     34  H82 UNL     1      26.859  46.383  17.095  1.00  0.00     0.174 HD
ATOM     35  H81 UNL     1      27.899  46.376  18.529  1.00  0.00     0.174 HD
ENDBRANCH  29  33
ENDBRANCH  22  24
ENDBRANCH  14  22
ENDBRANCH   1   5
TORSDOF 7
ENDMDL
MODEL 5
REMARK VINA RESULT: -7.540340770      2.588      7.032
REMARK  7 active torsions:
REMARK  status: ('A' for Active; 'I' for Inactive)
REMARK    1  A    between atoms: C2_2  and  N1_3 
REMARK    2  A    between atoms: C3_6  and  N3_7 
REMARK    3  A    between atoms: C6_12  and  C7_13 
REMARK    4  A    between atoms: C7_13  and  O1_14 
REMARK    5  A    between atoms: C9_18  and  N6_19 
REMARK    6  A    between atoms: N6_19  and  C10_21 
REMARK    7  A    between atoms: C14_27  and  N8_28 
ROOT
HETATM    1  N3  UNL     1      29.653  41.625  22.346  1.00  0.00    -0.277 N 
ATOM      2  H3  UNL     1      29.975  42.531  22.687  1.00  0.00     0.179 HD
HETATM    3  C4  UNL     1      29.616  40.537  23.223  1.00  0.00     0.183 C 
HETATM    4  N4  UNL     1      29.572  39.616  23.948  1.00  0.00    -0.172 NA
ENDROOT
BRANCH   1   5
HETATM    5  C3  UNL     1      29.289  41.507  21.117  1.00  0.00     0.145 A 
HETATM    6  N2  UNL     1      28.042  41.593  20.681  1.00  0.00    -0.280 N 
HETATM    7  N1  UNL     1      27.960  41.433  19.378  1.00  0.00    -0.274 N 
ATOM      8  H2  UNL     1      27.238  41.764  21.284  1.00  0.00     0.189 HD
HETATM    9  C15 UNL     1      29.215  41.232  18.943  1.00  0.00     0.153 A 
HETATM   10  C5  UNL     1      30.097  41.273  20.028  1.00  0.00     0.081 A 
HETATM   11  N10 UNL     1      29.766  41.011  17.722  1.00  0.00    -0.174 N 
HETATM   12  C6  UNL     1      31.453  41.095  19.851  1.00  0.00     0.068 A 
HETATM   13  N5  UNL     1      31.931  40.878  18.607  1.00  0.00    -0.192 N 
HETATM   14  C9  UNL     1      31.092  40.838  17.558  1.00  0.00     0.685 A 
ATOM     15  H5  UNL     1      32.931  40.744  18.463  1.00  0.00     0.184 HD
ATOM     16  H10 UNL     1      29.158  40.974  16.905  1.00  0.00     0.186 HD
BRANCH   7  17
HETATM   17  C2  UNL     1      26.757  41.465  18.563  1.00  0.00     0.146 C 
HETATM   18  C1  UNL     1      25.815  42.467  19.163  1.00  0.00     0.028 C 
ENDBRANCH   7  17
BRANCH  12  19
HETATM   19  C7  UNL     1      32.344  41.147  21.037  1.00  0.00     0.225 C 
BRANCH  19  20
HETATM   20  O1  UNL     1      32.565  42.463  21.450  1.00  0.00    -0.390 OA
HETATM   21  C8  UNL     1      33.038  42.543  22.735  1.00  0.00     0.201 C 
ENDBRANCH  19  20
ENDBRANCH  12  19
BRANCH  14  22
HETATM   22  N6  UNL     1      31.546  40.631  16.368  1.00  0.00    -0.176 N 
ATOM     23  H6  UNL     1      31.566  41.409  15.710  1.00  0.00     0.186 HD
BRANCH  22  24
HETATM   24  C10 UNL     1      32.018  39.370  15.941  1.00  0.00     0.138 A 
HETATM   25  C11 UNL     1      31.196  38.250  15.879  1.00  0.00     0.074 A 
HETATM   26  C12 UNL     1      31.713  37.044  15.452  1.00  0.00     0.026 A 
HETATM   27  C13 UNL     1      30.792  35.857  15.401  1.00  0.00     0.069 C 
HETATM   28  N7  UNL     1      32.998  36.950  15.100  1.00  0.00    -0.196 N 
HETATM   29  C14 UNL     1      33.786  38.031  15.160  1.00  0.00     0.677 A 
ATOM     30  H7  UNL     1      33.378  36.057  14.785  1.00  0.00     0.184 HD
HETATM   31  N9  UNL     1      33.296  39.204  15.571  1.00  0.00    -0.176 N 
ATOM     32  H9  UNL     1      33.922  40.008  15.605  1.00  0.00     0.186 HD
BRANCH  29  33
HETATM   33  N8  UNL     1      35.028  37.964  14.823  1.00  0.00    -0.234 N 
ATOM     34  H82 UNL     1      35.449  37.045  14.688  1.00  0.00     0.174 HD
ATOM     35  H81 UNL     1      35.582  38.811  14.697  1.00  0.00     0.174 HD
ENDBRANCH  29  33
ENDBRANCH  22  24
ENDBRANCH  14  22
ENDBRANCH   1   5
TORSDOF 7
ENDMDL
