MODEL 1
REMARK VINA RESULT: -7.157658356      0.000      0.000
REMARK  7 active torsions:
REMARK  status: ('A' for Active; 'I' for Inactive)
REMARK    1  A    between atoms: S1_2  and  C2_3 
REMARK    2  A    between atoms: C2_3  and  C3_4 
REMARK    3  A    between atoms: C4_7  and  N2_8 
REMARK    4  A    between atoms: N2_8  and  N3_10 
REMARK    5  A    between atoms: N3_10  and  C5_12 
REMARK    6  A    between atoms: C5_12  and  C6_13 
REMARK    7  A    between atoms: N5_17  and  O1_18 
ROOT
HETATM    1  C3  UNL     1      28.060  42.017  18.445  1.00  0.00     0.161 A 
HETATM    2  N1  UNL     1      28.520  41.034  19.233  1.00  0.00    -0.172 N 
ATOM      3  H1  UNL     1      29.060  40.217  18.948  1.00  0.00     0.185 HD
HETATM    4  C4  UNL     1      28.115  41.354  20.491  1.00  0.00     0.713 A 
HETATM    5  N6  UNL     1      27.431  42.512  20.408  1.00  0.00    -0.129 N 
ATOM      6  H6  UNL     1      27.006  42.997  21.197  1.00  0.00     0.205 HD
HETATM    7  N7  UNL     1      27.393  42.925  19.155  1.00  0.00    -0.271 N 
ATOM      8  H7  UNL     1      26.943  43.770  18.802  1.00  0.00     0.189 HD
ENDROOT
BRANCH   4   9
HETATM    9  N2  UNL     1      28.393  40.618  21.493  1.00  0.00    -0.131 N 
ATOM     10  H2  UNL     1      27.879  39.744  21.599  1.00  0.00     0.205 HD
BRANCH   9  11
HETATM   11  N3  UNL     1      29.336  40.924  22.435  1.00  0.00    -0.295 N 
ATOM     12  H3  UNL     1      29.137  41.700  23.066  1.00  0.00     0.186 HD
BRANCH  11  13
HETATM   13  C5  UNL     1      30.453  40.309  22.586  1.00  0.00     0.139 C 
BRANCH  13  14
HETATM   14  C6  UNL     1      31.728  40.959  22.357  1.00  0.00     0.075 A 
HETATM   15  N4  UNL     1      32.595  41.435  23.288  1.00  0.00    -0.348 N 
HETATM   16  C7  UNL     1      33.656  41.962  22.650  1.00  0.00     0.214 A 
ATOM     17  H4  UNL     1      32.464  41.399  24.299  1.00  0.00     0.167 HD
HETATM   18  N5  UNL     1      33.487  41.834  21.324  1.00  0.00    -0.223 N 
HETATM   19  C8  UNL     1      32.303  41.219  21.134  1.00  0.00     0.065 A 
HETATM   20  C9  UNL     1      31.761  40.897  19.769  1.00  0.00     0.073 C 
BRANCH  18  21
HETATM   21  O1  UNL     1      34.347  42.247  20.340  1.00  0.00    -0.282 OA
ATOM     22  H1  UNL     1      34.162  42.862  19.640  1.00  0.00     0.245 HD
ENDBRANCH  18  21
ENDBRANCH  13  14
ENDBRANCH  11  13
ENDBRANCH   9  11
ENDBRANCH   4   9
BRANCH   1  23
HETATM   23  C2  UNL     1      28.293  42.044  16.962  1.00  0.00     0.225 C 
HETATM   24  N8  UNL     1      28.340  43.436  16.591  1.00  0.00    -0.310 N 
HETATM   25  C10 UNL     1      29.666  43.902  16.722  1.00  0.00     0.324 C 
ATOM     26  H8  UNL     1      27.543  43.994  16.283  1.00  0.00     0.166 HD
HETATM   27  O2  UNL     1      30.109  45.091  16.800  1.00  0.00    -0.247 OA
HETATM   28  N9  UNL     1      30.523  42.740  16.754  1.00  0.00    -0.276 N 
HETATM   29  C11 UNL     1      29.677  41.607  16.643  1.00  0.00     0.272 C 
ATOM     30  H9  UNL     1      31.539  42.736  16.840  1.00  0.00     0.173 HD
HETATM   31  O3  UNL     1      29.986  40.435  16.336  1.00  0.00    -0.269 OA
BRANCH  23  32
HETATM   32  S1  UNL     1      27.026  41.130  16.080  1.00  0.00    -0.124 SA
HETATM   33  C1  UNL     1      25.587  40.918  17.130  1.00  0.00     0.093 C 
ENDBRANCH  23  32
ENDBRANCH   1  23
TORSDOF 7
ENDMDL
MODEL 2
REMARK VINA RESULT: -7.085939488      3.069      6.687
REMARK  7 active torsions:
REMARK  status: ('A' for Active; 'I' for Inactive)
REMARK    1  A    between atoms: S1_2  and  C2_3 
REMARK    2  A    between atoms: C2_3  and  C3_4 
REMARK    3  A    between atoms: C4_7  and  N2_8 
REMARK    4  A    between atoms: N2_8  and  N3_10 
REMARK    5  A    between atoms: N3_10  and  C5_12 
REMARK    6  A    between atoms: C5_12  and  C6_13 
REMARK    7  A    between atoms: N5_17  and  O1_18 
ROOT
HETATM    1  C3  UNL     1      31.737  41.390  20.574  1.00  0.00     0.161 A 
HETATM    2  N1  UNL     1      30.832  42.100  19.883  1.00  0.00    -0.172 N 
ATOM      3  H1  UNL     1      30.173  42.785  20.253  1.00  0.00     0.185 HD
HETATM    4  C4  UNL     1      30.977  41.715  18.588  1.00  0.00     0.713 A 
HETATM    5  N6  UNL     1      31.959  40.793  18.553  1.00  0.00    -0.129 N 
ATOM      6  H6  UNL     1      32.289  40.322  17.711  1.00  0.00     0.205 HD
HETATM    7  N7  UNL     1      32.430  40.588  19.769  1.00  0.00    -0.271 N 
ATOM      8  H7  UNL     1      33.176  39.945  20.036  1.00  0.00     0.189 HD
ENDROOT
BRANCH   4   9
HETATM    9  N2  UNL     1      30.260  42.206  17.657  1.00  0.00    -0.131 N 
ATOM     10  H2  UNL     1      30.103  41.637  16.826  1.00  0.00     0.205 HD
BRANCH   9  11
HETATM   11  N3  UNL     1      29.687  43.447  17.700  1.00  0.00    -0.295 N 
ATOM     12  H3  UNL     1      30.299  44.242  17.885  1.00  0.00     0.186 HD
BRANCH  11  13
HETATM   13  C5  UNL     1      28.438  43.689  17.526  1.00  0.00     0.139 C 
BRANCH  13  14
HETATM   14  C6  UNL     1      27.469  43.552  18.596  1.00  0.00     0.075 A 
HETATM   15  N4  UNL     1      27.282  42.482  19.411  1.00  0.00    -0.348 N 
HETATM   16  C7  UNL     1      26.282  42.769  20.264  1.00  0.00     0.214 A 
ATOM     17  H4  UNL     1      27.809  41.609  19.382  1.00  0.00     0.167 HD
HETATM   18  N5  UNL     1      25.822  44.005  20.012  1.00  0.00    -0.223 N 
HETATM   19  C8  UNL     1      26.546  44.494  18.986  1.00  0.00     0.065 A 
HETATM   20  C9  UNL     1      26.324  45.866  18.412  1.00  0.00     0.073 C 
BRANCH  18  21
HETATM   21  O1  UNL     1      24.809  44.657  20.665  1.00  0.00    -0.282 OA
ATOM     22  H1  UNL     1      24.220  45.307  20.301  1.00  0.00     0.245 HD
ENDBRANCH  18  21
ENDBRANCH  13  14
ENDBRANCH  11  13
ENDBRANCH   9  11
ENDBRANCH   4   9
BRANCH   1  23
HETATM   23  C2  UNL     1      31.906  41.519  22.060  1.00  0.00     0.225 C 
HETATM   24  N8  UNL     1      33.080  40.754  22.396  1.00  0.00    -0.310 N 
HETATM   25  C10 UNL     1      34.217  41.582  22.281  1.00  0.00     0.324 C 
ATOM     26  H8  UNL     1      33.088  39.772  22.673  1.00  0.00     0.166 HD
HETATM   27  O2  UNL     1      35.445  41.272  22.181  1.00  0.00    -0.247 OA
HETATM   28  N9  UNL     1      33.750  42.948  22.297  1.00  0.00    -0.276 N 
HETATM   29  C11 UNL     1      32.338  42.895  22.420  1.00  0.00     0.272 C 
ATOM     30  H9  UNL     1      34.325  43.789  22.231  1.00  0.00     0.173 HD
HETATM   31  O3  UNL     1      31.554  43.806  22.763  1.00  0.00    -0.269 OA
BRANCH  23  32
HETATM   32  S1  UNL     1      30.441  40.970  22.940  1.00  0.00    -0.124 SA
HETATM   33  C1  UNL     1      29.894  39.393  22.284  1.00  0.00     0.093 C 
ENDBRANCH  23  32
ENDBRANCH   1  23
TORSDOF 7
ENDMDL
MODEL 3
REMARK VINA RESULT: -7.029047980      4.119      6.702
REMARK  7 active torsions:
REMARK  status: ('A' for Active; 'I' for Inactive)
REMARK    1  A    between atoms: S1_2  and  C2_3 
REMARK    2  A    between atoms: C2_3  and  C3_4 
REMARK    3  A    between atoms: C4_7  and  N2_8 
REMARK    4  A    between atoms: N2_8  and  N3_10 
REMARK    5  A    between atoms: N3_10  and  C5_12 
REMARK    6  A    between atoms: C5_12  and  C6_13 
REMARK    7  A    between atoms: N5_17  and  O1_18 
ROOT
HETATM    1  C3  UNL     1      31.399  41.471  20.597  1.00  0.00     0.161 A 
HETATM    2  N1  UNL     1      32.013  40.628  19.752  1.00  0.00    -0.172 N 
ATOM      3  H1  UNL     1      32.727  39.936  19.981  1.00  0.00     0.185 HD
HETATM    4  C4  UNL     1      31.484  40.889  18.527  1.00  0.00     0.713 A 
HETATM    5  N6  UNL     1      30.578  41.874  18.685  1.00  0.00    -0.129 N 
ATOM      6  H6  UNL     1      30.020  42.279  17.935  1.00  0.00     0.205 HD
HETATM    7  N7  UNL     1      30.521  42.236  19.953  1.00  0.00    -0.271 N 
ATOM      8  H7  UNL     1      29.924  42.958  20.357  1.00  0.00     0.189 HD
ENDROOT
BRANCH   4   9
HETATM    9  N2  UNL     1      31.853  40.252  17.488  1.00  0.00    -0.131 N 
ATOM     10  H2  UNL     1      31.963  39.241  17.562  1.00  0.00     0.205 HD
BRANCH   9  11
HETATM   11  N3  UNL     1      32.110  40.836  16.278  1.00  0.00    -0.295 N 
ATOM     12  H3  UNL     1      32.017  41.849  16.215  1.00  0.00     0.186 HD
BRANCH  11  13
HETATM   13  C5  UNL     1      32.460  40.206  15.215  1.00  0.00     0.139 C 
BRANCH  13  14
HETATM   14  C6  UNL     1      33.776  39.618  15.065  1.00  0.00     0.075 A 
HETATM   15  N4  UNL     1      34.202  38.412  15.524  1.00  0.00    -0.348 N 
HETATM   16  C7  UNL     1      35.490  38.255  15.168  1.00  0.00     0.214 A 
ATOM     17  H4  UNL     1      33.641  37.742  16.049  1.00  0.00     0.167 HD
HETATM   18  N5  UNL     1      35.900  39.337  14.488  1.00  0.00    -0.223 N 
HETATM   19  C8  UNL     1      34.853  40.182  14.420  1.00  0.00     0.065 A 
HETATM   20  C9  UNL     1      34.924  41.515  13.729  1.00  0.00     0.073 C 
BRANCH  18  21
HETATM   21  O1  UNL     1      37.146  39.555  13.959  1.00  0.00    -0.282 OA
ATOM     22  H1  UNL     1      37.683  38.931  13.485  1.00  0.00     0.245 HD
ENDBRANCH  18  21
ENDBRANCH  13  14
ENDBRANCH  11  13
ENDBRANCH   9  11
ENDBRANCH   4   9
BRANCH   1  23
HETATM   23  C2  UNL     1      31.700  41.507  22.067  1.00  0.00     0.225 C 
HETATM   24  N8  UNL     1      32.927  40.771  22.241  1.00  0.00    -0.310 N 
HETATM   25  C10 UNL     1      34.018  41.653  22.083  1.00  0.00     0.324 C 
ATOM     26  H8  UNL     1      32.996  39.774  22.446  1.00  0.00     0.166 HD
HETATM   27  O2  UNL     1      35.243  41.401  21.851  1.00  0.00    -0.247 OA
HETATM   28  N9  UNL     1      33.507  42.994  22.237  1.00  0.00    -0.276 N 
HETATM   29  C11 UNL     1      32.115  42.873  22.482  1.00  0.00     0.272 C 
ATOM     30  H9  UNL     1      34.042  43.860  22.179  1.00  0.00     0.173 HD
HETATM   31  O3  UNL     1      31.334  43.725  22.958  1.00  0.00    -0.269 OA
BRANCH  23  32
HETATM   32  S1  UNL     1      30.344  40.839  23.034  1.00  0.00    -0.124 SA
HETATM   33  C1  UNL     1      29.753  39.321  22.284  1.00  0.00     0.093 C 
ENDBRANCH  23  32
ENDBRANCH   1  23
TORSDOF 7
ENDMDL
MODEL 4
REMARK VINA RESULT: -6.976470923      3.964      6.744
REMARK  7 active torsions:
REMARK  status: ('A' for Active; 'I' for Inactive)
REMARK    1  A    between atoms: S1_2  and  C2_3 
REMARK    2  A    between atoms: C2_3  and  C3_4 
REMARK    3  A    between atoms: C4_7  and  N2_8 
REMARK    4  A    between atoms: N2_8  and  N3_10 
REMARK    5  A    between atoms: N3_10  and  C5_12 
REMARK    6  A    between atoms: C5_12  and  C6_13 
REMARK    7  A    between atoms: N5_17  and  O1_18 
ROOT
HETATM    1  C3  UNL     1      31.391  41.493  20.672  1.00  0.00     0.161 A 
HETATM    2  N1  UNL     1      32.002  40.635  19.841  1.00  0.00    -0.172 N 
ATOM      3  H1  UNL     1      32.700  39.932  20.084  1.00  0.00     0.185 HD
HETATM    4  C4  UNL     1      31.495  40.898  18.607  1.00  0.00     0.713 A 
HETATM    5  N6  UNL     1      30.603  41.899  18.747  1.00  0.00    -0.129 N 
ATOM      6  H6  UNL     1      30.062  42.310  17.987  1.00  0.00     0.205 HD
HETATM    7  N7  UNL     1      30.535  42.269  20.012  1.00  0.00    -0.271 N 
ATOM      8  H7  UNL     1      29.944  43.003  20.404  1.00  0.00     0.189 HD
ENDROOT
BRANCH   4   9
HETATM    9  N2  UNL     1      31.866  40.249  17.576  1.00  0.00    -0.131 N 
ATOM     10  H2  UNL     1      32.058  39.253  17.683  1.00  0.00     0.205 HD
BRANCH   9  11
HETATM   11  N3  UNL     1      32.025  40.801  16.335  1.00  0.00    -0.295 N 
ATOM     12  H3  UNL     1      31.982  41.817  16.262  1.00  0.00     0.186 HD
BRANCH  11  13
HETATM   13  C5  UNL     1      32.224  40.138  15.254  1.00  0.00     0.139 C 
BRANCH  13  14
HETATM   14  C6  UNL     1      33.209  39.077  15.169  1.00  0.00     0.075 A 
HETATM   15  N4  UNL     1      34.558  39.205  15.077  1.00  0.00    -0.348 N 
HETATM   16  C7  UNL     1      35.097  37.974  15.020  1.00  0.00     0.214 A 
ATOM     17  H4  UNL     1      35.074  40.084  15.054  1.00  0.00     0.167 HD
HETATM   18  N5  UNL     1      34.119  37.056  15.074  1.00  0.00    -0.223 N 
HETATM   19  C8  UNL     1      32.953  37.725  15.165  1.00  0.00     0.065 A 
HETATM   20  C9  UNL     1      31.620  37.035  15.248  1.00  0.00     0.073 C 
BRANCH  18  21
HETATM   21  O1  UNL     1      34.264  35.693  15.043  1.00  0.00    -0.282 OA
ATOM     22  H1  UNL     1      33.729  35.051  15.494  1.00  0.00     0.245 HD
ENDBRANCH  18  21
ENDBRANCH  13  14
ENDBRANCH  11  13
ENDBRANCH   9  11
ENDBRANCH   4   9
BRANCH   1  23
HETATM   23  C2  UNL     1      31.672  41.532  22.146  1.00  0.00     0.225 C 
HETATM   24  N8  UNL     1      32.896  40.795  22.339  1.00  0.00    -0.310 N 
HETATM   25  C10 UNL     1      33.990  41.676  22.193  1.00  0.00     0.324 C 
ATOM     26  H8  UNL     1      32.961  39.799  22.547  1.00  0.00     0.166 HD
HETATM   27  O2  UNL     1      35.217  41.423  21.978  1.00  0.00    -0.247 OA
HETATM   28  N9  UNL     1      33.478  43.018  22.337  1.00  0.00    -0.276 N 
HETATM   29  C11 UNL     1      32.082  42.899  22.564  1.00  0.00     0.272 C 
ATOM     30  H9  UNL     1      34.014  43.883  22.285  1.00  0.00     0.173 HD
HETATM   31  O3  UNL     1      31.296  43.753  23.027  1.00  0.00    -0.269 OA
BRANCH  23  32
HETATM   32  S1  UNL     1      30.302  40.868  23.096  1.00  0.00    -0.124 SA
HETATM   33  C1  UNL     1      29.787  39.297  22.402  1.00  0.00     0.093 C 
ENDBRANCH  23  32
ENDBRANCH   1  23
TORSDOF 7
ENDMDL
MODEL 5
REMARK VINA RESULT: -6.975489038      3.142      6.784
REMARK  7 active torsions:
REMARK  status: ('A' for Active; 'I' for Inactive)
REMARK    1  A    between atoms: S1_2  and  C2_3 
REMARK    2  A    between atoms: C2_3  and  C3_4 
REMARK    3  A    between atoms: C4_7  and  N2_8 
REMARK    4  A    between atoms: N2_8  and  N3_10 
REMARK    5  A    between atoms: N3_10  and  C5_12 
REMARK    6  A    between atoms: C5_12  and  C6_13 
REMARK    7  A    between atoms: N5_17  and  O1_18 
ROOT
HETATM    1  C3  UNL     1      31.606  41.470  20.667  1.00  0.00     0.161 A 
HETATM    2  N1  UNL     1      30.522  41.951  20.041  1.00  0.00    -0.172 N 
ATOM      3  H1  UNL     1      29.720  42.418  20.466  1.00  0.00     0.185 HD
HETATM    4  C4  UNL     1      30.713  41.687  18.721  1.00  0.00     0.713 A 
HETATM    5  N6  UNL     1      31.900  41.060  18.608  1.00  0.00    -0.129 N 
ATOM      6  H6  UNL     1      32.310  40.738  17.732  1.00  0.00     0.205 HD
HETATM    7  N7  UNL     1      32.454  40.922  19.798  1.00  0.00    -0.271 N 
ATOM      8  H7  UNL     1      33.351  40.485  20.010  1.00  0.00     0.189 HD
ENDROOT
BRANCH   4   9
HETATM    9  N2  UNL     1      29.858  42.021  17.839  1.00  0.00    -0.131 N 
ATOM     10  H2  UNL     1      29.505  41.293  17.218  1.00  0.00     0.205 HD
BRANCH   9  11
HETATM   11  N3  UNL     1      29.383  43.292  17.668  1.00  0.00    -0.295 N 
ATOM     12  H3  UNL     1      30.017  44.063  17.875  1.00  0.00     0.186 HD
BRANCH  11  13
HETATM   13  C5  UNL     1      28.200  43.589  17.268  1.00  0.00     0.139 C 
BRANCH  13  14
HETATM   14  C6  UNL     1      27.234  44.238  18.132  1.00  0.00     0.075 A 
HETATM   15  N4  UNL     1      26.740  45.499  18.023  1.00  0.00    -0.348 N 
HETATM   16  C7  UNL     1      25.869  45.702  19.028  1.00  0.00     0.214 A 
ATOM     17  H4  UNL     1      26.987  46.176  17.301  1.00  0.00     0.167 HD
HETATM   18  N5  UNL     1      25.794  44.594  19.783  1.00  0.00    -0.223 N 
HETATM   19  C8  UNL     1      26.630  43.688  19.240  1.00  0.00     0.065 A 
HETATM   20  C9  UNL     1      26.822  42.310  19.809  1.00  0.00     0.073 C 
BRANCH  18  21
HETATM   21  O1  UNL     1      25.018  44.407  20.897  1.00  0.00    -0.282 OA
ATOM     22  H1  UNL     1      24.701  43.580  21.240  1.00  0.00     0.245 HD
ENDBRANCH  18  21
ENDBRANCH  13  14
ENDBRANCH  11  13
ENDBRANCH   9  11
ENDBRANCH   4   9
BRANCH   1  23
HETATM   23  C2  UNL     1      31.791  41.560  22.154  1.00  0.00     0.225 C 
HETATM   24  N8  UNL     1      32.959  40.773  22.459  1.00  0.00    -0.310 N 
HETATM   25  C10 UNL     1      34.105  41.591  22.352  1.00  0.00     0.324 C 
ATOM     26  H8  UNL     1      32.958  39.784  22.711  1.00  0.00     0.166 HD
HETATM   27  O2  UNL     1      35.329  41.268  22.232  1.00  0.00    -0.247 OA
HETATM   28  N9  UNL     1      33.655  42.961  22.406  1.00  0.00    -0.276 N 
HETATM   29  C11 UNL     1      32.243  42.922  22.542  1.00  0.00     0.272 C 
ATOM     30  H9  UNL     1      34.239  43.796  22.356  1.00  0.00     0.173 HD
HETATM   31  O3  UNL     1      31.474  43.833  22.916  1.00  0.00    -0.269 OA
BRANCH  23  32
HETATM   32  S1  UNL     1      30.329  41.007  23.034  1.00  0.00    -0.124 SA
HETATM   33  C1  UNL     1      29.886  39.353  22.498  1.00  0.00     0.093 C 
ENDBRANCH  23  32
ENDBRANCH   1  23
TORSDOF 7
ENDMDL
