MODEL 1
REMARK VINA RESULT: -7.064544330      0.000      0.000
REMARK  6 active torsions:
REMARK  status: ('A' for Active; 'I' for Inactive)
REMARK    1  A    between atoms: C4_5  and  C5_6 
REMARK    2  A    between atoms: C5_6  and  N1_7 
REMARK    3  A    between atoms: C6_8  and  C7_9 
REMARK    4  A    between atoms: C8_10  and  N2_11 
REMARK    5  A    between atoms: C11_21  and  N7_22 
REMARK    6  A    between atoms: C14_27  and  N9_28 
ROOT
HETATM    1  N1  UNL     1      29.011  41.484  19.208  1.00  0.00    -0.299 N 
HETATM    2  C6  UNL     1      28.276  41.913  20.257  1.00  0.00     0.115 A 
HETATM    3  N5  UNL     1      29.067  42.063  21.336  1.00  0.00    -0.326 N 
ATOM      4  H5  UNL     1      28.779  42.375  22.263  1.00  0.00     0.169 HD
HETATM    5  C10 UNL     1      30.320  41.721  20.950  1.00  0.00     0.154 A 
HETATM    6  N6  UNL     1      31.507  41.673  21.582  1.00  0.00    -0.174 N 
ATOM      7  H6  UNL     1      31.545  41.938  22.566  1.00  0.00     0.186 HD
HETATM    8  C11 UNL     1      32.643  41.291  20.979  1.00  0.00     0.683 A 
HETATM    9  N8  UNL     1      32.623  40.938  19.694  1.00  0.00    -0.175 N 
ATOM     10  H8  UNL     1      33.486  40.648  19.234  1.00  0.00     0.186 HD
HETATM   11  C14 UNL     1      31.458  40.965  18.996  1.00  0.00     0.146 A 
HETATM   12  C15 UNL     1      30.288  41.357  19.620  1.00  0.00     0.130 A 
ENDROOT
BRANCH   2  13
HETATM   13  C7  UNL     1      26.859  42.177  20.242  1.00  0.00     0.066 C 
HETATM   14  C8  UNL     1      26.369  43.405  20.273  1.00  0.00     0.094 C 
BRANCH  14  15
HETATM   15  N2  UNL     1      24.998  43.679  20.260  1.00  0.00    -0.343 N 
HETATM   16  C9  UNL     1      24.570  44.796  19.778  1.00  0.00     0.200 C 
HETATM   17  N3  UNL     1      23.171  45.001  19.798  1.00  0.00    -0.067 NA
HETATM   18  N4  UNL     1      25.484  45.755  19.256  1.00  0.00    -0.067 NA
ATOM     19  H2  UNL     1      24.338  42.997  20.633  1.00  0.00     0.167 HD
ENDBRANCH  14  15
ENDBRANCH   2  13
BRANCH   1  20
HETATM   20  C5  UNL     1      28.601  41.195  17.887  1.00  0.00     0.134 C 
BRANCH  20  21
HETATM   21  C4  UNL     1      28.322  42.150  17.021  1.00  0.00     0.098 A 
HETATM   22  C2  UNL     1      27.689  43.431  16.598  1.00  0.00     0.110 A 
HETATM   23  C1  UNL     1      26.171  43.363  16.525  1.00  0.00     0.053 C 
HETATM   24  C3  UNL     1      28.286  44.677  17.223  1.00  0.00     0.053 C 
HETATM   25  O1  UNL     1      28.458  42.677  15.716  1.00  0.00    -0.334 OA
ENDBRANCH  20  21
ENDBRANCH   1  20
BRANCH  11  26
HETATM   26  N9  UNL     1      31.388  40.636  17.762  1.00  0.00    -0.383 N 
ATOM     27  H92 UNL     1      30.654  39.982  17.489  1.00  0.00     0.157 HD
ATOM     28  H91 UNL     1      32.032  41.001  17.060  1.00  0.00     0.157 HD
ENDBRANCH  11  26
BRANCH   8  29
HETATM   29  N7  UNL     1      33.897  41.241  21.648  1.00  0.00    -0.214 N 
HETATM   30  C12 UNL     1      34.785  40.369  22.502  1.00  0.00     0.161 A 
HETATM   31  C13 UNL     1      35.171  41.708  22.095  1.00  0.00     0.161 A 
ENDBRANCH   8  29
TORSDOF 6
ENDMDL
MODEL 2
REMARK VINA RESULT: -6.858462348      2.600      4.430
REMARK  6 active torsions:
REMARK  status: ('A' for Active; 'I' for Inactive)
REMARK    1  A    between atoms: C4_5  and  C5_6 
REMARK    2  A    between atoms: C5_6  and  N1_7 
REMARK    3  A    between atoms: C6_8  and  C7_9 
REMARK    4  A    between atoms: C8_10  and  N2_11 
REMARK    5  A    between atoms: C11_21  and  N7_22 
REMARK    6  A    between atoms: C14_27  and  N9_28 
ROOT
HETATM    1  N1  UNL     1      29.263  41.179  19.700  1.00  0.00    -0.299 N 
HETATM    2  C6  UNL     1      29.601  41.102  18.395  1.00  0.00     0.115 A 
HETATM    3  N5  UNL     1      30.941  41.065  18.274  1.00  0.00    -0.326 N 
ATOM      4  H5  UNL     1      31.473  41.007  17.406  1.00  0.00     0.169 HD
HETATM    5  C10 UNL     1      31.447  41.120  19.530  1.00  0.00     0.154 A 
HETATM    6  N6  UNL     1      32.696  41.118  20.030  1.00  0.00    -0.174 N 
ATOM      7  H6  UNL     1      33.480  41.066  19.380  1.00  0.00     0.186 HD
HETATM    8  C11 UNL     1      32.959  41.182  21.345  1.00  0.00     0.683 A 
HETATM    9  N8  UNL     1      31.955  41.252  22.217  1.00  0.00    -0.175 N 
ATOM     10  H8  UNL     1      32.152  41.301  23.217  1.00  0.00     0.186 HD
HETATM   11  C14 UNL     1      30.668  41.257  21.779  1.00  0.00     0.146 A 
HETATM   12  C15 UNL     1      30.400  41.192  20.424  1.00  0.00     0.130 A 
ENDROOT
BRANCH   2  13
HETATM   13  C7  UNL     1      28.682  41.063  17.286  1.00  0.00     0.066 C 
HETATM   14  C8  UNL     1      28.725  40.114  16.366  1.00  0.00     0.094 C 
BRANCH  14  15
HETATM   15  N2  UNL     1      27.842  40.061  15.283  1.00  0.00    -0.343 N 
HETATM   16  C9  UNL     1      27.795  39.007  14.542  1.00  0.00     0.200 C 
HETATM   17  N3  UNL     1      26.877  39.027  13.467  1.00  0.00    -0.067 NA
HETATM   18  N4  UNL     1      28.638  37.893  14.818  1.00  0.00    -0.067 NA
ATOM     19  H2  UNL     1      27.236  40.856  15.079  1.00  0.00     0.167 HD
ENDBRANCH  14  15
ENDBRANCH   2  13
BRANCH   1  20
HETATM   20  C5  UNL     1      27.980  41.240  20.290  1.00  0.00     0.134 C 
BRANCH  20  21
HETATM   21  C4  UNL     1      27.173  42.265  20.095  1.00  0.00     0.098 A 
HETATM   22  C2  UNL     1      26.373  43.199  19.253  1.00  0.00     0.110 A 
HETATM   23  C1  UNL     1      27.225  44.118  18.390  1.00  0.00     0.053 C 
HETATM   24  C3  UNL     1      25.154  42.584  18.595  1.00  0.00     0.053 C 
HETATM   25  O1  UNL     1      26.409  43.323  20.639  1.00  0.00    -0.334 OA
ENDBRANCH  20  21
ENDBRANCH   1  20
BRANCH  11  26
HETATM   26  N9  UNL     1      29.670  41.323  22.577  1.00  0.00    -0.383 N 
ATOM     27  H92 UNL     1      29.771  41.900  23.412  1.00  0.00     0.157 HD
ATOM     28  H91 UNL     1      28.797  40.824  22.405  1.00  0.00     0.157 HD
ENDBRANCH  11  26
BRANCH   8  29
HETATM   29  N7  UNL     1      34.280  41.180  21.872  1.00  0.00    -0.214 N 
HETATM   30  C12 UNL     1      35.301  40.331  22.589  1.00  0.00     0.161 A 
HETATM   31  C13 UNL     1      35.570  41.702  22.195  1.00  0.00     0.161 A 
ENDBRANCH   8  29
TORSDOF 6
ENDMDL
MODEL 3
REMARK VINA RESULT: -6.612139456      2.070      7.033
REMARK  6 active torsions:
REMARK  status: ('A' for Active; 'I' for Inactive)
REMARK    1  A    between atoms: C4_5  and  C5_6 
REMARK    2  A    between atoms: C5_6  and  N1_7 
REMARK    3  A    between atoms: C6_8  and  C7_9 
REMARK    4  A    between atoms: C8_10  and  N2_11 
REMARK    5  A    between atoms: C11_21  and  N7_22 
REMARK    6  A    between atoms: C14_27  and  N9_28 
ROOT
HETATM    1  N1  UNL     1      29.434  41.886  19.280  1.00  0.00    -0.299 N 
HETATM    2  C6  UNL     1      29.437  41.372  20.529  1.00  0.00     0.115 A 
HETATM    3  N5  UNL     1      28.218  41.514  21.082  1.00  0.00    -0.326 N 
ATOM      4  H5  UNL     1      27.934  41.217  22.015  1.00  0.00     0.169 HD
HETATM    5  C10 UNL     1      27.440  42.129  20.158  1.00  0.00     0.154 A 
HETATM    6  N6  UNL     1      26.155  42.526  20.139  1.00  0.00    -0.174 N 
ATOM      7  H6  UNL     1      25.583  42.360  20.967  1.00  0.00     0.186 HD
HETATM    8  C11 UNL     1      25.590  43.131  19.083  1.00  0.00     0.683 A 
HETATM    9  N8  UNL     1      26.313  43.361  17.988  1.00  0.00    -0.175 N 
ATOM     10  H8  UNL     1      25.886  43.822  17.185  1.00  0.00     0.186 HD
HETATM   11  C14 UNL     1      27.618  42.985  17.939  1.00  0.00     0.146 A 
HETATM   12  C15 UNL     1      28.198  42.363  19.029  1.00  0.00     0.130 A 
ENDROOT
BRANCH   2  13
HETATM   13  C7  UNL     1      30.563  40.760  21.187  1.00  0.00     0.066 C 
HETATM   14  C8  UNL     1      31.414  41.455  21.924  1.00  0.00     0.094 C 
BRANCH  14  15
HETATM   15  N2  UNL     1      32.512  40.878  22.568  1.00  0.00    -0.343 N 
HETATM   16  C9  UNL     1      33.690  40.985  22.052  1.00  0.00     0.200 C 
HETATM   17  N3  UNL     1      34.751  40.376  22.761  1.00  0.00    -0.067 NA
HETATM   18  N4  UNL     1      33.880  41.688  20.828  1.00  0.00    -0.067 NA
ATOM     19  H2  UNL     1      32.383  40.373  23.444  1.00  0.00     0.167 HD
ENDBRANCH  14  15
ENDBRANCH   2  13
BRANCH   1  20
HETATM   20  C5  UNL     1      30.485  41.954  18.338  1.00  0.00     0.134 C 
BRANCH  20  21
HETATM   21  C4  UNL     1      31.084  40.869  17.885  1.00  0.00     0.098 A 
HETATM   22  C2  UNL     1      31.325  39.790  16.885  1.00  0.00     0.110 A 
HETATM   23  C1  UNL     1      30.164  38.815  16.753  1.00  0.00     0.053 C 
HETATM   24  C3  UNL     1      31.981  40.246  15.596  1.00  0.00     0.053 C 
HETATM   25  O1  UNL     1      32.046  39.850  18.074  1.00  0.00    -0.334 OA
ENDBRANCH  20  21
ENDBRANCH   1  20
BRANCH  11  26
HETATM   26  N9  UNL     1      28.353  43.185  16.912  1.00  0.00    -0.383 N 
ATOM     27  H92 UNL     1      28.593  44.149  16.682  1.00  0.00     0.157 HD
ATOM     28  H91 UNL     1      28.698  42.422  16.328  1.00  0.00     0.157 HD
ENDBRANCH  11  26
BRANCH   8  29
HETATM   29  N7  UNL     1      24.231  43.550  19.066  1.00  0.00    -0.214 N 
HETATM   30  C12 UNL     1      22.816  43.077  18.833  1.00  0.00     0.161 A 
HETATM   31  C13 UNL     1      23.129  44.451  19.184  1.00  0.00     0.161 A 
ENDBRANCH   8  29
TORSDOF 6
ENDMDL
MODEL 4
REMARK VINA RESULT: -6.541933952      2.564      3.805
REMARK  6 active torsions:
REMARK  status: ('A' for Active; 'I' for Inactive)
REMARK    1  A    between atoms: C4_5  and  C5_6 
REMARK    2  A    between atoms: C5_6  and  N1_7 
REMARK    3  A    between atoms: C6_8  and  C7_9 
REMARK    4  A    between atoms: C8_10  and  N2_11 
REMARK    5  A    between atoms: C11_21  and  N7_22 
REMARK    6  A    between atoms: C14_27  and  N9_28 
ROOT
HETATM    1  N1  UNL     1      29.261  41.173  19.695  1.00  0.00    -0.299 N 
HETATM    2  C6  UNL     1      29.603  41.100  18.390  1.00  0.00     0.115 A 
HETATM    3  N5  UNL     1      30.943  41.064  18.272  1.00  0.00    -0.326 N 
ATOM      4  H5  UNL     1      31.477  41.009  17.405  1.00  0.00     0.169 HD
HETATM    5  C10 UNL     1      31.446  41.116  19.529  1.00  0.00     0.154 A 
HETATM    6  N6  UNL     1      32.694  41.113  20.032  1.00  0.00    -0.174 N 
ATOM      7  H6  UNL     1      33.479  41.064  19.384  1.00  0.00     0.186 HD
HETATM    8  C11 UNL     1      32.954  41.174  21.348  1.00  0.00     0.683 A 
HETATM    9  N8  UNL     1      31.947  41.240  22.218  1.00  0.00    -0.175 N 
ATOM     10  H8  UNL     1      32.143  41.286  23.218  1.00  0.00     0.186 HD
HETATM   11  C14 UNL     1      30.662  41.245  21.777  1.00  0.00     0.146 A 
HETATM   12  C15 UNL     1      30.397  41.184  20.422  1.00  0.00     0.130 A 
ENDROOT
BRANCH   2  13
HETATM   13  C7  UNL     1      28.686  41.063  17.279  1.00  0.00     0.066 C 
HETATM   14  C8  UNL     1      28.936  41.682  16.136  1.00  0.00     0.094 C 
BRANCH  14  15
HETATM   15  N2  UNL     1      28.057  41.658  15.049  1.00  0.00    -0.343 N 
HETATM   16  C9  UNL     1      27.764  42.754  14.436  1.00  0.00     0.200 C 
HETATM   17  N3  UNL     1      26.870  42.651  13.345  1.00  0.00    -0.067 NA
HETATM   18  N4  UNL     1      28.329  43.991  14.858  1.00  0.00    -0.067 NA
ATOM     19  H2  UNL     1      27.649  40.776  14.742  1.00  0.00     0.167 HD
ENDBRANCH  14  15
ENDBRANCH   2  13
BRANCH   1  20
HETATM   20  C5  UNL     1      27.977  41.230  20.282  1.00  0.00     0.134 C 
BRANCH  20  21
HETATM   21  C4  UNL     1      27.168  42.253  20.086  1.00  0.00     0.098 A 
HETATM   22  C2  UNL     1      26.375  43.193  19.242  1.00  0.00     0.110 A 
HETATM   23  C1  UNL     1      27.235  44.122  18.398  1.00  0.00     0.053 C 
HETATM   24  C3  UNL     1      25.167  42.578  18.563  1.00  0.00     0.053 C 
HETATM   25  O1  UNL     1      26.393  43.304  20.630  1.00  0.00    -0.334 OA
ENDBRANCH  20  21
ENDBRANCH   1  20
BRANCH  11  26
HETATM   26  N9  UNL     1      29.662  41.307  22.573  1.00  0.00    -0.383 N 
ATOM     27  H92 UNL     1      29.814  41.729  23.490  1.00  0.00     0.157 HD
ATOM     28  H91 UNL     1      28.739  40.954  22.322  1.00  0.00     0.157 HD
ENDBRANCH  11  26
BRANCH   8  29
HETATM   29  N7  UNL     1      34.273  41.171  21.878  1.00  0.00    -0.214 N 
HETATM   30  C12 UNL     1      35.295  40.319  22.590  1.00  0.00     0.161 A 
HETATM   31  C13 UNL     1      35.562  41.694  22.207  1.00  0.00     0.161 A 
ENDBRANCH   8  29
TORSDOF 6
ENDMDL
MODEL 5
REMARK VINA RESULT: -6.498140353      1.906      6.815
REMARK  6 active torsions:
REMARK  status: ('A' for Active; 'I' for Inactive)
REMARK    1  A    between atoms: C4_5  and  C5_6 
REMARK    2  A    between atoms: C5_6  and  N1_7 
REMARK    3  A    between atoms: C6_8  and  C7_9 
REMARK    4  A    between atoms: C8_10  and  N2_11 
REMARK    5  A    between atoms: C11_21  and  N7_22 
REMARK    6  A    between atoms: C14_27  and  N9_28 
ROOT
HETATM    1  N1  UNL     1      29.118  40.961  19.383  1.00  0.00    -0.299 N 
HETATM    2  C6  UNL     1      29.485  41.163  20.667  1.00  0.00     0.115 A 
HETATM    3  N5  UNL     1      28.561  41.917  21.291  1.00  0.00    -0.326 N 
ATOM      4  H5  UNL     1      28.580  42.224  22.263  1.00  0.00     0.169 HD
HETATM    5  C10 UNL     1      27.599  42.189  20.377  1.00  0.00     0.154 A 
HETATM    6  N6  UNL     1      26.448  42.886  20.416  1.00  0.00    -0.174 N 
ATOM      7  H6  UNL     1      26.181  43.333  21.293  1.00  0.00     0.186 HD
HETATM    8  C11 UNL     1      25.637  43.021  19.356  1.00  0.00     0.683 A 
HETATM    9  N8  UNL     1      25.962  42.449  18.198  1.00  0.00    -0.175 N 
ATOM     10  H8  UNL     1      25.346  42.551  17.390  1.00  0.00     0.186 HD
HETATM   11  C14 UNL     1      27.110  41.730  18.088  1.00  0.00     0.146 A 
HETATM   12  C15 UNL     1      27.945  41.593  19.182  1.00  0.00     0.130 A 
ENDROOT
BRANCH   2  13
HETATM   13  C7  UNL     1      30.681  40.657  21.293  1.00  0.00     0.066 C 
HETATM   14  C8  UNL     1      31.448  41.410  22.063  1.00  0.00     0.094 C 
BRANCH  14  15
HETATM   15  N2  UNL     1      32.611  40.936  22.676  1.00  0.00    -0.343 N 
HETATM   16  C9  UNL     1      33.746  41.042  22.073  1.00  0.00     0.200 C 
HETATM   17  N3  UNL     1      34.878  40.540  22.755  1.00  0.00    -0.067 NA
HETATM   18  N4  UNL     1      33.823  41.639  20.782  1.00  0.00    -0.067 NA
ATOM     19  H2  UNL     1      32.563  40.506  23.600  1.00  0.00     0.167 HD
ENDBRANCH  14  15
ENDBRANCH   2  13
BRANCH   1  20
HETATM   20  C5  UNL     1      29.780  40.235  18.367  1.00  0.00     0.134 C 
BRANCH  20  21
HETATM   21  C4  UNL     1      30.638  40.811  17.547  1.00  0.00     0.098 A 
HETATM   22  C2  UNL     1      31.028  41.506  16.288  1.00  0.00     0.110 A 
HETATM   23  C1  UNL     1      30.932  40.623  15.052  1.00  0.00     0.053 C 
HETATM   24  C3  UNL     1      30.508  42.924  16.153  1.00  0.00     0.053 C 
HETATM   25  O1  UNL     1      31.965  41.216  17.275  1.00  0.00    -0.334 OA
ENDBRANCH  20  21
ENDBRANCH   1  20
BRANCH  11  26
HETATM   26  N9  UNL     1      27.465  41.162  16.998  1.00  0.00    -0.383 N 
ATOM     27  H92 UNL     1      28.135  40.396  17.062  1.00  0.00     0.157 HD
ATOM     28  H91 UNL     1      27.104  41.449  16.088  1.00  0.00     0.157 HD
ENDBRANCH  11  26
BRANCH   8  29
HETATM   29  N7  UNL     1      24.421  43.758  19.400  1.00  0.00    -0.214 N 
HETATM   30  C12 UNL     1      23.831  45.112  19.709  1.00  0.00     0.161 A 
HETATM   31  C13 UNL     1      23.018  43.992  19.272  1.00  0.00     0.161 A 
ENDBRANCH   8  29
TORSDOF 6
ENDMDL
