MODEL 1
REMARK VINA RESULT: -7.883349337      0.000      0.000
REMARK  5 active torsions:
REMARK  status: ('A' for Active; 'I' for Inactive)
REMARK    1  A    between atoms: N3_7  and  C4_8 
REMARK    2  A    between atoms: C7_13  and  N5_14 
REMARK    3  A    between atoms: C8_19  and  N7_20 
REMARK    4  A    between atoms: N10_29  and  C11_31 
REMARK    5  A    between atoms: C11_31  and  C12_32 
ROOT
HETATM    1  N1  UNL     1      27.279  42.383  13.546  1.00  0.00    -0.191 NA
HETATM    2  C1  UNL     1      27.476  42.626  14.655  1.00  0.00     0.105 C 
HETATM    3  C2  UNL     1      27.731  42.907  16.037  1.00  0.00     0.107 A 
HETATM    4  C3  UNL     1      27.333  43.992  16.765  1.00  0.00     0.134 A 
HETATM    5  N2  UNL     1      27.794  43.834  18.003  1.00  0.00    -0.300 N 
ATOM      6  H2  UNL     1      27.641  44.503  18.758  1.00  0.00     0.186 HD
HETATM    7  N3  UNL     1      28.480  42.701  18.141  1.00  0.00    -0.221 N 
HETATM    8  C10 UNL     1      28.464  42.101  16.947  1.00  0.00     0.147 A 
HETATM    9  N10 UNL     1      28.974  41.012  16.587  1.00  0.00    -0.371 N 
ATOM     10  H10 UNL     1      28.811  40.781  15.607  1.00  0.00     0.161 HD
ENDROOT
BRANCH   7  11
HETATM   11  C4  UNL     1      29.093  42.280  19.379  1.00  0.00     0.146 A 
HETATM   12  C5  UNL     1      28.366  41.738  20.416  1.00  0.00     0.139 A 
HETATM   13  N4  UNL     1      28.938  41.363  21.574  1.00  0.00    -0.356 N 
HETATM   14  C6  UNL     1      30.261  41.503  21.769  1.00  0.00     0.122 A 
ATOM     15  H4  UNL     1      28.359  40.966  22.315  1.00  0.00     0.165 HD
HETATM   16  C7  UNL     1      30.850  41.115  22.965  1.00  0.00     0.145 A 
HETATM   17  C9  UNL     1      31.002  42.044  20.742  1.00  0.00     0.153 A 
HETATM   18  N6  UNL     1      32.179  41.274  23.117  1.00  0.00    -0.175 N 
HETATM   19  C8  UNL     1      32.892  41.805  22.101  1.00  0.00     0.679 A 
ATOM     20  H6  UNL     1      32.639  40.997  23.985  1.00  0.00     0.186 HD
HETATM   21  N8  UNL     1      32.323  42.181  20.944  1.00  0.00    -0.174 N 
ATOM     22  H8  UNL     1      32.904  42.577  20.205  1.00  0.00     0.186 HD
HETATM   23  N9  UNL     1      30.419  42.422  19.573  1.00  0.00    -0.324 N 
ATOM     24  H9  UNL     1      30.995  42.819  18.831  1.00  0.00     0.169 HD
BRANCH  16  25
HETATM   25  N5  UNL     1      30.130  40.603  23.932  1.00  0.00    -0.383 N 
ATOM     26  H52 UNL     1      29.199  40.232  23.741  1.00  0.00     0.157 HD
ATOM     27  H51 UNL     1      30.487  40.568  24.887  1.00  0.00     0.157 HD
ENDBRANCH  16  25
BRANCH  19  28
HETATM   28  N7  UNL     1      34.179  41.942  22.291  1.00  0.00    -0.234 N 
ATOM     29  H72 UNL     1      34.752  42.467  21.630  1.00  0.00     0.174 HD
ATOM     30  H71 UNL     1      34.570  41.500  23.123  1.00  0.00     0.174 HD
ENDBRANCH  19  28
ENDBRANCH   7  11
BRANCH   9  31
HETATM   31  C11 UNL     1      29.736  40.044  17.289  1.00  0.00     0.153 C 
BRANCH  31  32
HETATM   32  C12 UNL     1      30.341  39.000  16.347  1.00  0.00     0.139 C 
HETATM   33  C13 UNL     1      29.246  38.373  15.512  1.00  0.00     0.035 C 
HETATM   34  C14 UNL     1      29.932  37.087  15.067  1.00  0.00     0.029 C 
HETATM   35  C15 UNL     1      30.880  36.841  16.210  1.00  0.00     0.168 C 
HETATM   36  O1  UNL     1      30.825  37.921  17.053  1.00  0.00    -0.384 OA
ENDBRANCH  31  32
ENDBRANCH   9  31
TORSDOF 5
ENDMDL
MODEL 2
REMARK VINA RESULT: -7.593523474      2.015      4.413
REMARK  5 active torsions:
REMARK  status: ('A' for Active; 'I' for Inactive)
REMARK    1  A    between atoms: N3_7  and  C4_8 
REMARK    2  A    between atoms: C7_13  and  N5_14 
REMARK    3  A    between atoms: C8_19  and  N7_20 
REMARK    4  A    between atoms: N10_29  and  C11_31 
REMARK    5  A    between atoms: C11_31  and  C12_32 
ROOT
HETATM    1  N1  UNL     1      26.863  39.860  13.345  1.00  0.00    -0.191 NA
HETATM    2  C1  UNL     1      27.614  39.661  14.195  1.00  0.00     0.105 C 
HETATM    3  C2  UNL     1      28.546  39.435  15.261  1.00  0.00     0.107 A 
HETATM    4  C3  UNL     1      29.308  38.327  15.496  1.00  0.00     0.134 A 
HETATM    5  N2  UNL     1      30.023  38.558  16.594  1.00  0.00    -0.300 N 
ATOM      6  H2  UNL     1      30.682  37.890  16.996  1.00  0.00     0.186 HD
HETATM    7  N3  UNL     1      29.780  39.764  17.105  1.00  0.00    -0.221 N 
HETATM    8  C10 UNL     1      28.871  40.335  16.309  1.00  0.00     0.147 A 
HETATM    9  N10 UNL     1      28.335  41.468  16.385  1.00  0.00    -0.371 N 
ATOM     10  H10 UNL     1      27.666  41.662  15.640  1.00  0.00     0.161 HD
ENDROOT
BRANCH   7  11
HETATM   11  C4  UNL     1      30.419  40.274  18.296  1.00  0.00     0.146 A 
HETATM   12  C5  UNL     1      31.687  40.812  18.280  1.00  0.00     0.139 A 
HETATM   13  N4  UNL     1      32.285  41.271  19.394  1.00  0.00    -0.356 N 
HETATM   14  C6  UNL     1      31.661  41.222  20.584  1.00  0.00     0.122 A 
ATOM     15  H4  UNL     1      33.226  41.661  19.335  1.00  0.00     0.165 HD
HETATM   16  C7  UNL     1      32.280  41.696  21.733  1.00  0.00     0.145 A 
HETATM   17  C9  UNL     1      30.392  40.686  20.616  1.00  0.00     0.153 A 
HETATM   18  N6  UNL     1      31.617  41.627  22.904  1.00  0.00    -0.175 N 
HETATM   19  C8  UNL     1      30.374  41.099  22.919  1.00  0.00     0.679 A 
ATOM     20  H6  UNL     1      32.046  41.969  23.765  1.00  0.00     0.186 HD
HETATM   21  N8  UNL     1      29.775  40.640  21.808  1.00  0.00    -0.174 N 
ATOM     22  H8  UNL     1      28.835  40.251  21.871  1.00  0.00     0.186 HD
HETATM   23  N9  UNL     1      29.792  40.224  19.487  1.00  0.00    -0.324 N 
ATOM     24  H9  UNL     1      28.852  39.832  19.544  1.00  0.00     0.169 HD
BRANCH  16  25
HETATM   25  N5  UNL     1      33.487  42.202  21.685  1.00  0.00    -0.383 N 
ATOM     26  H52 UNL     1      33.647  43.113  21.254  1.00  0.00     0.157 HD
ATOM     27  H51 UNL     1      34.282  41.695  22.074  1.00  0.00     0.157 HD
ENDBRANCH  16  25
BRANCH  19  28
HETATM   28  N7  UNL     1      29.767  41.052  24.077  1.00  0.00    -0.234 N 
ATOM     29  H72 UNL     1      29.284  41.870  24.448  1.00  0.00     0.174 HD
ATOM     30  H71 UNL     1      29.804  40.164  24.579  1.00  0.00     0.174 HD
ENDBRANCH  19  28
ENDBRANCH   7  11
BRANCH   9  31
HETATM   31  C11 UNL     1      28.487  42.528  17.314  1.00  0.00     0.153 C 
BRANCH  31  32
HETATM   32  C12 UNL     1      27.244  42.701  18.192  1.00  0.00     0.139 C 
HETATM   33  C13 UNL     1      26.946  44.175  18.368  1.00  0.00     0.035 C 
HETATM   34  C14 UNL     1      26.069  44.138  19.614  1.00  0.00     0.029 C 
HETATM   35  C15 UNL     1      26.591  42.912  20.314  1.00  0.00     0.168 C 
HETATM   36  O1  UNL     1      27.494  42.296  19.484  1.00  0.00    -0.384 OA
ENDBRANCH  31  32
ENDBRANCH   9  31
TORSDOF 5
ENDMDL
MODEL 3
REMARK VINA RESULT: -7.550971259      2.143      4.079
REMARK  5 active torsions:
REMARK  status: ('A' for Active; 'I' for Inactive)
REMARK    1  A    between atoms: N3_7  and  C4_8 
REMARK    2  A    between atoms: C7_13  and  N5_14 
REMARK    3  A    between atoms: C8_19  and  N7_20 
REMARK    4  A    between atoms: N10_29  and  C11_31 
REMARK    5  A    between atoms: C11_31  and  C12_32 
ROOT
HETATM    1  N1  UNL     1      27.949  41.921  13.216  1.00  0.00    -0.191 NA
HETATM    2  C1  UNL     1      28.547  41.460  14.086  1.00  0.00     0.105 C 
HETATM    3  C2  UNL     1      29.285  40.905  15.182  1.00  0.00     0.107 A 
HETATM    4  C3  UNL     1      30.058  39.779  15.196  1.00  0.00     0.134 A 
HETATM    5  N2  UNL     1      30.551  39.646  16.424  1.00  0.00    -0.300 N 
ATOM      6  H2  UNL     1      31.166  38.884  16.712  1.00  0.00     0.186 HD
HETATM    7  N3  UNL     1      30.150  40.626  17.233  1.00  0.00    -0.221 N 
HETATM    8  C10 UNL     1      29.366  41.423  16.502  1.00  0.00     0.147 A 
HETATM    9  N10 UNL     1      28.759  42.472  16.828  1.00  0.00    -0.371 N 
ATOM     10  H10 UNL     1      28.222  42.894  16.069  1.00  0.00     0.161 HD
ENDROOT
BRANCH   7  11
HETATM   11  C4  UNL     1      30.536  40.728  18.622  1.00  0.00     0.146 A 
HETATM   12  C5  UNL     1      29.641  40.540  19.652  1.00  0.00     0.139 A 
HETATM   13  N4  UNL     1      30.000  40.653  20.943  1.00  0.00    -0.356 N 
HETATM   14  C6  UNL     1      31.264  40.959  21.285  1.00  0.00     0.122 A 
ATOM     15  H4  UNL     1      29.303  40.505  21.673  1.00  0.00     0.165 HD
HETATM   16  C7  UNL     1      31.633  41.076  22.619  1.00  0.00     0.145 A 
HETATM   17  C9  UNL     1      32.170  41.151  20.266  1.00  0.00     0.153 A 
HETATM   18  N6  UNL     1      32.910  41.383  22.916  1.00  0.00    -0.175 N 
HETATM   19  C8  UNL     1      33.787  41.568  21.905  1.00  0.00     0.679 A 
ATOM     20  H6  UNL     1      33.210  41.475  23.886  1.00  0.00     0.186 HD
HETATM   21  N8  UNL     1      33.431  41.456  20.615  1.00  0.00    -0.174 N 
ATOM     22  H8  UNL     1      34.130  41.605  19.888  1.00  0.00     0.186 HD
HETATM   23  N9  UNL     1      31.802  41.035  18.962  1.00  0.00    -0.324 N 
ATOM     24  H9  UNL     1      32.497  41.184  18.230  1.00  0.00     0.169 HD
BRANCH  16  25
HETATM   25  N5  UNL     1      30.757  40.890  23.576  1.00  0.00    -0.383 N 
ATOM     26  H52 UNL     1      30.278  41.685  23.998  1.00  0.00     0.157 HD
ATOM     27  H51 UNL     1      30.543  39.951  23.912  1.00  0.00     0.157 HD
ENDBRANCH  16  25
BRANCH  19  28
HETATM   28  N7  UNL     1      35.016  41.866  22.238  1.00  0.00    -0.234 N 
ATOM     29  H72 UNL     1      35.806  41.479  21.722  1.00  0.00     0.174 HD
ATOM     30  H71 UNL     1      35.138  42.497  23.031  1.00  0.00     0.174 HD
ENDBRANCH  19  28
ENDBRANCH   7  11
BRANCH   9  31
HETATM   31  C11 UNL     1      28.679  43.180  18.054  1.00  0.00     0.153 C 
BRANCH  31  32
HETATM   32  C12 UNL     1      27.236  43.309  18.546  1.00  0.00     0.139 C 
HETATM   33  C13 UNL     1      26.826  44.766  18.544  1.00  0.00     0.035 C 
HETATM   34  C14 UNL     1      25.641  44.728  19.502  1.00  0.00     0.029 C 
HETATM   35  C15 UNL     1      26.012  43.572  20.392  1.00  0.00     0.168 C 
HETATM   36  O1  UNL     1      27.139  42.981  19.880  1.00  0.00    -0.384 OA
ENDBRANCH  31  32
ENDBRANCH   9  31
TORSDOF 5
ENDMDL
MODEL 4
REMARK VINA RESULT: -7.280199820      2.221      4.434
REMARK  5 active torsions:
REMARK  status: ('A' for Active; 'I' for Inactive)
REMARK    1  A    between atoms: N3_7  and  C4_8 
REMARK    2  A    between atoms: C7_13  and  N5_14 
REMARK    3  A    between atoms: C8_19  and  N7_20 
REMARK    4  A    between atoms: N10_29  and  C11_31 
REMARK    5  A    between atoms: C11_31  and  C12_32 
ROOT
HETATM    1  N1  UNL     1      25.980  41.698  13.628  1.00  0.00    -0.191 NA
HETATM    2  C1  UNL     1      26.743  41.239  14.359  1.00  0.00     0.105 C 
HETATM    3  C2  UNL     1      27.694  40.689  15.280  1.00  0.00     0.107 A 
HETATM    4  C3  UNL     1      28.270  39.451  15.260  1.00  0.00     0.134 A 
HETATM    5  N2  UNL     1      29.089  39.372  16.306  1.00  0.00    -0.300 N 
ATOM      6  H2  UNL     1      29.649  38.550  16.530  1.00  0.00     0.186 HD
HETATM    7  N3  UNL     1      29.090  40.494  17.025  1.00  0.00    -0.221 N 
HETATM    8  C10 UNL     1      28.239  41.330  16.423  1.00  0.00     0.147 A 
HETATM    9  N10 UNL     1      27.911  42.502  16.731  1.00  0.00    -0.371 N 
ATOM     10  H10 UNL     1      27.234  42.925  16.095  1.00  0.00     0.161 HD
ENDROOT
BRANCH   7  11
HETATM   11  C4  UNL     1      29.887  40.683  18.215  1.00  0.00     0.146 A 
HETATM   12  C5  UNL     1      31.246  40.899  18.166  1.00  0.00     0.139 A 
HETATM   13  N4  UNL     1      31.987  41.058  19.277  1.00  0.00    -0.356 N 
HETATM   14  C6  UNL     1      31.423  41.010  20.497  1.00  0.00     0.122 A 
ATOM     15  H4  UNL     1      32.991  41.217  19.193  1.00  0.00     0.165 HD
HETATM   16  C7  UNL     1      32.190  41.173  21.644  1.00  0.00     0.145 A 
HETATM   17  C9  UNL     1      30.065  40.793  20.562  1.00  0.00     0.153 A 
HETATM   18  N6  UNL     1      31.583  41.118  22.845  1.00  0.00    -0.175 N 
HETATM   19  C8  UNL     1      30.250  40.905  22.892  1.00  0.00     0.679 A 
ATOM     20  H6  UNL     1      32.121  41.236  23.704  1.00  0.00     0.186 HD
HETATM   21  N8  UNL     1      29.508  40.747  21.784  1.00  0.00    -0.174 N 
ATOM     22  H8  UNL     1      28.505  40.588  21.872  1.00  0.00     0.186 HD
HETATM   23  N9  UNL     1      29.320  40.634  19.436  1.00  0.00    -0.324 N 
ATOM     24  H9  UNL     1      28.316  40.474  19.518  1.00  0.00     0.169 HD
BRANCH  16  25
HETATM   25  N5  UNL     1      33.482  41.379  21.563  1.00  0.00    -0.383 N 
ATOM     26  H52 UNL     1      33.875  42.289  21.804  1.00  0.00     0.157 HD
ATOM     27  H51 UNL     1      34.110  40.636  21.259  1.00  0.00     0.157 HD
ENDBRANCH  16  25
BRANCH  19  28
HETATM   28  N7  UNL     1      29.702  40.859  24.079  1.00  0.00    -0.234 N 
ATOM     29  H72 UNL     1      29.832  40.048  24.684  1.00  0.00     0.174 HD
ATOM     30  H71 UNL     1      29.147  41.667  24.361  1.00  0.00     0.174 HD
ENDBRANCH  19  28
ENDBRANCH   7  11
BRANCH   9  31
HETATM   31  C11 UNL     1      28.304  43.347  17.799  1.00  0.00     0.153 C 
BRANCH  31  32
HETATM   32  C12 UNL     1      27.098  43.911  18.555  1.00  0.00     0.139 C 
HETATM   33  C13 UNL     1      26.946  43.193  19.879  1.00  0.00     0.035 C 
HETATM   34  C14 UNL     1      25.490  43.505  20.203  1.00  0.00     0.029 C 
HETATM   35  C15 UNL     1      24.900  43.652  18.826  1.00  0.00     0.168 C 
HETATM   36  O1  UNL     1      25.922  43.594  17.913  1.00  0.00    -0.384 OA
ENDBRANCH  31  32
ENDBRANCH   9  31
TORSDOF 5
ENDMDL
MODEL 5
REMARK VINA RESULT: -7.210510702      1.574      2.448
REMARK  5 active torsions:
REMARK  status: ('A' for Active; 'I' for Inactive)
REMARK    1  A    between atoms: N3_7  and  C4_8 
REMARK    2  A    between atoms: C7_13  and  N5_14 
REMARK    3  A    between atoms: C8_19  and  N7_20 
REMARK    4  A    between atoms: N10_29  and  C11_31 
REMARK    5  A    between atoms: C11_31  and  C12_32 
ROOT
HETATM    1  N1  UNL     1      25.659  39.501  13.455  1.00  0.00    -0.191 NA
HETATM    2  C1  UNL     1      25.953  40.065  14.415  1.00  0.00     0.105 C 
HETATM    3  C2  UNL     1      26.339  40.753  15.612  1.00  0.00     0.107 A 
HETATM    4  C3  UNL     1      25.652  41.718  16.290  1.00  0.00     0.134 A 
HETATM    5  N2  UNL     1      26.387  42.070  17.341  1.00  0.00    -0.300 N 
ATOM      6  H2  UNL     1      26.108  42.778  18.021  1.00  0.00     0.186 HD
HETATM    7  N3  UNL     1      27.531  41.391  17.402  1.00  0.00    -0.221 N 
HETATM    8  C10 UNL     1      27.538  40.567  16.350  1.00  0.00     0.147 A 
HETATM    9  N10 UNL     1      28.404  39.734  15.987  1.00  0.00    -0.371 N 
ATOM     10  H10 UNL     1      28.160  39.225  15.137  1.00  0.00     0.161 HD
ENDROOT
BRANCH   7  11
HETATM   11  C4  UNL     1      28.519  41.574  18.440  1.00  0.00     0.146 A 
HETATM   12  C5  UNL     1      29.706  42.239  18.221  1.00  0.00     0.139 A 
HETATM   13  N4  UNL     1      30.630  42.392  19.185  1.00  0.00    -0.356 N 
HETATM   14  C6  UNL     1      30.432  41.896  20.419  1.00  0.00     0.122 A 
ATOM     15  H4  UNL     1      31.495  42.892  18.977  1.00  0.00     0.165 HD
HETATM   16  C7  UNL     1      31.388  42.054  21.413  1.00  0.00     0.145 A 
HETATM   17  C9  UNL     1      29.250  41.227  20.653  1.00  0.00     0.153 A 
HETATM   18  N6  UNL     1      31.147  41.541  22.635  1.00  0.00    -0.175 N 
HETATM   19  C8  UNL     1      29.984  40.888  22.849  1.00  0.00     0.679 A 
ATOM     20  H6  UNL     1      31.830  41.643  23.386  1.00  0.00     0.186 HD
HETATM   21  N8  UNL     1      29.059  40.734  21.888  1.00  0.00    -0.174 N 
ATOM     22  H8  UNL     1      28.196  40.233  22.099  1.00  0.00     0.186 HD
HETATM   23  N9  UNL     1      28.318  41.075  19.675  1.00  0.00    -0.324 N 
ATOM     24  H9  UNL     1      27.453  40.574  19.880  1.00  0.00     0.169 HD
BRANCH  16  25
HETATM   25  N5  UNL     1      32.506  42.693  21.173  1.00  0.00    -0.383 N 
ATOM     26  H52 UNL     1      33.012  42.537  20.301  1.00  0.00     0.157 HD
ATOM     27  H51 UNL     1      32.887  43.352  21.851  1.00  0.00     0.157 HD
ENDBRANCH  16  25
BRANCH  19  28
HETATM   28  N7  UNL     1      29.791  40.405  24.049  1.00  0.00    -0.234 N 
ATOM     29  H72 UNL     1      30.543  39.931  24.550  1.00  0.00     0.174 HD
ATOM     30  H71 UNL     1      28.860  40.528  24.451  1.00  0.00     0.174 HD
ENDBRANCH  19  28
ENDBRANCH   7  11
BRANCH   9  31
HETATM   31  C11 UNL     1      29.658  39.368  16.538  1.00  0.00     0.153 C 
BRANCH  31  32
HETATM   32  C12 UNL     1      30.340  38.266  15.724  1.00  0.00     0.139 C 
HETATM   33  C13 UNL     1      29.308  37.530  14.896  1.00  0.00     0.035 C 
HETATM   34  C14 UNL     1      30.053  36.234  14.602  1.00  0.00     0.029 C 
HETATM   35  C15 UNL     1      30.948  36.122  15.807  1.00  0.00     0.168 C 
HETATM   36  O1  UNL     1      30.819  37.270  16.546  1.00  0.00    -0.384 OA
ENDBRANCH  31  32
ENDBRANCH   9  31
TORSDOF 5
ENDMDL
