MODEL 1
REMARK VINA RESULT: -7.982409943      0.000      0.000
REMARK  9 active torsions:
REMARK  status: ('A' for Active; 'I' for Inactive)
REMARK    1  A    between atoms: C2_2  and  O1_3 
REMARK    2  A    between atoms: C2_2  and  O2_5 
REMARK    3  A    between atoms: O2_5  and  C3_6 
REMARK    4  A    between atoms: C3_6  and  N1_7 
REMARK    5  A    between atoms: C6_12  and  N3_13 
REMARK    6  A    between atoms: N3_13  and  C7_15 
REMARK    7  A    between atoms: C7_15  and  C8_16 
REMARK    8  A    between atoms: C10_18  and  C11_19 
REMARK    9  A    between atoms: C15_29  and  N7_30 
ROOT
HETATM    1  N1  UNL     1      31.853  42.344  21.716  1.00  0.00    -0.305 N 
HETATM    2  C4  UNL     1      30.792  42.612  22.497  1.00  0.00     0.187 A 
HETATM    3  N2  UNL     1      29.660  42.207  21.869  1.00  0.00    -0.346 N 
ATOM      4  H2  UNL     1      28.714  42.293  22.240  1.00  0.00     0.167 HD
HETATM    5  C5  UNL     1      29.987  41.675  20.682  1.00  0.00     0.123 A 
HETATM    6  C6  UNL     1      29.217  41.114  19.657  1.00  0.00     0.148 A 
HETATM    7  N6  UNL     1      29.870  40.662  18.572  1.00  0.00    -0.175 N 
ATOM      8  H6  UNL     1      29.347  40.246  17.801  1.00  0.00     0.186 HD
HETATM    9  C15 UNL     1      31.223  40.756  18.498  1.00  0.00     0.679 A 
HETATM   10  N8  UNL     1      31.957  41.296  19.488  1.00  0.00    -0.174 N 
ATOM     11  H8  UNL     1      32.971  41.350  19.398  1.00  0.00     0.186 HD
HETATM   12  C16 UNL     1      31.353  41.766  20.599  1.00  0.00     0.156 A 
ENDROOT
BRANCH   6  13
HETATM   13  N3  UNL     1      27.941  41.053  19.796  1.00  0.00    -0.368 N 
ATOM     14  H3  UNL     1      27.597  40.674  20.679  1.00  0.00     0.161 HD
BRANCH  13  15
HETATM   15  C7  UNL     1      26.957  41.458  18.852  1.00  0.00     0.179 C 
BRANCH  15  16
HETATM   16  C8  UNL     1      26.296  42.700  19.379  1.00  0.00     0.045 A 
HETATM   17  C9  UNL     1      25.770  43.762  18.684  1.00  0.00     0.055 A 
HETATM   18  C10 UNL     1      25.273  44.660  19.594  1.00  0.00     0.035 A 
HETATM   19  N4  UNL     1      25.492  44.152  20.811  1.00  0.00    -0.304 N 
HETATM   20  N5  UNL     1      26.097  42.996  20.673  1.00  0.00    -0.303 N 
ATOM     21  H4  UNL     1      25.233  44.589  21.695  1.00  0.00     0.186 HD
ATOM     22  H5  UNL     1      26.379  42.399  21.450  1.00  0.00     0.186 HD
BRANCH  18  23
HETATM   23  C11 UNL     1      24.619  45.938  19.250  1.00  0.00    -0.007 C 
HETATM   24  C12 UNL     1      25.654  46.883  18.721  1.00  0.00     0.021 C 
HETATM   25  C13 UNL     1      23.526  45.638  18.252  1.00  0.00     0.021 C 
HETATM   26  C14 UNL     1      23.955  46.518  20.489  1.00  0.00     0.021 C 
ENDBRANCH  18  23
ENDBRANCH  15  16
ENDBRANCH  13  15
ENDBRANCH   6  13
BRANCH   9  27
HETATM   27  N7  UNL     1      31.847  40.320  17.454  1.00  0.00    -0.234 N 
ATOM     28  H72 UNL     1      31.404  40.454  16.545  1.00  0.00     0.174 HD
ATOM     29  H71 UNL     1      32.751  39.859  17.552  1.00  0.00     0.174 HD
ENDBRANCH   9  27
BRANCH   1  30
HETATM   30  C3  UNL     1      33.260  42.604  21.986  1.00  0.00     0.304 C 
BRANCH  30  31
HETATM   31  O2  UNL     1      34.011  41.672  21.281  1.00  0.00    -0.343 OA
BRANCH  31  32
HETATM   32  C2  UNL     1      34.654  40.769  22.094  1.00  0.00     0.255 C 
HETATM   33  C1  UNL     1      36.068  41.312  22.344  1.00  0.00     0.070 C 
BRANCH  32  34
HETATM   34  O1  UNL     1      34.041  40.548  23.316  1.00  0.00    -0.372 OA
ATOM     35  H1  UNL     1      34.090  41.345  23.830  1.00  0.00     0.212 HD
ENDBRANCH  32  34
ENDBRANCH  31  32
ENDBRANCH  30  31
ENDBRANCH   1  30
TORSDOF 9
ENDMDL
MODEL 2
REMARK VINA RESULT: -7.929377729      0.815      1.329
REMARK  9 active torsions:
REMARK  status: ('A' for Active; 'I' for Inactive)
REMARK    1  A    between atoms: C2_2  and  O1_3 
REMARK    2  A    between atoms: C2_2  and  O2_5 
REMARK    3  A    between atoms: O2_5  and  C3_6 
REMARK    4  A    between atoms: C3_6  and  N1_7 
REMARK    5  A    between atoms: C6_12  and  N3_13 
REMARK    6  A    between atoms: N3_13  and  C7_15 
REMARK    7  A    between atoms: C7_15  and  C8_16 
REMARK    8  A    between atoms: C10_18  and  C11_19 
REMARK    9  A    between atoms: C15_29  and  N7_30 
ROOT
HETATM    1  N1  UNL     1      31.424  41.389  22.690  1.00  0.00    -0.305 N 
HETATM    2  C4  UNL     1      30.266  41.299  23.368  1.00  0.00     0.187 A 
HETATM    3  N2  UNL     1      29.242  41.166  22.489  1.00  0.00    -0.346 N 
ATOM      4  H2  UNL     1      28.257  41.079  22.736  1.00  0.00     0.167 HD
HETATM    5  C5  UNL     1      29.736  41.170  21.241  1.00  0.00     0.123 A 
HETATM    6  C6  UNL     1      29.125  41.063  19.987  1.00  0.00     0.148 A 
HETATM    7  N6  UNL     1      29.924  41.103  18.907  1.00  0.00    -0.175 N 
ATOM      8  H6  UNL     1      29.520  41.029  17.973  1.00  0.00     0.186 HD
HETATM    9  C15 UNL     1      31.268  41.240  19.053  1.00  0.00     0.679 A 
HETATM   10  N8  UNL     1      31.848  41.341  20.263  1.00  0.00    -0.174 N 
ATOM     11  H8  UNL     1      32.860  41.444  20.335  1.00  0.00     0.186 HD
HETATM   12  C16 UNL     1      31.093  41.308  21.380  1.00  0.00     0.156 A 
ENDROOT
BRANCH   6  13
HETATM   13  N3  UNL     1      27.848  40.930  19.923  1.00  0.00    -0.368 N 
ATOM     14  H3  UNL     1      27.403  40.433  20.694  1.00  0.00     0.161 HD
BRANCH  13  15
HETATM   15  C7  UNL     1      26.990  41.402  18.892  1.00  0.00     0.179 C 
BRANCH  15  16
HETATM   16  C8  UNL     1      26.335  42.665  19.378  1.00  0.00     0.045 A 
HETATM   17  C9  UNL     1      25.834  43.717  18.649  1.00  0.00     0.055 A 
HETATM   18  C10 UNL     1      25.333  44.641  19.529  1.00  0.00     0.035 A 
HETATM   19  N4  UNL     1      25.525  44.160  20.761  1.00  0.00    -0.304 N 
HETATM   20  N5  UNL     1      26.118  42.993  20.661  1.00  0.00    -0.303 N 
ATOM     21  H4  UNL     1      25.257  44.620  21.631  1.00  0.00     0.186 HD
ATOM     22  H5  UNL     1      26.380  42.411  21.456  1.00  0.00     0.186 HD
BRANCH  18  23
HETATM   23  C11 UNL     1      24.701  45.918  19.144  1.00  0.00    -0.007 C 
HETATM   24  C12 UNL     1      23.990  46.484  20.336  1.00  0.00     0.021 C 
HETATM   25  C13 UNL     1      25.787  46.825  18.617  1.00  0.00     0.021 C 
HETATM   26  C14 UNL     1      23.720  45.676  18.007  1.00  0.00     0.021 C 
ENDBRANCH  18  23
ENDBRANCH  15  16
ENDBRANCH  13  15
ENDBRANCH   6  13
BRANCH   9  27
HETATM   27  N7  UNL     1      32.033  41.278  18.012  1.00  0.00    -0.234 N 
ATOM     28  H72 UNL     1      31.617  41.059  17.107  1.00  0.00     0.174 HD
ATOM     29  H71 UNL     1      33.019  41.520  18.110  1.00  0.00     0.174 HD
ENDBRANCH   9  27
BRANCH   1  30
HETATM   30  C3  UNL     1      32.771  41.539  23.223  1.00  0.00     0.304 C 
BRANCH  30  31
HETATM   31  O2  UNL     1      33.650  40.913  22.346  1.00  0.00    -0.343 OA
BRANCH  31  32
HETATM   32  C2  UNL     1      34.670  41.733  21.927  1.00  0.00     0.255 C 
HETATM   33  C1  UNL     1      35.989  41.015  22.248  1.00  0.00     0.070 C 
BRANCH  32  34
HETATM   34  O1  UNL     1      34.650  42.044  20.578  1.00  0.00    -0.372 OA
ATOM     35  H1  UNL     1      34.386  41.272  20.092  1.00  0.00     0.212 HD
ENDBRANCH  32  34
ENDBRANCH  31  32
ENDBRANCH  30  31
ENDBRANCH   1  30
TORSDOF 9
ENDMDL
MODEL 3
REMARK VINA RESULT: -7.922106843      0.894      1.255
REMARK  9 active torsions:
REMARK  status: ('A' for Active; 'I' for Inactive)
REMARK    1  A    between atoms: C2_2  and  O1_3 
REMARK    2  A    between atoms: C2_2  and  O2_5 
REMARK    3  A    between atoms: O2_5  and  C3_6 
REMARK    4  A    between atoms: C3_6  and  N1_7 
REMARK    5  A    between atoms: C6_12  and  N3_13 
REMARK    6  A    between atoms: N3_13  and  C7_15 
REMARK    7  A    between atoms: C7_15  and  C8_16 
REMARK    8  A    between atoms: C10_18  and  C11_19 
REMARK    9  A    between atoms: C15_29  and  N7_30 
ROOT
HETATM    1  N1  UNL     1      32.249  42.465  22.191  1.00  0.00    -0.305 N 
HETATM    2  C4  UNL     1      31.294  42.832  23.064  1.00  0.00     0.187 A 
HETATM    3  N2  UNL     1      30.078  42.510  22.557  1.00  0.00    -0.346 N 
ATOM      4  H2  UNL     1      29.182  42.679  23.014  1.00  0.00     0.167 HD
HETATM    5  C5  UNL     1      30.245  41.935  21.356  1.00  0.00     0.123 A 
HETATM    6  C6  UNL     1      29.336  41.424  20.423  1.00  0.00     0.148 A 
HETATM    7  N6  UNL     1      29.842  40.904  19.291  1.00  0.00    -0.175 N 
ATOM      8  H6  UNL     1      29.215  40.520  18.584  1.00  0.00     0.186 HD
HETATM    9  C15 UNL     1      31.184  40.885  19.086  1.00  0.00     0.679 A 
HETATM   10  N8  UNL     1      32.052  41.379  19.989  1.00  0.00    -0.174 N 
ATOM     11  H8  UNL     1      33.054  41.349  19.800  1.00  0.00     0.186 HD
HETATM   12  C16 UNL     1      31.599  41.913  21.141  1.00  0.00     0.156 A 
ENDROOT
BRANCH   6  13
HETATM   13  N3  UNL     1      28.079  41.469  20.685  1.00  0.00    -0.368 N 
ATOM     14  H3  UNL     1      27.821  41.520  21.671  1.00  0.00     0.161 HD
BRANCH  13  15
HETATM   15  C7  UNL     1      27.009  41.457  19.749  1.00  0.00     0.179 C 
BRANCH  15  16
HETATM   16  C8  UNL     1      26.457  42.852  19.659  1.00  0.00     0.045 A 
HETATM   17  C9  UNL     1      26.612  43.782  18.660  1.00  0.00     0.055 A 
HETATM   18  C10 UNL     1      25.923  44.911  19.021  1.00  0.00     0.035 A 
HETATM   19  N4  UNL     1      25.364  44.670  20.211  1.00  0.00    -0.304 N 
HETATM   20  N5  UNL     1      25.686  43.452  20.579  1.00  0.00    -0.303 N 
ATOM     21  H4  UNL     1      24.786  45.321  20.742  1.00  0.00     0.186 HD
ATOM     22  H5  UNL     1      25.388  43.018  21.452  1.00  0.00     0.186 HD
BRANCH  18  23
HETATM   23  C11 UNL     1      25.837  46.143  18.213  1.00  0.00    -0.007 C 
HETATM   24  C12 UNL     1      25.342  47.258  19.084  1.00  0.00     0.021 C 
HETATM   25  C13 UNL     1      27.207  46.407  17.635  1.00  0.00     0.021 C 
HETATM   26  C14 UNL     1      24.887  45.920  17.047  1.00  0.00     0.021 C 
ENDBRANCH  18  23
ENDBRANCH  15  16
ENDBRANCH  13  15
ENDBRANCH   6  13
BRANCH   9  27
HETATM   27  N7  UNL     1      31.667  40.385  17.997  1.00  0.00    -0.234 N 
ATOM     28  H72 UNL     1      31.206  39.564  17.605  1.00  0.00     0.174 HD
ATOM     29  H71 UNL     1      32.484  40.808  17.556  1.00  0.00     0.174 HD
ENDBRANCH   9  27
BRANCH   1  30
HETATM   30  C3  UNL     1      33.693  42.615  22.319  1.00  0.00     0.304 C 
BRANCH  30  31
HETATM   31  O2  UNL     1      34.295  41.728  21.434  1.00  0.00    -0.343 OA
BRANCH  31  32
HETATM   32  C2  UNL     1      35.044  40.763  22.063  1.00  0.00     0.255 C 
HETATM   33  C1  UNL     1      36.412  41.386  22.378  1.00  0.00     0.070 C 
BRANCH  32  34
HETATM   34  O1  UNL     1      34.498  40.276  23.239  1.00  0.00    -0.372 OA
ATOM     35  H1  UNL     1      33.777  39.696  23.022  1.00  0.00     0.212 HD
ENDBRANCH  32  34
ENDBRANCH  31  32
ENDBRANCH  30  31
ENDBRANCH   1  30
TORSDOF 9
ENDMDL
MODEL 4
REMARK VINA RESULT: -7.752033227      1.270      1.566
REMARK  9 active torsions:
REMARK  status: ('A' for Active; 'I' for Inactive)
REMARK    1  A    between atoms: C2_2  and  O1_3 
REMARK    2  A    between atoms: C2_2  and  O2_5 
REMARK    3  A    between atoms: O2_5  and  C3_6 
REMARK    4  A    between atoms: C3_6  and  N1_7 
REMARK    5  A    between atoms: C6_12  and  N3_13 
REMARK    6  A    between atoms: N3_13  and  C7_15 
REMARK    7  A    between atoms: C7_15  and  C8_16 
REMARK    8  A    between atoms: C10_18  and  C11_19 
REMARK    9  A    between atoms: C15_29  and  N7_30 
ROOT
HETATM    1  N1  UNL     1      31.672  40.924  22.150  1.00  0.00    -0.305 N 
HETATM    2  C4  UNL     1      30.798  41.052  23.163  1.00  0.00     0.187 A 
HETATM    3  N2  UNL     1      29.615  41.504  22.677  1.00  0.00    -0.346 N 
ATOM      4  H2  UNL     1      28.779  41.690  23.232  1.00  0.00     0.167 HD
HETATM    5  C5  UNL     1      29.722  41.668  21.350  1.00  0.00     0.123 A 
HETATM    6  C6  UNL     1      28.814  42.104  20.378  1.00  0.00     0.148 A 
HETATM    7  N6  UNL     1      29.249  42.154  19.107  1.00  0.00    -0.175 N 
ATOM      8  H6  UNL     1      28.620  42.467  18.367  1.00  0.00     0.186 HD
HETATM    9  C15 UNL     1      30.522  41.792  18.803  1.00  0.00     0.679 A 
HETATM   10  N8  UNL     1      31.389  41.374  19.744  1.00  0.00    -0.174 N 
ATOM     11  H8  UNL     1      32.338  41.109  19.479  1.00  0.00     0.186 HD
HETATM   12  C16 UNL     1      31.006  41.304  21.035  1.00  0.00     0.156 A 
ENDROOT
BRANCH   6  13
HETATM   13  N3  UNL     1      27.623  42.427  20.736  1.00  0.00    -0.368 N 
ATOM     14  H3  UNL     1      27.511  42.766  21.692  1.00  0.00     0.161 HD
BRANCH  13  15
HETATM   15  C7  UNL     1      26.444  42.361  19.944  1.00  0.00     0.179 C 
BRANCH  15  16
HETATM   16  C8  UNL     1      25.891  43.753  19.822  1.00  0.00     0.045 A 
HETATM   17  C9  UNL     1      26.139  44.703  18.861  1.00  0.00     0.055 A 
HETATM   18  C10 UNL     1      25.406  45.819  19.169  1.00  0.00     0.035 A 
HETATM   19  N4  UNL     1      24.729  45.552  20.290  1.00  0.00    -0.304 N 
HETATM   20  N5  UNL     1      25.024  44.330  20.668  1.00  0.00    -0.303 N 
ATOM     21  H4  UNL     1      24.094  46.189  20.771  1.00  0.00     0.186 HD
ATOM     22  H5  UNL     1      24.641  43.877  21.498  1.00  0.00     0.186 HD
BRANCH  18  23
HETATM   23  C11 UNL     1      25.391  47.066  18.378  1.00  0.00    -0.007 C 
HETATM   24  C12 UNL     1      26.705  47.205  17.671  1.00  0.00     0.021 C 
HETATM   25  C13 UNL     1      24.216  46.994  17.433  1.00  0.00     0.021 C 
HETATM   26  C14 UNL     1      25.158  48.251  19.303  1.00  0.00     0.021 C 
ENDBRANCH  18  23
ENDBRANCH  15  16
ENDBRANCH  13  15
ENDBRANCH   6  13
BRANCH   9  27
HETATM   27  N7  UNL     1      30.937  41.842  17.581  1.00  0.00    -0.234 N 
ATOM     28  H72 UNL     1      31.927  41.669  17.406  1.00  0.00     0.174 HD
ATOM     29  H71 UNL     1      30.283  42.051  16.826  1.00  0.00     0.174 HD
ENDBRANCH   9  27
BRANCH   1  30
HETATM   30  C3  UNL     1      33.056  40.471  22.206  1.00  0.00     0.304 C 
BRANCH  30  31
HETATM   31  O2  UNL     1      33.797  41.441  22.870  1.00  0.00    -0.343 OA
BRANCH  31  32
HETATM   32  C2  UNL     1      34.754  42.028  22.076  1.00  0.00     0.255 C 
HETATM   33  C1  UNL     1      36.060  41.250  22.291  1.00  0.00     0.070 C 
BRANCH  32  34
HETATM   34  O1  UNL     1      34.460  42.037  20.723  1.00  0.00    -0.372 OA
ATOM     35  H1  UNL     1      33.567  42.339  20.608  1.00  0.00     0.212 HD
ENDBRANCH  32  34
ENDBRANCH  31  32
ENDBRANCH  30  31
ENDBRANCH   1  30
TORSDOF 9
ENDMDL
MODEL 5
REMARK VINA RESULT: -7.521542461      0.971      1.292
REMARK  9 active torsions:
REMARK  status: ('A' for Active; 'I' for Inactive)
REMARK    1  A    between atoms: C2_2  and  O1_3 
REMARK    2  A    between atoms: C2_2  and  O2_5 
REMARK    3  A    between atoms: O2_5  and  C3_6 
REMARK    4  A    between atoms: C3_6  and  N1_7 
REMARK    5  A    between atoms: C6_12  and  N3_13 
REMARK    6  A    between atoms: N3_13  and  C7_15 
REMARK    7  A    between atoms: C7_15  and  C8_16 
REMARK    8  A    between atoms: C10_18  and  C11_19 
REMARK    9  A    between atoms: C15_29  and  N7_30 
ROOT
HETATM    1  N1  UNL     1      32.271  42.490  22.201  1.00  0.00    -0.305 N 
HETATM    2  C4  UNL     1      31.313  42.883  23.059  1.00  0.00     0.187 A 
HETATM    3  N2  UNL     1      30.097  42.580  22.541  1.00  0.00    -0.346 N 
ATOM      4  H2  UNL     1      29.200  42.771  22.986  1.00  0.00     0.167 HD
HETATM    5  C5  UNL     1      30.266  41.990  21.348  1.00  0.00     0.123 A 
HETATM    6  C6  UNL     1      29.359  41.487  20.409  1.00  0.00     0.148 A 
HETATM    7  N6  UNL     1      29.868  40.945  19.289  1.00  0.00    -0.175 N 
ATOM      8  H6  UNL     1      29.242  40.567  18.578  1.00  0.00     0.186 HD
HETATM    9  C15 UNL     1      31.212  40.899  19.100  1.00  0.00     0.679 A 
HETATM   10  N8  UNL     1      32.078  41.385  20.008  1.00  0.00    -0.174 N 
ATOM     11  H8  UNL     1      33.082  41.333  19.831  1.00  0.00     0.186 HD
HETATM   12  C16 UNL     1      31.622  41.939  21.149  1.00  0.00     0.156 A 
ENDROOT
BRANCH   6  13
HETATM   13  N3  UNL     1      28.100  41.559  20.656  1.00  0.00    -0.368 N 
ATOM     14  H3  UNL     1      27.833  41.670  21.635  1.00  0.00     0.161 HD
BRANCH  13  15
HETATM   15  C7  UNL     1      27.039  41.502  19.712  1.00  0.00     0.179 C 
BRANCH  15  16
HETATM   16  C8  UNL     1      26.647  42.913  19.372  1.00  0.00     0.045 A 
HETATM   17  C9  UNL     1      25.534  43.620  19.759  1.00  0.00     0.055 A 
HETATM   18  C10 UNL     1      25.611  44.870  19.202  1.00  0.00     0.035 A 
HETATM   19  N4  UNL     1      26.744  44.919  18.494  1.00  0.00    -0.304 N 
HETATM   20  N5  UNL     1      27.347  43.759  18.601  1.00  0.00    -0.303 N 
ATOM     21  H4  UNL     1      27.081  45.721  17.963  1.00  0.00     0.186 HD
ATOM     22  H5  UNL     1      28.236  43.530  18.155  1.00  0.00     0.186 HD
BRANCH  18  23
HETATM   23  C11 UNL     1      24.607  45.937  19.379  1.00  0.00    -0.007 C 
HETATM   24  C12 UNL     1      24.046  45.848  20.765  1.00  0.00     0.021 C 
HETATM   25  C13 UNL     1      25.287  47.256  19.099  1.00  0.00     0.021 C 
HETATM   26  C14 UNL     1      23.500  45.770  18.348  1.00  0.00     0.021 C 
ENDBRANCH  18  23
ENDBRANCH  15  16
ENDBRANCH  13  15
ENDBRANCH   6  13
BRANCH   9  27
HETATM   27  N7  UNL     1      31.697  40.378  18.022  1.00  0.00    -0.234 N 
ATOM     28  H72 UNL     1      31.111  40.378  17.187  1.00  0.00     0.174 HD
ATOM     29  H71 UNL     1      32.638  39.983  18.022  1.00  0.00     0.174 HD
ENDBRANCH   9  27
BRANCH   1  30
HETATM   30  C3  UNL     1      33.715  42.612  22.345  1.00  0.00     0.304 C 
BRANCH  30  31
HETATM   31  O2  UNL     1      34.311  41.731  21.451  1.00  0.00    -0.343 OA
BRANCH  31  32
HETATM   32  C2  UNL     1      35.066  40.763  22.069  1.00  0.00     0.255 C 
HETATM   33  C1  UNL     1      36.436  41.385  22.376  1.00  0.00     0.070 C 
BRANCH  32  34
HETATM   34  O1  UNL     1      34.528  40.268  23.245  1.00  0.00    -0.372 OA
ATOM     35  H1  UNL     1      33.617  40.532  23.298  1.00  0.00     0.212 HD
ENDBRANCH  32  34
ENDBRANCH  31  32
ENDBRANCH  30  31
ENDBRANCH   1  30
TORSDOF 9
ENDMDL
