MODEL 1
REMARK VINA RESULT: -7.121556432      0.000      0.000
REMARK  7 active torsions:
REMARK  status: ('A' for Active; 'I' for Inactive)
REMARK    1  A    between atoms: C4_7  and  C5_8 
REMARK    2  A    between atoms: C5_8  and  C6_9 
REMARK    3  A    between atoms: C6_9  and  N2_10 
REMARK    4  A    between atoms: C6_9  and  C7_14 
REMARK    5  A    between atoms: C7_14  and  N3_15 
REMARK    6  A    between atoms: N3_15  and  C8_17 
REMARK    7  A    between atoms: C12_27  and  N7_28 
ROOT
HETATM    1  N3  UNL     1      29.953  40.386  19.668  1.00  0.00    -0.372 N 
ATOM      2  H3  UNL     1      30.354  39.558  19.228  1.00  0.00     0.161 HD
ENDROOT
BRANCH   1   3
HETATM    3  C7  UNL     1      29.273  41.298  18.813  1.00  0.00     0.154 C 
BRANCH   3   4
HETATM    4  C6  UNL     1      30.173  41.828  17.697  1.00  0.00     0.205 C 
BRANCH   4   5
HETATM    5  C5  UNL     1      29.987  41.041  16.435  1.00  0.00     0.081 C 
BRANCH   5   6
HETATM    6  C4  UNL     1      31.310  40.517  15.940  1.00  0.00     0.043 A 
HETATM    7  C3  UNL     1      31.823  39.348  16.393  1.00  0.00     0.254 A 
HETATM    8  N1  UNL     1      32.956  38.743  16.017  1.00  0.00    -0.321 N 
HETATM    9  O1  UNL     1      31.182  38.703  17.303  1.00  0.00    -0.268 OA
HETATM   10  C2  UNL     1      33.829  39.168  15.108  1.00  0.00     0.051 A 
ATOM     11  H1  UNL     1      33.174  37.860  16.478  1.00  0.00     0.169 HD
HETATM   12  C1  UNL     1      35.076  38.396  14.767  1.00  0.00     0.076 C 
HETATM   13  S1  UNL     1      33.398  40.646  14.384  1.00  0.00    -0.062 SA
HETATM   14  C14 UNL     1      31.939  41.302  14.952  1.00  0.00     0.100 A 
HETATM   15  N9  UNL     1      31.346  42.506  14.536  1.00  0.00    -0.094 NA
ENDBRANCH   5   6
ENDBRANCH   4   5
BRANCH   4  16
HETATM   16  N2  UNL     1      30.023  43.239  17.537  1.00  0.00    -0.073 N 
ATOM     17  H23 UNL     1      30.437  43.734  18.328  1.00  0.00     0.274 HD
ATOM     18  H22 UNL     1      30.625  43.579  16.787  1.00  0.00     0.274 HD
ATOM     19  H21 UNL     1      29.062  43.544  17.390  1.00  0.00     0.274 HD
ENDBRANCH   4  16
ENDBRANCH   3   4
ENDBRANCH   1   3
BRANCH   1  20
HETATM   20  C8  UNL     1      30.115  40.500  20.943  1.00  0.00     0.132 A 
HETATM   21  N4  UNL     1      29.168  40.138  21.834  1.00  0.00    -0.337 N 
HETATM   22  C9  UNL     1      29.318  40.256  23.160  1.00  0.00     0.182 A 
ATOM     23  H4  UNL     1      28.292  39.756  21.479  1.00  0.00     0.168 HD
HETATM   24  N5  UNL     1      30.468  40.755  23.634  1.00  0.00    -0.349 N 
HETATM   25  C10 UNL     1      31.439  41.128  22.813  1.00  0.00     0.080 A 
ATOM     26  H5  UNL     1      30.598  40.851  24.642  1.00  0.00     0.166 HD
HETATM   27  C11 UNL     1      32.620  41.643  23.333  1.00  0.00     0.138 A 
HETATM   28  C13 UNL     1      31.305  41.017  21.455  1.00  0.00     0.121 A 
HETATM   29  N6  UNL     1      33.573  42.006  22.461  1.00  0.00    -0.200 N 
HETATM   30  C12 UNL     1      33.396  41.878  21.137  1.00  0.00     0.676 A 
ATOM     31  H6  UNL     1      34.451  42.388  22.813  1.00  0.00     0.183 HD
HETATM   32  N8  UNL     1      32.275  41.387  20.591  1.00  0.00    -0.186 N 
ATOM     33  H8  UNL     1      32.160  41.298  19.581  1.00  0.00     0.184 HD
BRANCH  30  34
HETATM   34  N7  UNL     1      34.353  42.247  20.357  1.00  0.00    -0.234 N 
ATOM     35  H72 UNL     1      35.108  42.813  20.743  1.00  0.00     0.174 HD
ATOM     36  H71 UNL     1      34.317  41.956  19.380  1.00  0.00     0.174 HD
ENDBRANCH  30  34
ENDBRANCH   1  20
TORSDOF 7
ENDMDL
MODEL 2
REMARK VINA RESULT: -7.095256592      1.939      2.337
REMARK  7 active torsions:
REMARK  status: ('A' for Active; 'I' for Inactive)
REMARK    1  A    between atoms: C4_7  and  C5_8 
REMARK    2  A    between atoms: C5_8  and  C6_9 
REMARK    3  A    between atoms: C6_9  and  N2_10 
REMARK    4  A    between atoms: C6_9  and  C7_14 
REMARK    5  A    between atoms: C7_14  and  N3_15 
REMARK    6  A    between atoms: N3_15  and  C8_17 
REMARK    7  A    between atoms: C12_27  and  N7_28 
ROOT
HETATM    1  N3  UNL     1      31.689  40.935  18.675  1.00  0.00    -0.372 N 
ATOM      2  H3  UNL     1      32.702  40.978  18.782  1.00  0.00     0.161 HD
ENDROOT
BRANCH   1   3
HETATM    3  C7  UNL     1      31.198  40.530  17.402  1.00  0.00     0.154 C 
BRANCH   3   4
HETATM    4  C6  UNL     1      31.600  41.499  16.291  1.00  0.00     0.205 C 
BRANCH   4   5
HETATM    5  C5  UNL     1      31.645  40.807  14.962  1.00  0.00     0.081 C 
BRANCH   5   6
HETATM    6  C4  UNL     1      32.992  40.994  14.315  1.00  0.00     0.043 A 
HETATM    7  C3  UNL     1      34.006  40.121  14.524  1.00  0.00     0.254 A 
HETATM    8  N1  UNL     1      35.233  40.136  13.989  1.00  0.00    -0.321 N 
HETATM    9  O1  UNL     1      33.819  39.139  15.335  1.00  0.00    -0.268 OA
HETATM   10  C2  UNL     1      35.721  41.024  13.128  1.00  0.00     0.051 A 
ATOM     11  H1  UNL     1      35.862  39.385  14.272  1.00  0.00     0.169 HD
HETATM   12  C1  UNL     1      37.125  40.937  12.591  1.00  0.00     0.076 C 
HETATM   13  S1  UNL     1      34.615  42.245  12.703  1.00  0.00    -0.062 SA
HETATM   14  C14 UNL     1      33.099  42.105  13.453  1.00  0.00     0.100 A 
HETATM   15  N9  UNL     1      32.002  42.969  13.290  1.00  0.00    -0.094 NA
ENDBRANCH   5   6
ENDBRANCH   4   5
BRANCH   4  16
HETATM   16  N2  UNL     1      30.792  42.676  16.313  1.00  0.00    -0.073 N 
ATOM     17  H23 UNL     1      30.561  42.969  15.364  1.00  0.00     0.274 HD
ATOM     18  H22 UNL     1      29.858  42.461  16.661  1.00  0.00     0.274 HD
ATOM     19  H21 UNL     1      31.197  43.452  16.836  1.00  0.00     0.274 HD
ENDBRANCH   4  16
ENDBRANCH   3   4
ENDBRANCH   1   3
BRANCH   1  20
HETATM   20  C8  UNL     1      30.984  41.253  19.708  1.00  0.00     0.132 A 
HETATM   21  N4  UNL     1      29.665  41.524  19.635  1.00  0.00    -0.337 N 
HETATM   22  C9  UNL     1      28.920  41.862  20.697  1.00  0.00     0.182 A 
ATOM     23  H4  UNL     1      29.209  41.468  18.725  1.00  0.00     0.168 HD
HETATM   24  N5  UNL     1      29.511  41.935  21.898  1.00  0.00    -0.349 N 
HETATM   25  C10 UNL     1      30.804  41.681  22.037  1.00  0.00     0.080 A 
ATOM     26  H5  UNL     1      28.958  42.191  22.716  1.00  0.00     0.166 HD
HETATM   27  C11 UNL     1      31.390  41.764  23.295  1.00  0.00     0.138 A 
HETATM   28  C13 UNL     1      31.581  41.334  20.966  1.00  0.00     0.121 A 
HETATM   29  N6  UNL     1      32.701  41.497  23.385  1.00  0.00    -0.200 N 
HETATM   30  C12 UNL     1      33.423  41.161  22.305  1.00  0.00     0.676 A 
ATOM     31  H6  UNL     1      33.160  41.551  24.295  1.00  0.00     0.183 HD
HETATM   32  N8  UNL     1      32.901  41.068  21.074  1.00  0.00    -0.186 N 
ATOM     33  H8  UNL     1      33.468  40.811  20.265  1.00  0.00     0.184 HD
BRANCH  30  34
HETATM   34  N7  UNL     1      34.678  40.917  22.464  1.00  0.00    -0.234 N 
ATOM     35  H72 UNL     1      35.290  41.678  22.758  1.00  0.00     0.174 HD
ATOM     36  H71 UNL     1      35.011  39.969  22.288  1.00  0.00     0.174 HD
ENDBRANCH  30  34
ENDBRANCH   1  20
TORSDOF 7
ENDMDL
MODEL 3
REMARK VINA RESULT: -7.066842171      2.356      2.722
REMARK  7 active torsions:
REMARK  status: ('A' for Active; 'I' for Inactive)
REMARK    1  A    between atoms: C4_7  and  C5_8 
REMARK    2  A    between atoms: C5_8  and  C6_9 
REMARK    3  A    between atoms: C6_9  and  N2_10 
REMARK    4  A    between atoms: C6_9  and  C7_14 
REMARK    5  A    between atoms: C7_14  and  N3_15 
REMARK    6  A    between atoms: N3_15  and  C8_17 
REMARK    7  A    between atoms: C12_27  and  N7_28 
ROOT
HETATM    1  N3  UNL     1      30.836  41.686  18.330  1.00  0.00    -0.372 N 
ATOM      2  H3  UNL     1      31.784  41.345  18.177  1.00  0.00     0.161 HD
ENDROOT
BRANCH   1   3
HETATM    3  C7  UNL     1      30.177  42.267  17.210  1.00  0.00     0.154 C 
BRANCH   3   4
HETATM    4  C6  UNL     1      29.985  41.268  16.069  1.00  0.00     0.205 C 
BRANCH   4   5
HETATM    5  C5  UNL     1      29.015  40.191  16.451  1.00  0.00     0.081 C 
BRANCH   5   6
HETATM    6  C4  UNL     1      29.488  38.853  15.949  1.00  0.00     0.043 A 
HETATM    7  C3  UNL     1      30.431  38.140  16.610  1.00  0.00     0.254 A 
HETATM    8  N1  UNL     1      30.914  36.929  16.307  1.00  0.00    -0.321 N 
HETATM    9  O1  UNL     1      30.964  38.649  17.665  1.00  0.00    -0.268 OA
HETATM   10  C2  UNL     1      30.566  36.161  15.279  1.00  0.00     0.051 A 
ATOM     11  H1  UNL     1      31.627  36.555  16.934  1.00  0.00     0.169 HD
HETATM   12  C1  UNL     1      31.182  34.808  15.041  1.00  0.00     0.076 C 
HETATM   13  S1  UNL     1      29.373  36.851  14.282  1.00  0.00    -0.062 SA
HETATM   14  C14 UNL     1      28.850  38.387  14.780  1.00  0.00     0.100 A 
HETATM   15  N9  UNL     1      27.883  39.187  14.148  1.00  0.00    -0.094 NA
ENDBRANCH   5   6
ENDBRANCH   4   5
BRANCH   4  16
HETATM   16  N2  UNL     1      29.671  41.935  14.846  1.00  0.00    -0.073 N 
ATOM     17  H23 UNL     1      28.705  41.748  14.575  1.00  0.00     0.274 HD
ATOM     18  H22 UNL     1      29.617  42.943  14.993  1.00  0.00     0.274 HD
ATOM     19  H21 UNL     1      30.304  41.720  14.076  1.00  0.00     0.274 HD
ENDBRANCH   4  16
ENDBRANCH   3   4
ENDBRANCH   1   3
BRANCH   1  20
HETATM   20  C8  UNL     1      30.356  41.547  19.520  1.00  0.00     0.132 A 
HETATM   21  N4  UNL     1      29.037  41.400  19.762  1.00  0.00    -0.337 N 
HETATM   22  C9  UNL     1      28.523  41.261  20.992  1.00  0.00     0.182 A 
ATOM     23  H4  UNL     1      28.398  41.394  18.968  1.00  0.00     0.168 HD
HETATM   24  N5  UNL     1      29.358  41.266  22.041  1.00  0.00    -0.349 N 
HETATM   25  C10 UNL     1      30.664  41.406  21.871  1.00  0.00     0.080 A 
ATOM     26  H5  UNL     1      28.982  41.161  22.983  1.00  0.00     0.166 HD
HETATM   27  C11 UNL     1      31.506  41.407  22.977  1.00  0.00     0.138 A 
HETATM   28  C13 UNL     1      31.209  41.550  20.623  1.00  0.00     0.121 A 
HETATM   29  N6  UNL     1      32.821  41.551  22.754  1.00  0.00    -0.200 N 
HETATM   30  C12 UNL     1      33.308  41.689  21.511  1.00  0.00     0.676 A 
ATOM     31  H6  UNL     1      33.463  41.557  23.546  1.00  0.00     0.183 HD
HETATM   32  N8  UNL     1      32.536  41.694  20.416  1.00  0.00    -0.186 N 
ATOM     33  H8  UNL     1      32.927  41.800  19.480  1.00  0.00     0.184 HD
BRANCH  30  34
HETATM   34  N7  UNL     1      34.582  41.824  21.369  1.00  0.00    -0.234 N 
ATOM     35  H72 UNL     1      35.200  41.188  21.873  1.00  0.00     0.174 HD
ATOM     36  H71 UNL     1      34.922  42.564  20.756  1.00  0.00     0.174 HD
ENDBRANCH  30  34
ENDBRANCH   1  20
TORSDOF 7
ENDMDL
MODEL 4
REMARK VINA RESULT: -7.026456776      2.182      3.172
REMARK  7 active torsions:
REMARK  status: ('A' for Active; 'I' for Inactive)
REMARK    1  A    between atoms: C4_7  and  C5_8 
REMARK    2  A    between atoms: C5_8  and  C6_9 
REMARK    3  A    between atoms: C6_9  and  N2_10 
REMARK    4  A    between atoms: C6_9  and  C7_14 
REMARK    5  A    between atoms: C7_14  and  N3_15 
REMARK    6  A    between atoms: N3_15  and  C8_17 
REMARK    7  A    between atoms: C12_27  and  N7_28 
ROOT
HETATM    1  N3  UNL     1      29.373  40.766  17.389  1.00  0.00    -0.372 N 
ATOM      2  H3  UNL     1      30.386  40.740  17.280  1.00  0.00     0.161 HD
ENDROOT
BRANCH   1   3
HETATM    3  C7  UNL     1      28.600  40.322  16.279  1.00  0.00     0.154 C 
BRANCH   3   4
HETATM    4  C6  UNL     1      29.261  39.160  15.539  1.00  0.00     0.205 C 
BRANCH   4   5
HETATM    5  C5  UNL     1      30.053  38.303  16.480  1.00  0.00     0.081 C 
BRANCH   5   6
HETATM    6  C4  UNL     1      31.446  38.084  15.949  1.00  0.00     0.043 A 
HETATM    7  C3  UNL     1      32.438  38.980  16.171  1.00  0.00     0.254 A 
HETATM    8  N1  UNL     1      33.720  38.900  15.800  1.00  0.00    -0.321 N 
HETATM    9  O1  UNL     1      32.161  40.063  16.809  1.00  0.00    -0.268 OA
HETATM   10  C2  UNL     1      34.300  37.911  15.126  1.00  0.00     0.051 A 
ATOM     11  H1  UNL     1      34.320  39.683  16.062  1.00  0.00     0.169 HD
HETATM   12  C1  UNL     1      35.762  37.932  14.764  1.00  0.00     0.076 C 
HETATM   13  S1  UNL     1      33.240  36.643  14.724  1.00  0.00    -0.062 SA
HETATM   14  C14 UNL     1      31.644  36.873  15.255  1.00  0.00     0.100 A 
HETATM   15  N9  UNL     1      30.563  35.995  15.062  1.00  0.00    -0.094 NA
ENDBRANCH   5   6
ENDBRANCH   4   5
BRANCH   4  16
HETATM   16  N2  UNL     1      28.312  38.443  14.749  1.00  0.00    -0.073 N 
ATOM     17  H23 UNL     1      27.656  39.087  14.307  1.00  0.00     0.274 HD
ATOM     18  H22 UNL     1      28.761  38.056  13.918  1.00  0.00     0.274 HD
ATOM     19  H21 UNL     1      27.810  37.715  15.256  1.00  0.00     0.274 HD
ENDBRANCH   4  16
ENDBRANCH   3   4
ENDBRANCH   1   3
BRANCH   1  20
HETATM   20  C8  UNL     1      28.923  41.197  18.519  1.00  0.00     0.132 A 
HETATM   21  N4  UNL     1      27.614  41.439  18.738  1.00  0.00    -0.337 N 
HETATM   22  C9  UNL     1      27.132  41.893  19.903  1.00  0.00     0.182 A 
ATOM     23  H4  UNL     1      26.957  41.268  17.978  1.00  0.00     0.168 HD
HETATM   24  N5  UNL     1      27.990  42.119  20.908  1.00  0.00    -0.349 N 
HETATM   25  C10 UNL     1      29.288  41.900  20.758  1.00  0.00     0.080 A 
ATOM     26  H5  UNL     1      27.638  42.464  21.802  1.00  0.00     0.166 HD
HETATM   27  C11 UNL     1      30.154  42.143  21.817  1.00  0.00     0.138 A 
HETATM   28  C13 UNL     1      29.800  41.437  19.576  1.00  0.00     0.121 A 
HETATM   29  N6  UNL     1      31.459  41.906  21.617  1.00  0.00    -0.200 N 
HETATM   30  C12 UNL     1      31.914  41.452  20.439  1.00  0.00     0.676 A 
ATOM     31  H6  UNL     1      32.119  42.075  22.375  1.00  0.00     0.183 HD
HETATM   32  N8  UNL     1      31.118  41.204  19.390  1.00  0.00    -0.186 N 
ATOM     33  H8  UNL     1      31.485  40.858  18.503  1.00  0.00     0.184 HD
BRANCH  30  34
HETATM   34  N7  UNL     1      33.181  41.246  20.315  1.00  0.00    -0.234 N 
ATOM     35  H72 UNL     1      33.557  40.336  20.581  1.00  0.00     0.174 HD
ATOM     36  H71 UNL     1      33.758  42.005  19.953  1.00  0.00     0.174 HD
ENDBRANCH  30  34
ENDBRANCH   1  20
TORSDOF 7
ENDMDL
MODEL 5
REMARK VINA RESULT: -6.984875579      2.794      5.023
REMARK  7 active torsions:
REMARK  status: ('A' for Active; 'I' for Inactive)
REMARK    1  A    between atoms: C4_7  and  C5_8 
REMARK    2  A    between atoms: C5_8  and  C6_9 
REMARK    3  A    between atoms: C6_9  and  N2_10 
REMARK    4  A    between atoms: C6_9  and  C7_14 
REMARK    5  A    between atoms: C7_14  and  N3_15 
REMARK    6  A    between atoms: N3_15  and  C8_17 
REMARK    7  A    between atoms: C12_27  and  N7_28 
ROOT
HETATM    1  N3  UNL     1      31.851  41.117  18.688  1.00  0.00    -0.372 N 
ATOM      2  H3  UNL     1      31.567  41.997  18.258  1.00  0.00     0.161 HD
ENDROOT
BRANCH   1   3
HETATM    3  C7  UNL     1      31.861  39.969  17.846  1.00  0.00     0.154 C 
BRANCH   3   4
HETATM    4  C6  UNL     1      30.461  39.592  17.363  1.00  0.00     0.205 C 
BRANCH   4   5
HETATM    5  C5  UNL     1      29.910  40.637  16.441  1.00  0.00     0.081 C 
BRANCH   5   6
HETATM    6  C4  UNL     1      28.502  40.999  16.836  1.00  0.00     0.043 A 
HETATM    7  C3  UNL     1      28.247  41.994  17.718  1.00  0.00     0.254 A 
HETATM    8  N1  UNL     1      27.057  42.450  18.128  1.00  0.00    -0.321 N 
HETATM    9  O1  UNL     1      29.239  42.606  18.264  1.00  0.00    -0.268 OA
HETATM   10  C2  UNL     1      25.859  42.015  17.750  1.00  0.00     0.051 A 
ATOM     11  H1  UNL     1      27.071  43.214  18.804  1.00  0.00     0.169 HD
HETATM   12  C1  UNL     1      24.582  42.611  18.283  1.00  0.00     0.076 C 
HETATM   13  S1  UNL     1      25.916  40.742  16.623  1.00  0.00    -0.062 SA
HETATM   14  C14 UNL     1      27.486  40.264  16.191  1.00  0.00     0.100 A 
HETATM   15  N9  UNL     1      27.830  39.242  15.288  1.00  0.00    -0.094 NA
ENDBRANCH   5   6
ENDBRANCH   4   5
BRANCH   4  16
HETATM   16  N2  UNL     1      30.437  38.267  16.831  1.00  0.00    -0.073 N 
ATOM     17  H23 UNL     1      30.017  37.621  17.500  1.00  0.00     0.274 HD
ATOM     18  H22 UNL     1      29.756  38.199  16.074  1.00  0.00     0.274 HD
ATOM     19  H21 UNL     1      31.346  37.922  16.525  1.00  0.00     0.274 HD
ENDBRANCH   4  16
ENDBRANCH   3   4
ENDBRANCH   1   3
BRANCH   1  20
HETATM   20  C8  UNL     1      32.164  41.159  19.939  1.00  0.00     0.132 A 
HETATM   21  N4  UNL     1      33.435  41.303  20.368  1.00  0.00    -0.337 N 
HETATM   22  C9  UNL     1      33.777  41.342  21.663  1.00  0.00     0.182 A 
ATOM     23  H4  UNL     1      34.174  41.387  19.671  1.00  0.00     0.168 HD
HETATM   24  N5  UNL     1      32.811  41.234  22.586  1.00  0.00    -0.349 N 
HETATM   25  C10 UNL     1      31.542  41.091  22.230  1.00  0.00     0.080 A 
ATOM     26  H5  UNL     1      33.055  41.262  23.576  1.00  0.00     0.166 HD
HETATM   27  C11 UNL     1      30.561  40.982  23.209  1.00  0.00     0.138 A 
HETATM   28  C13 UNL     1      31.172  41.048  20.913  1.00  0.00     0.121 A 
HETATM   29  N6  UNL     1      29.292  40.839  22.799  1.00  0.00    -0.200 N 
HETATM   30  C12 UNL     1      28.978  40.803  21.495  1.00  0.00     0.676 A 
ATOM     31  H6  UNL     1      28.550  40.756  23.494  1.00  0.00     0.183 HD
HETATM   32  N8  UNL     1      29.889  40.904  20.517  1.00  0.00    -0.186 N 
ATOM     33  H8  UNL     1      29.628  40.875  19.531  1.00  0.00     0.184 HD
BRANCH  30  34
HETATM   34  N7  UNL     1      27.738  40.664  21.171  1.00  0.00    -0.234 N 
ATOM     35  H72 UNL     1      27.439  40.960  20.243  1.00  0.00     0.174 HD
ATOM     36  H71 UNL     1      27.103  40.260  21.860  1.00  0.00     0.174 HD
ENDBRANCH  30  34
ENDBRANCH   1  20
TORSDOF 7
ENDMDL
