MODEL 1
REMARK VINA RESULT: -6.847585408      0.000      0.000
REMARK  2 active torsions:
REMARK  status: ('A' for Active; 'I' for Inactive)
REMARK    1  A    between atoms: N1_1  and  C1_4 
REMARK    2  A    between atoms: N5_16  and  O3_17 
ROOT
HETATM    1  C1  UNL     1      -0.096   7.337  12.142  1.00  0.00     0.680 A 
HETATM    2  N2  UNL     1       0.351   6.710  11.040  1.00  0.00    -0.154 N 
ATOM      3  H2  UNL     1       0.764   5.783  11.139  1.00  0.00     0.187 HD
HETATM    4  C2  UNL     1       0.278   7.255   9.805  1.00  0.00     0.290 A 
HETATM    5  O1  UNL     1       0.694   6.670   8.779  1.00  0.00    -0.265 OA
HETATM    6  C3  UNL     1      -0.272   8.495   9.668  1.00  0.00     0.154 A 
HETATM    7  N3  UNL     1      -0.352   9.052   8.443  1.00  0.00    -0.299 N 
ATOM      8  H3  UNL     1      -0.010   8.566   7.614  1.00  0.00     0.171 HD
HETATM    9  C4  UNL     1      -0.908  10.288   8.362  1.00  0.00     0.341 A 
HETATM   10  O2  UNL     1      -1.003  10.848   7.240  1.00  0.00    -0.245 OA
HETATM   11  N4  UNL     1      -1.362  10.936   9.450  1.00  0.00    -0.223 N 
ATOM     12  H4  UNL     1      -1.775  11.864   9.358  1.00  0.00     0.194 HD
HETATM   13  N5  UNL     1      -1.272  10.366  10.641  1.00  0.00    -0.139 N 
HETATM   14  C5  UNL     1      -0.730   9.137  10.802  1.00  0.00     0.199 A 
HETATM   15  N6  UNL     1      -0.641   8.560  12.030  1.00  0.00    -0.170 N 
ATOM     16  H6  UNL     1      -0.985   9.050  12.857  1.00  0.00     0.186 HD
ENDROOT
BRANCH   1  17
HETATM   17  N1  UNL     1      -0.001   6.764  13.311  1.00  0.00    -0.234 N 
ATOM     18  H12 UNL     1       0.429   7.260  14.092  1.00  0.00     0.174 HD
ATOM     19  H11 UNL     1      -0.354   5.818  13.453  1.00  0.00     0.174 HD
ENDBRANCH   1  17
BRANCH  13  20
HETATM   20  O3  UNL     1      -1.686  10.945  11.680  1.00  0.00    -0.266 OA
ATOM     21  H3  UNL     1      -1.514  11.865  11.836  1.00  0.00     0.247 HD
ENDBRANCH  13  20
TORSDOF 2
ENDMDL
MODEL 2
REMARK VINA RESULT: -6.664206154      2.382      2.412
REMARK  2 active torsions:
REMARK  status: ('A' for Active; 'I' for Inactive)
REMARK    1  A    between atoms: N1_1  and  C1_4 
REMARK    2  A    between atoms: N5_16  and  O3_17 
ROOT
HETATM    1  C1  UNL     1      -1.982   9.246  12.300  1.00  0.00     0.680 A 
HETATM    2  N2  UNL     1      -2.690   8.495  11.439  1.00  0.00    -0.154 N 
ATOM      3  H2  UNL     1      -3.287   7.757  11.811  1.00  0.00     0.187 HD
HETATM    4  C2  UNL     1      -2.644   8.674  10.100  1.00  0.00     0.290 A 
HETATM    5  O1  UNL     1      -3.304   7.974   9.298  1.00  0.00    -0.265 OA
HETATM    6  C3  UNL     1      -1.846   9.658   9.598  1.00  0.00     0.154 A 
HETATM    7  N3  UNL     1      -1.789   9.849   8.265  1.00  0.00    -0.299 N 
ATOM      8  H3  UNL     1      -2.331   9.273   7.621  1.00  0.00     0.171 HD
HETATM    9  C4  UNL     1      -0.979  10.843   7.817  1.00  0.00     0.341 A 
HETATM   10  O2  UNL     1      -0.894  11.058   6.581  1.00  0.00    -0.245 OA
HETATM   11  N4  UNL     1      -0.261  11.608   8.659  1.00  0.00    -0.223 N 
ATOM     12  H4  UNL     1       0.339  12.347   8.293  1.00  0.00     0.194 HD
HETATM   13  N5  UNL     1      -0.335  11.400   9.964  1.00  0.00    -0.139 N 
HETATM   14  C5  UNL     1      -1.120  10.429  10.485  1.00  0.00     0.199 A 
HETATM   15  N6  UNL     1      -1.189  10.222  11.828  1.00  0.00    -0.170 N 
ATOM     16  H6  UNL     1      -0.645  10.802  12.468  1.00  0.00     0.186 HD
ENDROOT
BRANCH   1  17
HETATM   17  N1  UNL     1      -2.064   9.031  13.586  1.00  0.00    -0.234 N 
ATOM     18  H12 UNL     1      -1.797   8.125  13.972  1.00  0.00     0.174 HD
ATOM     19  H11 UNL     1      -2.395   9.765  14.212  1.00  0.00     0.174 HD
ENDBRANCH   1  17
BRANCH  13  20
HETATM   20  O3  UNL     1       0.324  12.097  10.779  1.00  0.00    -0.266 OA
ATOM     21  H3  UNL     1       0.120  12.100  11.706  1.00  0.00     0.247 HD
ENDBRANCH  13  20
TORSDOF 2
ENDMDL
MODEL 3
REMARK VINA RESULT: -6.269335938      4.081      6.153
REMARK  2 active torsions:
REMARK  status: ('A' for Active; 'I' for Inactive)
REMARK    1  A    between atoms: N1_1  and  C1_4 
REMARK    2  A    between atoms: N5_16  and  O3_17 
ROOT
HETATM    1  C1  UNL     1      -1.630   8.904  12.692  1.00  0.00     0.680 A 
HETATM    2  N2  UNL     1      -1.432   7.636  12.290  1.00  0.00    -0.154 N 
ATOM      3  H2  UNL     1      -1.060   7.474  11.354  1.00  0.00     0.187 HD
HETATM    4  C2  UNL     1      -1.706   6.567  13.070  1.00  0.00     0.290 A 
HETATM    5  O1  UNL     1      -1.521   5.387  12.695  1.00  0.00    -0.265 OA
HETATM    6  C3  UNL     1      -2.205   6.780  14.321  1.00  0.00     0.154 A 
HETATM    7  N3  UNL     1      -2.483   5.725  15.111  1.00  0.00    -0.299 N 
ATOM      8  H3  UNL     1      -2.329   4.768  14.795  1.00  0.00     0.171 HD
HETATM    9  C4  UNL     1      -2.978   5.993  16.347  1.00  0.00     0.341 A 
HETATM   10  O2  UNL     1      -3.253   5.039  17.120  1.00  0.00    -0.245 OA
HETATM   11  N4  UNL     1      -3.185   7.251  16.772  1.00  0.00    -0.223 N 
ATOM     12  H4  UNL     1      -3.558   7.421  17.707  1.00  0.00     0.194 HD
HETATM   13  N5  UNL     1      -2.903   8.270  15.977  1.00  0.00    -0.139 N 
HETATM   14  C5  UNL     1      -2.407   8.084  14.732  1.00  0.00     0.199 A 
HETATM   15  N6  UNL     1      -2.121   9.137  13.921  1.00  0.00    -0.170 N 
ATOM     16  H6  UNL     1      -2.277  10.093  14.242  1.00  0.00     0.186 HD
ENDROOT
BRANCH   1  17
HETATM   17  N1  UNL     1      -1.348   9.900  11.897  1.00  0.00    -0.234 N 
ATOM     18  H12 UNL     1      -2.082  10.541  11.598  1.00  0.00     0.174 HD
ATOM     19  H11 UNL     1      -0.393  10.045  11.569  1.00  0.00     0.174 HD
ENDBRANCH   1  17
BRANCH  13  20
HETATM   20  O3  UNL     1      -3.085   9.461  16.343  1.00  0.00    -0.266 OA
ATOM     21  H3  UNL     1      -3.663  10.043  15.866  1.00  0.00     0.247 HD
ENDBRANCH  13  20
TORSDOF 2
ENDMDL
MODEL 4
REMARK VINA RESULT: -6.222866547      2.097      4.112
REMARK  2 active torsions:
REMARK  status: ('A' for Active; 'I' for Inactive)
REMARK    1  A    between atoms: N1_1  and  C1_4 
REMARK    2  A    between atoms: N5_16  and  O3_17 
ROOT
HETATM    1  C1  UNL     1      -0.555  10.726  10.378  1.00  0.00     0.680 A 
HETATM    2  N2  UNL     1      -1.682  10.539   9.670  1.00  0.00    -0.154 N 
ATOM      3  H2  UNL     1      -2.227  11.356   9.394  1.00  0.00     0.187 HD
HETATM    4  C2  UNL     1      -2.126   9.315   9.306  1.00  0.00     0.290 A 
HETATM    5  O1  UNL     1      -3.176   9.142   8.645  1.00  0.00    -0.265 OA
HETATM    6  C3  UNL     1      -1.402   8.220   9.673  1.00  0.00     0.154 A 
HETATM    7  N3  UNL     1      -1.831   6.993   9.318  1.00  0.00    -0.299 N 
ATOM      8  H3  UNL     1      -2.687   6.864   8.779  1.00  0.00     0.171 HD
HETATM    9  C4  UNL     1      -1.072   5.937   9.708  1.00  0.00     0.341 A 
HETATM   10  O2  UNL     1      -1.434   4.771   9.400  1.00  0.00    -0.245 OA
HETATM   11  N4  UNL     1       0.058   6.098  10.418  1.00  0.00    -0.223 N 
ATOM     12  H4  UNL     1       0.607   5.284  10.698  1.00  0.00     0.194 HD
HETATM   13  N5  UNL     1       0.458   7.314  10.753  1.00  0.00    -0.139 N 
HETATM   14  C5  UNL     1      -0.244   8.415  10.401  1.00  0.00     0.199 A 
HETATM   15  N6  UNL     1       0.175   9.661  10.751  1.00  0.00    -0.170 N 
ATOM     16  H6  UNL     1       1.032   9.785  11.290  1.00  0.00     0.186 HD
ENDROOT
BRANCH   1  17
HETATM   17  N1  UNL     1      -0.172  11.931  10.703  1.00  0.00    -0.234 N 
ATOM     18  H12 UNL     1      -0.793  12.541  11.234  1.00  0.00     0.174 HD
ATOM     19  H11 UNL     1       0.750  12.271  10.428  1.00  0.00     0.174 HD
ENDBRANCH   1  17
BRANCH  13  20
HETATM   20  O3  UNL     1       1.511   7.500  11.418  1.00  0.00    -0.266 OA
ATOM     21  H3  UNL     1       1.508   8.007  12.220  1.00  0.00     0.247 HD
ENDBRANCH  13  20
TORSDOF 2
ENDMDL
MODEL 5
REMARK VINA RESULT: -6.187314801      1.788      3.981
REMARK  2 active torsions:
REMARK  status: ('A' for Active; 'I' for Inactive)
REMARK    1  A    between atoms: N1_1  and  C1_4 
REMARK    2  A    between atoms: N5_16  and  O3_17 
ROOT
HETATM    1  C1  UNL     1      -0.517  10.653  10.056  1.00  0.00     0.680 A 
HETATM    2  N2  UNL     1      -0.064   9.671   9.258  1.00  0.00    -0.154 N 
ATOM      3  H2  UNL     1       0.334   9.922   8.353  1.00  0.00     0.187 HD
HETATM    4  C2  UNL     1      -0.112   8.364   9.601  1.00  0.00     0.290 A 
HETATM    5  O1  UNL     1       0.311   7.450   8.858  1.00  0.00    -0.265 OA
HETATM    6  C3  UNL     1      -0.644   8.025  10.810  1.00  0.00     0.154 A 
HETATM    7  N3  UNL     1      -0.699   6.727  11.168  1.00  0.00    -0.299 N 
ATOM      8  H3  UNL     1      -0.351   5.990  10.554  1.00  0.00     0.171 HD
HETATM    9  C4  UNL     1      -1.238   6.443  12.381  1.00  0.00     0.341 A 
HETATM   10  O2  UNL     1      -1.311   5.245  12.757  1.00  0.00    -0.245 OA
HETATM   11  N4  UNL     1      -1.698   7.408  13.197  1.00  0.00    -0.223 N 
ATOM     12  H4  UNL     1      -2.098   7.163  14.104  1.00  0.00     0.194 HD
HETATM   13  N5  UNL     1      -1.632   8.675  12.823  1.00  0.00    -0.139 N 
HETATM   14  C5  UNL     1      -1.109   9.036  11.629  1.00  0.00     0.199 A 
HETATM   15  N6  UNL     1      -1.045  10.341  11.252  1.00  0.00    -0.170 N 
ATOM     16  H6  UNL     1      -1.395  11.075  11.869  1.00  0.00     0.186 HD
ENDROOT
BRANCH   1  17
HETATM   17  N1  UNL     1      -0.446  11.900   9.674  1.00  0.00    -0.234 N 
ATOM     18  H12 UNL     1      -0.486  12.136   8.683  1.00  0.00     0.174 HD
ATOM     19  H11 UNL     1      -0.349  12.646  10.363  1.00  0.00     0.174 HD
ENDBRANCH   1  17
BRANCH  13  20
HETATM   20  O3  UNL     1      -2.054   9.602  13.562  1.00  0.00    -0.266 OA
ATOM     21  H3  UNL     1      -2.827  10.104  13.334  1.00  0.00     0.247 HD
ENDBRANCH  13  20
TORSDOF 2
ENDMDL
