MODEL 1
REMARK VINA RESULT: -7.123101587      0.000      0.000
REMARK  1 active torsions:
REMARK  status: ('A' for Active; 'I' for Inactive)
REMARK    1  A    between atoms: C3_7  and  N3_8 
REMARK       I    between atoms: N3_8  and  C4_10 
ROOT
HETATM    1  C1  UNL     1      -0.600   6.245  12.147  1.00  0.00     0.166 C 
HETATM    2  N1  UNL     1      -0.974   7.454  11.406  1.00  0.00    -0.255 N 
HETATM    3  C2  UNL     1      -1.330   8.567  12.075  1.00  0.00     0.344 A 
HETATM    4  O1  UNL     1      -1.339   8.559  13.313  1.00  0.00    -0.246 OA
HETATM    5  N2  UNL     1      -1.672   9.678  11.389  1.00  0.00    -0.140 N 
ATOM      6  H2  UNL     1      -1.941  10.519  11.900  1.00  0.00     0.189 HD
HETATM    7  C3  UNL     1      -1.666   9.692  10.048  1.00  0.00     0.692 A 
HETATM    8  N6  UNL     1      -1.306   8.570   9.399  1.00  0.00    -0.140 N 
ATOM      9  H6  UNL     1      -1.296   8.568   8.379  1.00  0.00     0.189 HD
HETATM   10  C5  UNL     1      -0.958   7.442  10.068  1.00  0.00     0.344 A 
HETATM   11  O2  UNL     1      -0.621   6.389   9.441  1.00  0.00    -0.246 OA
ENDROOT
BRANCH   7  12
HETATM   12  N3  UNL     1      -2.005  10.789   9.413  1.00  0.00    -0.163 N 
HETATM   13  C4  UNL     1      -1.140  11.372   8.449  1.00  0.00     0.200 C 
HETATM   14  N4  UNL     1      -0.540  12.458   8.753  1.00  0.00    -0.373 N 
HETATM   15  N5  UNL     1      -0.917  10.797   7.163  1.00  0.00    -0.063 NA
ATOM     16  H42 UNL     1      -0.699  12.869   9.672  1.00  0.00     0.158 HD
ATOM     17  H41 UNL     1       0.081  12.877   8.061  1.00  0.00     0.158 HD
ATOM     18  H3  UNL     1      -2.902  11.229   9.615  1.00  0.00     0.187 HD
ENDBRANCH   7  12
TORSDOF 1
ENDMDL
MODEL 2
REMARK VINA RESULT: -7.122669732      0.065      2.183
REMARK  1 active torsions:
REMARK  status: ('A' for Active; 'I' for Inactive)
REMARK    1  A    between atoms: C3_7  and  N3_8 
REMARK       I    between atoms: N3_8  and  C4_10 
ROOT
HETATM    1  C1  UNL     1      -0.520   6.240  12.104  1.00  0.00     0.166 C 
HETATM    2  N1  UNL     1      -0.921   7.464  11.403  1.00  0.00    -0.255 N 
HETATM    3  C2  UNL     1      -0.938   7.490  10.057  1.00  0.00     0.344 A 
HETATM    4  O1  UNL     1      -0.613   6.477   9.423  1.00  0.00    -0.246 OA
HETATM    5  N2  UNL     1      -1.307   8.617   9.415  1.00  0.00    -0.140 N 
ATOM      6  H2  UNL     1      -1.319   8.633   8.394  1.00  0.00     0.189 HD
HETATM    7  C3  UNL     1      -1.659   9.718  10.096  1.00  0.00     0.692 A 
HETATM    8  N6  UNL     1      -1.636   9.671  11.440  1.00  0.00    -0.140 N 
ATOM      9  H6  UNL     1      -1.903  10.501  11.971  1.00  0.00     0.189 HD
HETATM   10  C5  UNL     1      -1.268   8.548  12.107  1.00  0.00     0.344 A 
HETATM   11  O2  UNL     1      -1.251   8.519  13.377  1.00  0.00    -0.246 OA
ENDROOT
BRANCH   7  12
HETATM   12  N3  UNL     1      -2.013  10.797   9.441  1.00  0.00    -0.163 N 
HETATM   13  C4  UNL     1      -1.152  11.379   8.472  1.00  0.00     0.200 C 
HETATM   14  N4  UNL     1      -0.573  12.481   8.761  1.00  0.00    -0.373 N 
HETATM   15  N5  UNL     1      -0.910  10.786   7.198  1.00  0.00    -0.063 NA
ATOM     16  H42 UNL     1      -0.746  12.905   9.672  1.00  0.00     0.158 HD
ATOM     17  H41 UNL     1       0.045  12.898   8.066  1.00  0.00     0.158 HD
ATOM     18  H3  UNL     1      -2.919  11.225   9.629  1.00  0.00     0.187 HD
ENDBRANCH   7  12
TORSDOF 1
ENDMDL
MODEL 3
REMARK VINA RESULT: -6.661921911      1.114      1.114
REMARK  1 active torsions:
REMARK  status: ('A' for Active; 'I' for Inactive)
REMARK    1  A    between atoms: C3_7  and  N3_8 
REMARK       I    between atoms: N3_8  and  C4_10 
ROOT
HETATM    1  C1  UNL     1      -0.586   5.391  12.230  1.00  0.00     0.166 C 
HETATM    2  N1  UNL     1      -0.778   6.763  11.748  1.00  0.00    -0.255 N 
HETATM    3  C2  UNL     1      -0.921   7.769  12.631  1.00  0.00     0.344 A 
HETATM    4  O1  UNL     1      -0.887   7.526  13.845  1.00  0.00    -0.246 OA
HETATM    5  N2  UNL     1      -1.098   9.030  12.185  1.00  0.00    -0.140 N 
ATOM      6  H2  UNL     1      -1.205   9.790  12.857  1.00  0.00     0.189 HD
HETATM    7  C3  UNL     1      -1.136   9.300  10.871  1.00  0.00     0.692 A 
HETATM    8  N6  UNL     1      -0.991   8.280  10.006  1.00  0.00    -0.140 N 
ATOM      9  H6  UNL     1      -1.017   8.471   9.004  1.00  0.00     0.189 HD
HETATM   10  C5  UNL     1      -0.812   7.004  10.432  1.00  0.00     0.344 A 
HETATM   11  O2  UNL     1      -0.677   6.051   9.603  1.00  0.00    -0.246 OA
ENDROOT
BRANCH   7  12
HETATM   12  N3  UNL     1      -1.310  10.536  10.471  1.00  0.00    -0.163 N 
HETATM   13  C4  UNL     1      -0.347  11.181   9.649  1.00  0.00     0.200 C 
HETATM   14  N4  UNL     1       0.379  12.094  10.170  1.00  0.00    -0.373 N 
HETATM   15  N5  UNL     1      -0.161  10.852   8.275  1.00  0.00    -0.063 NA
ATOM     16  H42 UNL     1       0.246  12.329  11.154  1.00  0.00     0.158 HD
ATOM     17  H41 UNL     1       1.070  12.557   9.580  1.00  0.00     0.158 HD
ATOM     18  H3  UNL     1      -2.148  11.043  10.755  1.00  0.00     0.187 HD
ENDBRANCH   7  12
TORSDOF 1
ENDMDL
MODEL 4
REMARK VINA RESULT: -6.645443925      1.174      2.460
REMARK  1 active torsions:
REMARK  status: ('A' for Active; 'I' for Inactive)
REMARK    1  A    between atoms: C3_7  and  N3_8 
REMARK       I    between atoms: N3_8  and  C4_10 
ROOT
HETATM    1  C1  UNL     1      -0.580   5.382  12.392  1.00  0.00     0.166 C 
HETATM    2  N1  UNL     1      -0.784   6.750  11.905  1.00  0.00    -0.255 N 
HETATM    3  C2  UNL     1      -0.806   6.994  10.582  1.00  0.00     0.344 A 
HETATM    4  O1  UNL     1      -0.652   6.058   9.785  1.00  0.00    -0.246 OA
HETATM    5  N2  UNL     1      -0.994   8.254  10.137  1.00  0.00    -0.140 N 
ATOM      6  H2  UNL     1      -1.010   8.435   9.133  1.00  0.00     0.189 HD
HETATM    7  C3  UNL     1      -1.160   9.272  10.995  1.00  0.00     0.692 A 
HETATM    8  N6  UNL     1      -1.136   9.007  12.313  1.00  0.00    -0.140 N 
ATOM      9  H6  UNL     1      -1.262   9.772  12.977  1.00  0.00     0.189 HD
HETATM   10  C5  UNL     1      -0.948   7.747  12.782  1.00  0.00     0.344 A 
HETATM   11  O2  UNL     1      -0.927   7.512  14.031  1.00  0.00    -0.246 OA
ENDROOT
BRANCH   7  12
HETATM   12  N3  UNL     1      -1.341  10.485  10.529  1.00  0.00    -0.163 N 
HETATM   13  C4  UNL     1      -0.370  11.099   9.693  1.00  0.00     0.200 C 
HETATM   14  N4  UNL     1       0.336  12.046  10.181  1.00  0.00    -0.373 N 
HETATM   15  N5  UNL     1      -0.152  10.702   8.341  1.00  0.00    -0.063 NA
ATOM     16  H42 UNL     1       0.180  12.330  11.148  1.00  0.00     0.158 HD
ATOM     17  H41 UNL     1       1.033  12.487   9.581  1.00  0.00     0.158 HD
ATOM     18  H3  UNL     1      -2.191  10.994  10.770  1.00  0.00     0.187 HD
ENDBRANCH   7  12
TORSDOF 1
ENDMDL
MODEL 5
REMARK VINA RESULT: -6.558591335      1.158      2.570
REMARK  1 active torsions:
REMARK  status: ('A' for Active; 'I' for Inactive)
REMARK    1  A    between atoms: C3_7  and  N3_8 
REMARK       I    between atoms: N3_8  and  C4_10 
ROOT
HETATM    1  C1  UNL     1      -1.104   6.105  12.540  1.00  0.00     0.166 C 
HETATM    2  N1  UNL     1      -0.851   7.158  11.552  1.00  0.00    -0.255 N 
HETATM    3  C2  UNL     1      -0.466   6.828  10.305  1.00  0.00     0.344 A 
HETATM    4  O1  UNL     1      -0.328   5.635  10.003  1.00  0.00    -0.246 OA
HETATM    5  N2  UNL     1      -0.234   7.800   9.398  1.00  0.00    -0.140 N 
ATOM      6  H2  UNL     1       0.057   7.546   8.453  1.00  0.00     0.189 HD
HETATM    7  C3  UNL     1      -0.380   9.095   9.718  1.00  0.00     0.692 A 
HETATM    8  N6  UNL     1      -0.766   9.403  10.969  1.00  0.00    -0.140 N 
ATOM      9  H6  UNL     1      -0.882  10.383  11.227  1.00  0.00     0.189 HD
HETATM   10  C5  UNL     1      -1.005   8.442  11.898  1.00  0.00     0.344 A 
HETATM   11  O2  UNL     1      -1.368   8.748  13.076  1.00  0.00    -0.246 OA
ENDROOT
BRANCH   7  12
HETATM   12  N3  UNL     1      -0.147  10.014   8.813  1.00  0.00    -0.163 N 
HETATM   13  C4  UNL     1      -0.032  11.383   9.174  1.00  0.00     0.200 C 
HETATM   14  N4  UNL     1      -0.983  12.174   8.854  1.00  0.00    -0.373 N 
HETATM   15  N5  UNL     1       1.094  11.906   9.874  1.00  0.00    -0.063 NA
ATOM     16  H42 UNL     1      -1.789  11.800   8.353  1.00  0.00     0.158 HD
ATOM     17  H41 UNL     1      -0.902  13.157   9.113  1.00  0.00     0.158 HD
ATOM     18  H3  UNL     1      -0.046   9.742   7.835  1.00  0.00     0.187 HD
ENDBRANCH   7  12
TORSDOF 1
ENDMDL
