MODEL 1
REMARK VINA RESULT: -6.657335887      0.000      0.000
REMARK  1 active torsions:
REMARK  status: ('A' for Active; 'I' for Inactive)
REMARK       I    between atoms: N1_1  and  C1_4 
REMARK       I    between atoms: C1_4  and  N3_6 
REMARK    1  A    between atoms: N3_6  and  C2_8 
ROOT
HETATM    1  C2  UNL     1      -1.077   9.237  11.019  1.00  0.00     0.192 A 
HETATM    2  N4  UNL     1      -1.307  10.558  11.058  1.00  0.00    -0.277 N 
ATOM      3  H4  UNL     1      -1.937  10.965  11.748  1.00  0.00     0.189 HD
HETATM    4  N5  UNL     1      -0.685  11.312  10.167  1.00  0.00    -0.250 N 
ATOM      5  H5  UNL     1      -0.850  12.319  10.186  1.00  0.00     0.192 HD
HETATM    6  C3  UNL     1       0.149  10.825   9.240  1.00  0.00     0.341 A 
HETATM    7  O1  UNL     1       0.742  11.551   8.388  1.00  0.00    -0.245 OA
HETATM    8  N6  UNL     1       0.402   9.499   9.174  1.00  0.00    -0.271 N 
ATOM      9  H6  UNL     1       1.035   9.110   8.474  1.00  0.00     0.174 HD
HETATM   10  C4  UNL     1      -0.222   8.712  10.075  1.00  0.00     0.295 A 
HETATM   11  O2  UNL     1       0.021   7.465  10.007  1.00  0.00    -0.264 OA
ENDROOT
BRANCH   1  12
HETATM   12  N3  UNL     1      -1.649   8.450  11.858  1.00  0.00    -0.311 N 
HETATM   13  C1  UNL     1      -1.184   8.197  13.158  1.00  0.00     0.187 C 
HETATM   14  N1  UNL     1      -0.129   7.462  13.344  1.00  0.00    -0.373 N 
HETATM   15  N2  UNL     1      -1.815   8.713  14.328  1.00  0.00    -0.064 NA
ATOM     16  H12 UNL     1       0.209   7.279  14.289  1.00  0.00     0.158 HD
ATOM     17  H11 UNL     1       0.323   7.094  12.507  1.00  0.00     0.158 HD
ATOM     18  H3  UNL     1      -2.500   7.975  11.558  1.00  0.00     0.170 HD
ENDBRANCH   1  12
TORSDOF 1
ENDMDL
MODEL 2
REMARK VINA RESULT: -6.427447824      1.811      4.359
REMARK  1 active torsions:
REMARK  status: ('A' for Active; 'I' for Inactive)
REMARK       I    between atoms: N1_1  and  C1_4 
REMARK       I    between atoms: C1_4  and  N3_6 
REMARK    1  A    between atoms: N3_6  and  C2_8 
ROOT
HETATM    1  C2  UNL     1      -0.231   9.275  10.098  1.00  0.00     0.192 A 
HETATM    2  N4  UNL     1      -0.859   9.889  11.112  1.00  0.00    -0.277 N 
ATOM      3  H4  UNL     1      -0.971  10.903  11.129  1.00  0.00     0.189 HD
HETATM    4  N5  UNL     1      -1.326   9.130  12.089  1.00  0.00    -0.250 N 
ATOM      5  H5  UNL     1      -1.806   9.585  12.866  1.00  0.00     0.192 HD
HETATM    6  C3  UNL     1      -1.202   7.798  12.114  1.00  0.00     0.341 A 
HETATM    7  O1  UNL     1      -1.651   7.075  13.053  1.00  0.00    -0.245 OA
HETATM    8  N6  UNL     1      -0.575   7.148  11.107  1.00  0.00    -0.271 N 
ATOM      9  H6  UNL     1      -0.472   6.133  11.110  1.00  0.00     0.174 HD
HETATM   10  C4  UNL     1      -0.092   7.904  10.100  1.00  0.00     0.295 A 
HETATM   11  O2  UNL     1       0.497   7.287   9.156  1.00  0.00    -0.264 OA
ENDROOT
BRANCH   1  12
HETATM   12  N3  UNL     1       0.244   9.955   9.117  1.00  0.00    -0.311 N 
HETATM   13  C1  UNL     1      -0.494  10.869   8.349  1.00  0.00     0.187 C 
HETATM   14  N1  UNL     1      -1.374  10.444   7.493  1.00  0.00    -0.373 N 
HETATM   15  N2  UNL     1      -0.335  12.282   8.450  1.00  0.00    -0.064 NA
ATOM     16  H12 UNL     1      -1.910  11.109   6.935  1.00  0.00     0.158 HD
ATOM     17  H11 UNL     1      -1.488   9.433   7.421  1.00  0.00     0.158 HD
ATOM     18  H3  UNL     1       1.227   9.820   8.879  1.00  0.00     0.170 HD
ENDBRANCH   1  12
TORSDOF 1
ENDMDL
MODEL 3
REMARK VINA RESULT: -6.356692381      1.362      1.556
REMARK  1 active torsions:
REMARK  status: ('A' for Active; 'I' for Inactive)
REMARK       I    between atoms: N1_1  and  C1_4 
REMARK       I    between atoms: C1_4  and  N3_6 
REMARK    1  A    between atoms: N3_6  and  C2_8 
ROOT
HETATM    1  C2  UNL     1      -0.803   9.087  10.899  1.00  0.00     0.192 A 
HETATM    2  N4  UNL     1      -1.466  10.247  11.019  1.00  0.00    -0.277 N 
ATOM      3  H4  UNL     1      -1.649  10.659  11.934  1.00  0.00     0.189 HD
HETATM    4  N5  UNL     1      -1.874  10.835   9.907  1.00  0.00    -0.250 N 
ATOM      5  H5  UNL     1      -2.378  11.718   9.984  1.00  0.00     0.192 HD
HETATM    6  C3  UNL     1      -1.660  10.333   8.685  1.00  0.00     0.341 A 
HETATM    7  O1  UNL     1      -2.053  10.899   7.622  1.00  0.00    -0.245 OA
HETATM    8  N6  UNL     1      -0.996   9.166   8.529  1.00  0.00    -0.271 N 
ATOM      9  H6  UNL     1      -0.824   8.768   7.604  1.00  0.00     0.174 HD
HETATM   10  C4  UNL     1      -0.570   8.551   9.651  1.00  0.00     0.295 A 
HETATM   11  O2  UNL     1       0.055   7.453   9.498  1.00  0.00    -0.264 OA
ENDROOT
BRANCH   1  12
HETATM   12  N3  UNL     1      -0.379   8.466  11.941  1.00  0.00    -0.311 N 
HETATM   13  C1  UNL     1      -1.181   8.101  13.033  1.00  0.00     0.187 C 
HETATM   14  N1  UNL     1      -1.600   9.004  13.867  1.00  0.00    -0.373 N 
HETATM   15  N2  UNL     1      -1.582   6.758  13.294  1.00  0.00    -0.064 NA
ATOM     16  H12 UNL     1      -2.183   8.739  14.661  1.00  0.00     0.158 HD
ATOM     17  H11 UNL     1      -1.314   9.965  13.680  1.00  0.00     0.158 HD
ATOM     18  H3  UNL     1       0.610   8.222  11.977  1.00  0.00     0.170 HD
ENDBRANCH   1  12
TORSDOF 1
ENDMDL
MODEL 4
REMARK VINA RESULT: -6.352813142      1.600      4.241
REMARK  1 active torsions:
REMARK  status: ('A' for Active; 'I' for Inactive)
REMARK       I    between atoms: N1_1  and  C1_4 
REMARK       I    between atoms: C1_4  and  N3_6 
REMARK    1  A    between atoms: N3_6  and  C2_8 
ROOT
HETATM    1  C2  UNL     1      -0.644   9.342  10.558  1.00  0.00     0.192 A 
HETATM    2  N4  UNL     1      -1.194   9.524  11.768  1.00  0.00    -0.277 N 
ATOM      3  H4  UNL     1      -1.657  10.400  12.012  1.00  0.00     0.189 HD
HETATM    4  N5  UNL     1      -1.113   8.526  12.632  1.00  0.00    -0.250 N 
ATOM      5  H5  UNL     1      -1.528   8.651  13.555  1.00  0.00     0.192 HD
HETATM    6  C3  UNL     1      -0.515   7.360  12.359  1.00  0.00     0.341 A 
HETATM    7  O1  UNL     1      -0.439   6.407  13.191  1.00  0.00    -0.245 OA
HETATM    8  N6  UNL     1       0.050   7.145  11.150  1.00  0.00    -0.271 N 
ATOM      9  H6  UNL     1       0.510   6.262  10.925  1.00  0.00     0.174 HD
HETATM   10  C4  UNL     1      -0.023   8.150  10.254  1.00  0.00     0.295 A 
HETATM   11  O2  UNL     1       0.510   7.941   9.117  1.00  0.00    -0.264 OA
ENDROOT
BRANCH   1  12
HETATM   12  N3  UNL     1      -0.690  10.272   9.673  1.00  0.00    -0.311 N 
HETATM   13  C1  UNL     1       0.243  11.315   9.564  1.00  0.00     0.187 C 
HETATM   14  N1  UNL     1       0.248  12.282  10.431  1.00  0.00    -0.373 N 
HETATM   15  N2  UNL     1       1.220  11.385   8.528  1.00  0.00    -0.064 NA
ATOM     16  H12 UNL     1       0.926  13.040  10.352  1.00  0.00     0.158 HD
ATOM     17  H11 UNL     1      -0.451  12.232  11.173  1.00  0.00     0.158 HD
ATOM     18  H3  UNL     1      -1.458  10.252   9.003  1.00  0.00     0.170 HD
ENDBRANCH   1  12
TORSDOF 1
ENDMDL
MODEL 5
REMARK VINA RESULT: -6.322809677      2.451      3.227
REMARK  1 active torsions:
REMARK  status: ('A' for Active; 'I' for Inactive)
REMARK       I    between atoms: N1_1  and  C1_4 
REMARK       I    between atoms: C1_4  and  N3_6 
REMARK    1  A    between atoms: N3_6  and  C2_8 
ROOT
HETATM    1  C2  UNL     1      -0.619   9.064   9.921  1.00  0.00     0.192 A 
HETATM    2  N4  UNL     1      -1.524   8.156   9.526  1.00  0.00    -0.277 N 
ATOM      3  H4  UNL     1      -1.349   7.157   9.628  1.00  0.00     0.189 HD
HETATM    4  N5  UNL     1      -2.651   8.607   9.001  1.00  0.00    -0.250 N 
ATOM      5  H5  UNL     1      -3.348   7.927   8.698  1.00  0.00     0.192 HD
HETATM    6  C3  UNL     1      -2.925   9.908   8.845  1.00  0.00     0.341 A 
HETATM    7  O1  UNL     1      -4.006  10.335   8.340  1.00  0.00    -0.245 OA
HETATM    8  N6  UNL     1      -2.034  10.848   9.231  1.00  0.00    -0.271 N 
ATOM      9  H6  UNL     1      -2.226  11.844   9.120  1.00  0.00     0.174 HD
HETATM   10  C4  UNL     1      -0.878  10.409   9.771  1.00  0.00     0.295 A 
HETATM   11  O2  UNL     1      -0.044  11.299  10.134  1.00  0.00    -0.264 OA
ENDROOT
BRANCH   1  12
HETATM   12  N3  UNL     1       0.496   8.692  10.441  1.00  0.00    -0.311 N 
HETATM   13  C1  UNL     1       0.656   7.561  11.256  1.00  0.00     0.187 C 
HETATM   14  N1  UNL     1       0.207   7.564  12.475  1.00  0.00    -0.373 N 
HETATM   15  N2  UNL     1       1.302   6.367  10.819  1.00  0.00    -0.064 NA
ATOM     16  H12 UNL     1       0.323   6.742  13.068  1.00  0.00     0.158 HD
ATOM     17  H11 UNL     1      -0.255   8.418  12.788  1.00  0.00     0.158 HD
ATOM     18  H3  UNL     1       1.321   9.258  10.248  1.00  0.00     0.170 HD
ENDBRANCH   1  12
TORSDOF 1
ENDMDL
