MODEL 1
REMARK VINA RESULT: -6.229617050      0.000      0.000
REMARK  2 active torsions:
REMARK  status: ('A' for Active; 'I' for Inactive)
REMARK    1  A    between atoms: O1_2  and  C2_3 
REMARK    2  A    between atoms: C2_3  and  O2_4 
ROOT
HETATM    1  C2  UNL     1      -1.299   8.358  12.383  1.00  0.00     0.212 C 
HETATM    2  C3  UNL     1      -1.271   8.930  11.207  1.00  0.00     0.175 A 
HETATM    3  N1  UNL     1      -1.478  10.353  11.142  1.00  0.00    -0.277 N 
ATOM      4  H1  UNL     1      -1.644  10.913  11.978  1.00  0.00     0.188 HD
HETATM    5  N2  UNL     1      -1.439  10.920   9.869  1.00  0.00    -0.132 N 
ATOM      6  H2  UNL     1      -1.583  11.926   9.785  1.00  0.00     0.205 HD
HETATM    7  C4  UNL     1      -1.210  10.172   8.682  1.00  0.00     0.693 A 
HETATM    8  N3  UNL     1      -1.175  10.698   7.504  1.00  0.00    -0.233 N 
ATOM      9  H31 UNL     1      -1.011  10.161   6.653  1.00  0.00     0.174 HD
ATOM     10  H32 UNL     1      -1.320  11.706   7.447  1.00  0.00     0.174 HD
HETATM   11  N4  UNL     1      -1.006   8.762   8.762  1.00  0.00    -0.153 N 
ATOM     12  H4  UNL     1      -0.841   8.219   7.915  1.00  0.00     0.187 HD
HETATM   13  C5  UNL     1      -1.033   8.122  10.026  1.00  0.00     0.292 A 
HETATM   14  O3  UNL     1      -0.852   6.861  10.112  1.00  0.00    -0.265 OA
ENDROOT
BRANCH   1  15
HETATM   15  O1  UNL     1      -1.107   7.007  12.490  1.00  0.00    -0.334 OA
HETATM   16  C1  UNL     1      -1.631   6.206  13.515  1.00  0.00     0.212 C 
ENDBRANCH   1  15
BRANCH   1  17
HETATM   17  O2  UNL     1      -1.522   9.100  13.525  1.00  0.00    -0.339 OA
ATOM     18  H2  UNL     1      -2.188   9.778  13.517  1.00  0.00     0.220 HD
ENDBRANCH   1  17
TORSDOF 2
ENDMDL
MODEL 2
REMARK VINA RESULT: -6.013325067      1.767      1.991
REMARK  2 active torsions:
REMARK  status: ('A' for Active; 'I' for Inactive)
REMARK    1  A    between atoms: O1_2  and  C2_3 
REMARK    2  A    between atoms: C2_3  and  O2_4 
ROOT
HETATM    1  C2  UNL     1       0.358   7.324  11.680  1.00  0.00     0.212 C 
HETATM    2  C3  UNL     1      -0.270   8.253  11.005  1.00  0.00     0.175 A 
HETATM    3  N1  UNL     1      -0.997   9.251  11.743  1.00  0.00    -0.277 N 
ATOM      4  H1  UNL     1      -1.033   9.249  12.762  1.00  0.00     0.188 HD
HETATM    5  N2  UNL     1      -1.650  10.220  10.983  1.00  0.00    -0.132 N 
ATOM      6  H2  UNL     1      -2.177  10.943  11.473  1.00  0.00     0.205 HD
HETATM    7  C4  UNL     1      -1.621  10.255   9.562  1.00  0.00     0.693 A 
HETATM    8  N3  UNL     1      -2.226  11.153   8.860  1.00  0.00    -0.233 N 
ATOM      9  H31 UNL     1      -2.206  11.178   7.841  1.00  0.00     0.174 HD
ATOM     10  H32 UNL     1      -2.745  11.865   9.374  1.00  0.00     0.174 HD
HETATM   11  N4  UNL     1      -0.896   9.260   8.843  1.00  0.00    -0.153 N 
ATOM     12  H4  UNL     1      -0.871   9.278   7.824  1.00  0.00     0.187 HD
HETATM   13  C5  UNL     1      -0.209   8.244   9.555  1.00  0.00     0.292 A 
HETATM   14  O3  UNL     1       0.444   7.346   8.925  1.00  0.00    -0.265 OA
ENDROOT
BRANCH   1  15
HETATM   15  O1  UNL     1       1.062   6.355  11.017  1.00  0.00    -0.334 OA
HETATM   16  C1  UNL     1       1.683   5.259  11.633  1.00  0.00     0.212 C 
ENDBRANCH   1  15
BRANCH   1  17
HETATM   17  O2  UNL     1       0.320   7.305  13.060  1.00  0.00    -0.339 OA
ATOM     18  H2  UNL     1      -0.251   7.912  13.517  1.00  0.00     0.220 HD
ENDBRANCH   1  17
TORSDOF 2
ENDMDL
MODEL 3
REMARK VINA RESULT: -5.690216930      0.997      2.433
REMARK  2 active torsions:
REMARK  status: ('A' for Active; 'I' for Inactive)
REMARK    1  A    between atoms: O1_2  and  C2_3 
REMARK    2  A    between atoms: C2_3  and  O2_4 
ROOT
HETATM    1  C2  UNL     1      -0.668   6.791  10.855  1.00  0.00     0.212 C 
HETATM    2  C3  UNL     1      -0.832   7.988  10.356  1.00  0.00     0.175 A 
HETATM    3  N1  UNL     1      -0.557   8.181   8.956  1.00  0.00    -0.277 N 
ATOM      4  H1  UNL     1      -0.241   7.417   8.358  1.00  0.00     0.188 HD
HETATM    5  N2  UNL     1      -0.746   9.472   8.467  1.00  0.00    -0.132 N 
ATOM      6  H2  UNL     1      -0.559   9.646   7.479  1.00  0.00     0.205 HD
HETATM    7  C4  UNL     1      -1.185  10.561   9.270  1.00  0.00     0.693 A 
HETATM    8  N3  UNL     1      -1.359  11.756   8.815  1.00  0.00    -0.233 N 
ATOM      9  H31 UNL     1      -1.673  12.536   9.391  1.00  0.00     0.174 HD
ATOM     10  H32 UNL     1      -1.166  11.902   7.824  1.00  0.00     0.174 HD
HETATM   11  N4  UNL     1      -1.455  10.355  10.655  1.00  0.00    -0.153 N 
ATOM     12  H4  UNL     1      -1.769  11.131  11.237  1.00  0.00     0.187 HD
HETATM   13  C5  UNL     1      -1.282   9.065  11.217  1.00  0.00     0.292 A 
HETATM   14  O3  UNL     1      -1.520   8.867  12.456  1.00  0.00    -0.265 OA
ENDROOT
BRANCH   1  15
HETATM   15  O1  UNL     1      -0.919   6.564  12.182  1.00  0.00    -0.334 OA
HETATM   16  C1  UNL     1      -0.893   5.302  12.794  1.00  0.00     0.212 C 
ENDBRANCH   1  15
BRANCH   1  17
HETATM   17  O2  UNL     1      -0.241   5.745  10.061  1.00  0.00    -0.339 OA
ATOM     18  H2  UNL     1      -0.675   5.585   9.231  1.00  0.00     0.220 HD
ENDBRANCH   1  17
TORSDOF 2
ENDMDL
MODEL 4
REMARK VINA RESULT: -5.595414487      2.761      4.346
REMARK  2 active torsions:
REMARK  status: ('A' for Active; 'I' for Inactive)
REMARK    1  A    between atoms: O1_2  and  C2_3 
REMARK    2  A    between atoms: C2_3  and  O2_4 
ROOT
HETATM    1  C2  UNL     1      -1.085   9.778   9.979  1.00  0.00     0.212 C 
HETATM    2  C3  UNL     1      -0.672   8.852  10.807  1.00  0.00     0.175 A 
HETATM    3  N1  UNL     1      -1.084   8.944  12.183  1.00  0.00    -0.277 N 
ATOM      4  H1  UNL     1      -1.678   9.701  12.519  1.00  0.00     0.188 HD
HETATM    5  N2  UNL     1      -0.621   7.937  13.028  1.00  0.00    -0.132 N 
ATOM      6  H2  UNL     1      -0.892   7.970  14.011  1.00  0.00     0.205 HD
HETATM    7  C4  UNL     1       0.208   6.865  12.595  1.00  0.00     0.693 A 
HETATM    8  N3  UNL     1       0.635   5.934  13.379  1.00  0.00    -0.233 N 
ATOM      9  H31 UNL     1       1.229   5.166  13.069  1.00  0.00     0.174 HD
ATOM     10  H32 UNL     1       0.349   5.990  14.357  1.00  0.00     0.174 HD
HETATM   11  N4  UNL     1       0.607   6.787  11.228  1.00  0.00    -0.153 N 
ATOM     12  H4  UNL     1       1.201   6.022  10.910  1.00  0.00     0.187 HD
HETATM   13  C5  UNL     1       0.172   7.780  10.314  1.00  0.00     0.292 A 
HETATM   14  O3  UNL     1       0.521   7.722   9.088  1.00  0.00    -0.265 OA
ENDROOT
BRANCH   1  15
HETATM   15  O1  UNL     1      -0.717   9.728   8.661  1.00  0.00    -0.334 OA
HETATM   16  C1  UNL     1      -1.135  10.642   7.682  1.00  0.00     0.212 C 
ENDBRANCH   1  15
BRANCH   1  17
HETATM   17  O2  UNL     1      -1.889  10.811  10.417  1.00  0.00    -0.339 OA
ATOM     18  H2  UNL     1      -1.488  11.624  10.699  1.00  0.00     0.220 HD
ENDBRANCH   1  17
TORSDOF 2
ENDMDL
MODEL 5
REMARK VINA RESULT: -5.491848240      2.369      3.661
REMARK  2 active torsions:
REMARK  status: ('A' for Active; 'I' for Inactive)
REMARK    1  A    between atoms: O1_2  and  C2_3 
REMARK    2  A    between atoms: C2_3  and  O2_4 
ROOT
HETATM    1  C2  UNL     1       0.745   5.756   9.729  1.00  0.00     0.212 C 
HETATM    2  C3  UNL     1       0.242   6.942   9.961  1.00  0.00     0.175 A 
HETATM    3  N1  UNL     1      -0.224   7.710   8.836  1.00  0.00    -0.277 N 
ATOM      4  H1  UNL     1      -0.171   7.355   7.881  1.00  0.00     0.188 HD
HETATM    5  N2  UNL     1      -0.752   8.966   9.129  1.00  0.00    -0.132 N 
ATOM      6  H2  UNL     1      -1.092   9.538   8.356  1.00  0.00     0.205 HD
HETATM    7  C4  UNL     1      -0.843   9.493  10.447  1.00  0.00     0.693 A 
HETATM    8  N3  UNL     1      -1.332  10.656  10.716  1.00  0.00    -0.233 N 
ATOM      9  H31 UNL     1      -1.397  11.034  11.661  1.00  0.00     0.174 HD
ATOM     10  H32 UNL     1      -1.665  11.208   9.926  1.00  0.00     0.174 HD
HETATM   11  N4  UNL     1      -0.377   8.720  11.552  1.00  0.00    -0.153 N 
ATOM     12  H4  UNL     1      -0.438   9.091  12.500  1.00  0.00     0.187 HD
HETATM   13  C5  UNL     1       0.172   7.433  11.324  1.00  0.00     0.292 A 
HETATM   14  O3  UNL     1       0.593   6.731  12.303  1.00  0.00    -0.265 OA
ENDROOT
BRANCH   1  15
HETATM   15  O1  UNL     1       1.201   4.993  10.770  1.00  0.00    -0.334 OA
HETATM   16  C1  UNL     1       1.611   3.656  10.658  1.00  0.00     0.212 C 
ENDBRANCH   1  15
BRANCH   1  17
HETATM   17  O2  UNL     1       0.825   5.261   8.443  1.00  0.00    -0.339 OA
ATOM     18  H2  UNL     1       1.660   5.276   7.991  1.00  0.00     0.220 HD
ENDBRANCH   1  17
TORSDOF 2
ENDMDL
