MODEL 1
REMARK VINA RESULT: -6.927745432      0.000      0.000
REMARK  0 active torsions:
REMARK  status: ('A' for Active; 'I' for Inactive)
ROOT
HETATM    1  N1  UNL     1       0.261   6.679   9.290  1.00  0.00    -0.080 NA
HETATM    2  C1  UNL     1      -0.281   7.975   9.550  1.00  0.00     0.151 A 
HETATM    3  C2  UNL     1      -0.672   8.232  10.797  1.00  0.00     0.124 A 
HETATM    4  N2  UNL     1      -0.559   7.308  11.765  1.00  0.00    -0.302 N 
ATOM      5  H2  UNL     1      -0.180   6.371  11.630  1.00  0.00     0.171 HD
HETATM    6  C3  UNL     1      -1.016   7.790  12.942  1.00  0.00     0.326 A 
HETATM    7  O1  UNL     1      -1.050   7.176  14.044  1.00  0.00    -0.247 OA
HETATM    8  N3  UNL     1      -1.426   9.052  12.695  1.00  0.00    -0.291 N 
ATOM      9  H3  UNL     1      -1.826   9.687  13.386  1.00  0.00     0.172 HD
HETATM   10  C4  UNL     1      -1.223   9.346  11.381  1.00  0.00     0.154 A 
HETATM   11  N4  UNL     1      -1.512  10.479  10.831  1.00  0.00    -0.280 N 
ATOM     12  H4  UNL     1      -1.917  11.168  11.465  1.00  0.00     0.189 HD
HETATM   13  N5  UNL     1      -1.362  10.919   9.507  1.00  0.00    -0.250 N 
ATOM     14  H5  UNL     1      -1.626  11.886   9.320  1.00  0.00     0.192 HD
HETATM   15  C5  UNL     1      -0.886  10.176   8.398  1.00  0.00     0.340 A 
HETATM   16  O2  UNL     1      -0.970  10.769   7.312  1.00  0.00    -0.245 OA
HETATM   17  N6  UNL     1      -0.344   8.866   8.422  1.00  0.00    -0.294 N 
ATOM     18  H6  UNL     1       0.044   8.517   7.545  1.00  0.00     0.172 HD
ENDROOT
TORSDOF 0
ENDMDL
MODEL 2
REMARK VINA RESULT: -6.853630399      0.937      4.143
REMARK  0 active torsions:
REMARK  status: ('A' for Active; 'I' for Inactive)
ROOT
HETATM    1  N1  UNL     1       0.670   6.880   9.013  1.00  0.00    -0.080 NA
HETATM    2  C1  UNL     1       0.094   7.497  10.166  1.00  0.00     0.151 A 
HETATM    3  C2  UNL     1      -0.642   8.589   9.968  1.00  0.00     0.124 A 
HETATM    4  N2  UNL     1      -0.832   9.084   8.734  1.00  0.00    -0.302 N 
ATOM      5  H2  UNL     1      -0.444   8.681   7.882  1.00  0.00     0.171 HD
HETATM    6  C3  UNL     1      -1.610  10.189   8.778  1.00  0.00     0.326 A 
HETATM    7  O1  UNL     1      -1.975  10.890   7.794  1.00  0.00    -0.247 OA
HETATM    8  N3  UNL     1      -1.910  10.384  10.078  1.00  0.00    -0.291 N 
ATOM      9  H3  UNL     1      -2.486  11.144  10.443  1.00  0.00     0.172 HD
HETATM   10  C4  UNL     1      -1.325   9.410  10.830  1.00  0.00     0.154 A 
HETATM   11  N4  UNL     1      -1.425   9.318  12.114  1.00  0.00    -0.280 N 
ATOM     12  H4  UNL     1      -1.990  10.047  12.550  1.00  0.00     0.189 HD
HETATM   13  N5  UNL     1      -0.884   8.383  13.010  1.00  0.00    -0.250 N 
ATOM     14  H5  UNL     1      -1.143   8.495  13.990  1.00  0.00     0.192 HD
HETATM   15  C5  UNL     1      -0.020   7.299  12.712  1.00  0.00     0.340 A 
HETATM   16  O2  UNL     1       0.409   6.699  13.709  1.00  0.00    -0.245 OA
HETATM   17  N6  UNL     1       0.379   6.861  11.424  1.00  0.00    -0.294 N 
ATOM     18  H6  UNL     1       0.928   6.001  11.386  1.00  0.00     0.172 HD
ENDROOT
TORSDOF 0
ENDMDL
MODEL 3
REMARK VINA RESULT: -6.691351511      3.360      6.671
REMARK  0 active torsions:
REMARK  status: ('A' for Active; 'I' for Inactive)
ROOT
HETATM    1  N1  UNL     1      -2.629   9.606  15.987  1.00  0.00    -0.080 NA
HETATM    2  C1  UNL     1      -2.619   8.213  15.672  1.00  0.00     0.151 A 
HETATM    3  C2  UNL     1      -2.129   7.861  14.486  1.00  0.00     0.124 A 
HETATM    4  N2  UNL     1      -1.664   8.781  13.625  1.00  0.00    -0.302 N 
ATOM      5  H2  UNL     1      -1.649   9.785  13.803  1.00  0.00     0.171 HD
HETATM    6  C3  UNL     1      -1.218   8.194  12.492  1.00  0.00     0.326 A 
HETATM    7  O1  UNL     1      -0.722   8.777  11.489  1.00  0.00    -0.247 OA
HETATM    8  N3  UNL     1      -1.413   6.869  12.656  1.00  0.00    -0.291 N 
ATOM      9  H3  UNL     1      -1.178   6.150  11.971  1.00  0.00     0.172 HD
HETATM   10  C4  UNL     1      -1.972   6.640  13.877  1.00  0.00     0.154 A 
HETATM   11  N4  UNL     1      -2.280   5.472  14.333  1.00  0.00    -0.280 N 
ATOM     12  H4  UNL     1      -2.071   4.699  13.700  1.00  0.00     0.189 HD
HETATM   13  N5  UNL     1      -2.855   5.088  15.555  1.00  0.00    -0.250 N 
ATOM     14  H5  UNL     1      -2.964   4.086  15.706  1.00  0.00     0.192 HD
HETATM   15  C5  UNL     1      -3.302   5.931  16.602  1.00  0.00     0.340 A 
HETATM   16  O2  UNL     1      -3.885   5.337  17.522  1.00  0.00    -0.245 OA
HETATM   17  N6  UNL     1      -3.147   7.338  16.686  1.00  0.00    -0.294 N 
ATOM     18  H6  UNL     1      -3.441   7.778  17.558  1.00  0.00     0.172 HD
ENDROOT
TORSDOF 0
ENDMDL
MODEL 4
REMARK VINA RESULT: -6.581551537      1.827      2.340
REMARK  0 active torsions:
REMARK  status: ('A' for Active; 'I' for Inactive)
ROOT
HETATM    1  N1  UNL     1      -3.658   9.850   8.812  1.00  0.00    -0.080 NA
HETATM    2  C1  UNL     1      -2.288  10.086   9.140  1.00  0.00     0.151 A 
HETATM    3  C2  UNL     1      -1.807   9.476  10.221  1.00  0.00     0.124 A 
HETATM    4  N2  UNL     1      -2.583   8.673  10.968  1.00  0.00    -0.302 N 
ATOM      5  H2  UNL     1      -3.564   8.473  10.776  1.00  0.00     0.171 HD
HETATM    6  C3  UNL     1      -1.884   8.166  12.008  1.00  0.00     0.326 A 
HETATM    7  O1  UNL     1      -2.320   7.380  12.894  1.00  0.00    -0.247 OA
HETATM    8  N3  UNL     1      -0.638   8.671  11.903  1.00  0.00    -0.291 N 
ATOM      9  H3  UNL     1       0.133   8.477  12.543  1.00  0.00     0.172 HD
HETATM   10  C4  UNL     1      -0.566   9.480  10.809  1.00  0.00     0.154 A 
HETATM   11  N4  UNL     1       0.495  10.113  10.435  1.00  0.00    -0.280 N 
ATOM     12  H4  UNL     1       1.310   9.965  11.030  1.00  0.00     0.189 HD
HETATM   13  N5  UNL     1       0.714  10.971   9.346  1.00  0.00    -0.250 N 
ATOM     14  H5  UNL     1       1.665  11.322   9.232  1.00  0.00     0.192 HD
HETATM   15  C5  UNL     1      -0.233  11.408   8.386  1.00  0.00     0.340 A 
HETATM   16  O2  UNL     1       0.197  12.263   7.597  1.00  0.00    -0.245 OA
HETATM   17  N6  UNL     1      -1.574  10.968   8.254  1.00  0.00    -0.294 N 
ATOM     18  H6  UNL     1      -2.089  11.313   7.444  1.00  0.00     0.172 HD
ENDROOT
TORSDOF 0
ENDMDL
MODEL 5
REMARK VINA RESULT: -6.572895682      7.277      7.689
REMARK  0 active torsions:
REMARK  status: ('A' for Active; 'I' for Inactive)
ROOT
HETATM    1  N1  UNL     1      -3.342   3.077  14.640  1.00  0.00    -0.080 NA
HETATM    2  C1  UNL     1      -2.999   4.189  15.469  1.00  0.00     0.151 A 
HETATM    3  C2  UNL     1      -1.842   4.126  16.124  1.00  0.00     0.124 A 
HETATM    4  N2  UNL     1      -1.035   3.058  16.006  1.00  0.00    -0.302 N 
ATOM      5  H2  UNL     1      -1.234   2.242  15.430  1.00  0.00     0.171 HD
HETATM    6  C3  UNL     1       0.078   3.216  16.758  1.00  0.00     0.326 A 
HETATM    7  O1  UNL     1       1.032   2.397  16.868  1.00  0.00    -0.247 OA
HETATM    8  N3  UNL     1      -0.044   4.417  17.359  1.00  0.00    -0.291 N 
ATOM      9  H3  UNL     1       0.638   4.829  17.997  1.00  0.00     0.172 HD
HETATM   10  C4  UNL     1      -1.218   4.996  16.983  1.00  0.00     0.154 A 
HETATM   11  N4  UNL     1      -1.626   6.153  17.387  1.00  0.00    -0.280 N 
ATOM     12  H4  UNL     1      -0.991   6.627  18.030  1.00  0.00     0.189 HD
HETATM   13  N5  UNL     1      -2.798   6.866  17.089  1.00  0.00    -0.250 N 
ATOM     14  H5  UNL     1      -2.878   7.795  17.503  1.00  0.00     0.192 HD
HETATM   15  C5  UNL     1      -3.883   6.446  16.281  1.00  0.00     0.340 A 
HETATM   16  O2  UNL     1      -4.851   7.222  16.282  1.00  0.00    -0.245 OA
HETATM   17  N6  UNL     1      -3.955   5.264  15.501  1.00  0.00    -0.294 N 
ATOM     18  H6  UNL     1      -4.773   5.165  14.899  1.00  0.00     0.172 HD
ENDROOT
TORSDOF 0
ENDMDL
