MODEL 1
REMARK VINA RESULT: -4.034104618      0.000      0.000
REMARK  2 active torsions:
REMARK  status: ('A' for Active; 'I' for Inactive)
REMARK    1  A    between atoms: C6_6  and  O1_7 
REMARK    2  A    between atoms: C12_16  and  O4_17 
ROOT
HETATM    1  C1  UNL     1       0.103  19.158  -7.037  1.00  0.00     0.016 C 
HETATM    2  C2  UNL     1       0.373  17.921  -7.922  1.00  0.00    -0.031 C 
HETATM    3  C3  UNL     1      -0.868  17.204  -8.160  1.00  0.00     0.010 C 
HETATM    4  C4  UNL     1      -1.250  16.498  -6.850  1.00  0.00     0.003 C 
HETATM    5  C5  UNL     1      -0.811  15.081  -6.963  1.00  0.00     0.034 C 
HETATM    6  C6  UNL     1       0.646  14.860  -6.731  1.00  0.00     0.147 C 
HETATM    7  C7  UNL     1       1.531  15.700  -7.613  1.00  0.00     0.158 C 
HETATM    8  O2  UNL     1       1.258  15.401  -8.918  1.00  0.00    -0.350 OA
HETATM    9  C8  UNL     1       2.114  16.066  -9.751  1.00  0.00     0.289 C 
HETATM   10  O3  UNL     1       3.384  16.213  -9.269  1.00  0.00    -0.358 OA
HETATM   11  C9  UNL     1       3.604  17.268  -8.445  1.00  0.00     0.176 C 
HETATM   12  C10 UNL     1       2.438  18.006  -7.949  1.00  0.00     0.024 C 
HETATM   13  C11 UNL     1       1.345  18.258  -8.959  1.00  0.00     0.034 C 
HETATM   14  C12 UNL     1       1.479  17.394 -10.134  1.00  0.00     0.178 C 
HETATM   15  C13 UNL     1       1.454  17.110  -7.220  1.00  0.00     0.032 C 
ENDROOT
BRANCH   6  16
HETATM   16  O1  UNL     1       1.014  14.970  -5.392  1.00  0.00    -0.393 OA
ATOM     17  H1  UNL     1       1.918  15.234  -5.271  1.00  0.00     0.210 HD
ENDBRANCH   6  16
BRANCH  14  18
HETATM   18  O4  UNL     1       0.350  17.218 -10.902  1.00  0.00    -0.390 OA
ATOM     19  H4  UNL     1       0.157  17.986 -11.428  1.00  0.00     0.210 HD
ENDBRANCH  14  18
TORSDOF 2
ENDMDL
MODEL 2
REMARK VINA RESULT: -3.907940484      1.409      3.874
REMARK  2 active torsions:
REMARK  status: ('A' for Active; 'I' for Inactive)
REMARK    1  A    between atoms: C6_6  and  O1_7 
REMARK    2  A    between atoms: C12_16  and  O4_17 
ROOT
HETATM    1  C1  UNL     1      -0.576  17.730  -8.346  1.00  0.00     0.016 C 
HETATM    2  C2  UNL     1       0.469  16.695  -7.877  1.00  0.00    -0.031 C 
HETATM    3  C3  UNL     1       1.473  17.347  -7.053  1.00  0.00     0.010 C 
HETATM    4  C4  UNL     1       2.355  18.192  -7.984  1.00  0.00     0.003 C 
HETATM    5  C5  UNL     1       3.589  17.408  -8.262  1.00  0.00     0.034 C 
HETATM    6  C6  UNL     1       3.427  16.334  -9.285  1.00  0.00     0.147 C 
HETATM    7  C7  UNL     1       2.315  15.369  -8.976  1.00  0.00     0.158 C 
HETATM    8  O2  UNL     1       2.573  14.774  -7.773  1.00  0.00    -0.350 OA
HETATM    9  C8  UNL     1       1.640  13.813  -7.504  1.00  0.00     0.289 C 
HETATM   10  O3  UNL     1       1.195  13.124  -8.596  1.00  0.00    -0.358 OA
HETATM   11  C9  UNL     1       0.187  13.692  -9.304  1.00  0.00     0.176 C 
HETATM   12  C10 UNL     1      -0.169  15.081  -8.998  1.00  0.00     0.024 C 
HETATM   13  C11 UNL     1      -0.196  15.441  -7.533  1.00  0.00     0.034 C 
HETATM   14  C12 UNL     1       0.506  14.450  -6.715  1.00  0.00     0.178 C 
HETATM   15  C13 UNL     1       1.012  16.023  -9.131  1.00  0.00     0.032 C 
ENDROOT
BRANCH   6  16
HETATM   16  O1  UNL     1       3.326  16.824 -10.586  1.00  0.00    -0.393 OA
ATOM     17  H1  UNL     1       3.328  16.141 -11.246  1.00  0.00     0.210 HD
ENDBRANCH   6  16
BRANCH  14  18
HETATM   18  O4  UNL     1       0.919  14.860  -5.467  1.00  0.00    -0.390 OA
ATOM     19  H4  UNL     1       0.251  14.711  -4.807  1.00  0.00     0.210 HD
ENDBRANCH  14  18
TORSDOF 2
ENDMDL
MODEL 3
REMARK VINA RESULT: -3.897056721      1.392      3.940
REMARK  2 active torsions:
REMARK  status: ('A' for Active; 'I' for Inactive)
REMARK    1  A    between atoms: C6_6  and  O1_7 
REMARK    2  A    between atoms: C12_16  and  O4_17 
ROOT
HETATM    1  C1  UNL     1       0.519  18.780  -8.258  1.00  0.00     0.016 C 
HETATM    2  C2  UNL     1       0.990  17.454  -7.622  1.00  0.00    -0.031 C 
HETATM    3  C3  UNL     1       2.426  17.492  -7.406  1.00  0.00     0.010 C 
HETATM    4  C4  UNL     1       3.102  17.367  -8.781  1.00  0.00     0.003 C 
HETATM    5  C5  UNL     1       3.511  15.946  -8.947  1.00  0.00     0.034 C 
HETATM    6  C6  UNL     1       2.407  15.020  -9.334  1.00  0.00     0.147 C 
HETATM    7  C7  UNL     1       1.228  15.065  -8.400  1.00  0.00     0.158 C 
HETATM    8  O2  UNL     1       1.649  14.722  -7.146  1.00  0.00    -0.350 OA
HETATM    9  C8  UNL     1       0.589  14.647  -6.288  1.00  0.00     0.289 C 
HETATM   10  O3  UNL     1      -0.565  14.172  -6.842  1.00  0.00    -0.358 OA
HETATM   11  C9  UNL     1      -1.345  15.074  -7.489  1.00  0.00     0.176 C 
HETATM   12  C10 UNL     1      -0.784  16.402  -7.754  1.00  0.00     0.024 C 
HETATM   13  C11 UNL     1       0.017  17.010  -6.628  1.00  0.00     0.034 C 
HETATM   14  C12 UNL     1       0.404  16.008  -5.633  1.00  0.00     0.178 C 
HETATM   15  C13 UNL     1       0.512  16.337  -8.540  1.00  0.00     0.032 C 
ENDROOT
BRANCH   6  16
HETATM   16  O1  UNL     1       2.008  15.164 -10.661  1.00  0.00    -0.393 OA
ATOM     17  H1  UNL     1       1.708  16.041 -10.871  1.00  0.00     0.210 HD
ENDBRANCH   6  16
BRANCH  14  18
HETATM   18  O4  UNL     1       1.463  16.330  -4.813  1.00  0.00    -0.390 OA
ATOM     19  H4  UNL     1       1.942  17.085  -5.134  1.00  0.00     0.210 HD
ENDBRANCH  14  18
TORSDOF 2
ENDMDL
MODEL 4
REMARK VINA RESULT: -3.880549036      2.032      3.330
REMARK  2 active torsions:
REMARK  status: ('A' for Active; 'I' for Inactive)
REMARK    1  A    between atoms: C6_6  and  O1_7 
REMARK    2  A    between atoms: C12_16  and  O4_17 
ROOT
HETATM    1  C1  UNL     1       1.123  16.552  -6.367  1.00  0.00     0.016 C 
HETATM    2  C2  UNL     1       1.634  16.875  -7.788  1.00  0.00    -0.031 C 
HETATM    3  C3  UNL     1       1.711  18.314  -7.969  1.00  0.00     0.010 C 
HETATM    4  C4  UNL     1       0.273  18.841  -8.093  1.00  0.00     0.003 C 
HETATM    5  C5  UNL     1      -0.013  19.019  -9.542  1.00  0.00     0.034 C 
HETATM    6  C6  UNL     1      -0.343  17.760 -10.272  1.00  0.00     0.147 C 
HETATM    7  C7  UNL     1       0.702  16.686 -10.126  1.00  0.00     0.158 C 
HETATM    8  O2  UNL     1       1.888  17.161 -10.613  1.00  0.00    -0.350 OA
HETATM    9  C8  UNL     1       2.839  16.180 -10.595  1.00  0.00     0.289 C 
HETATM   10  O3  UNL     1       2.373  14.924 -10.861  1.00  0.00    -0.358 OA
HETATM   11  C9  UNL     1       1.856  14.233  -9.815  1.00  0.00     0.176 C 
HETATM   12  C10 UNL     1       1.614  14.960  -8.564  1.00  0.00     0.024 C 
HETATM   13  C11 UNL     1       2.690  15.937  -8.158  1.00  0.00     0.034 C 
HETATM   14  C12 UNL     1       3.585  16.257  -9.272  1.00  0.00     0.178 C 
HETATM   15  C13 UNL     1       0.705  16.158  -8.758  1.00  0.00     0.032 C 
ENDROOT
BRANCH   6  16
HETATM   16  O1  UNL     1      -1.615  17.272  -9.980  1.00  0.00    -0.393 OA
ATOM     17  H1  UNL     1      -1.780  16.411 -10.345  1.00  0.00     0.210 HD
ENDBRANCH   6  16
BRANCH  14  18
HETATM   18  O4  UNL     1       4.315  17.420  -9.163  1.00  0.00    -0.390 OA
ATOM     19  H4  UNL     1       4.706  17.512  -8.301  1.00  0.00     0.210 HD
ENDBRANCH  14  18
TORSDOF 2
ENDMDL
MODEL 5
REMARK VINA RESULT: -3.829771910      1.205      2.078
REMARK  2 active torsions:
REMARK  status: ('A' for Active; 'I' for Inactive)
REMARK    1  A    between atoms: C6_6  and  O1_7 
REMARK    2  A    between atoms: C12_16  and  O4_17 
ROOT
HETATM    1  C1  UNL     1       3.621  17.998  -7.703  1.00  0.00     0.016 C 
HETATM    2  C2  UNL     1       2.400  17.348  -8.390  1.00  0.00    -0.031 C 
HETATM    3  C3  UNL     1       1.208  18.136  -8.127  1.00  0.00     0.010 C 
HETATM    4  C4  UNL     1       0.821  17.910  -6.657  1.00  0.00     0.003 C 
HETATM    5  C5  UNL     1      -0.264  16.893  -6.634  1.00  0.00     0.034 C 
HETATM    6  C6  UNL     1       0.199  15.483  -6.796  1.00  0.00     0.147 C 
HETATM    7  C7  UNL     1       1.029  15.259  -8.031  1.00  0.00     0.158 C 
HETATM    8  O2  UNL     1       0.281  15.589  -9.127  1.00  0.00    -0.350 OA
HETATM    9  C8  UNL     1       0.962  15.300 -10.276  1.00  0.00     0.289 C 
HETATM   10  O3  UNL     1       1.741  14.180 -10.215  1.00  0.00    -0.358 OA
HETATM   11  C9  UNL     1       2.985  14.332  -9.694  1.00  0.00     0.176 C 
HETATM   12  C10 UNL     1       3.298  15.599  -9.024  1.00  0.00     0.024 C 
HETATM   13  C11 UNL     1       2.783  16.843  -9.705  1.00  0.00     0.034 C 
HETATM   14  C12 UNL     1       1.747  16.535 -10.693  1.00  0.00     0.178 C 
HETATM   15  C13 UNL     1       2.336  15.910  -7.894  1.00  0.00     0.032 C 
ENDROOT
BRANCH   6  16
HETATM   16  O1  UNL     1       0.831  14.978  -5.662  1.00  0.00    -0.393 OA
ATOM     17  H1  UNL     1       1.144  14.088  -5.771  1.00  0.00     0.210 HD
ENDBRANCH   6  16
BRANCH  14  18
HETATM   18  O4  UNL     1       0.916  17.570 -11.060  1.00  0.00    -0.390 OA
ATOM     19  H4  UNL     1       0.004  17.371 -10.883  1.00  0.00     0.210 HD
ENDBRANCH  14  18
TORSDOF 2
ENDMDL
