MODEL 1
REMARK VINA RESULT: -4.026607924      0.000      0.000
REMARK  3 active torsions:
REMARK  status: ('A' for Active; 'I' for Inactive)
REMARK    1  A    between atoms: O1_2  and  C2_3 
REMARK    2  A    between atoms: C5_6  and  O2_7 
REMARK    3  A    between atoms: C10_13  and  O3_14 
ROOT
HETATM    1  C2  UNL     1       2.689  16.630  -9.071  1.00  0.00     0.171 C 
HETATM    2  C3  UNL     1       2.541  15.137  -9.049  1.00  0.00     0.072 C 
HETATM    3  C4  UNL     1       1.940  14.725  -7.745  1.00  0.00     0.044 C 
HETATM    4  C5  UNL     1       1.334  15.970  -7.202  1.00  0.00     0.068 C 
HETATM    5  C6  UNL     1       0.174  16.506  -8.036  1.00  0.00     0.051 C 
HETATM    6  C7  UNL     1       0.929  17.809  -8.115  1.00  0.00     0.000 C 
HETATM    7  C8  UNL     1       0.419  18.905  -7.278  1.00  0.00     0.015 C 
HETATM    8  C9  UNL     1      -0.896  19.344  -7.905  1.00  0.00     0.032 C 
HETATM    9  C10 UNL     1      -0.770  19.689  -9.350  1.00  0.00     0.120 C 
HETATM   10  C11 UNL     1      -0.011  18.696 -10.171  1.00  0.00     0.064 C 
HETATM   11  C12 UNL     1       1.255  18.284  -9.508  1.00  0.00     0.137 C 
HETATM   12  O4  UNL     1       1.878  17.198 -10.049  1.00  0.00    -0.348 OA
HETATM   13  C13 UNL     1       2.163  17.085  -7.729  1.00  0.00     0.093 C 
ENDROOT
BRANCH   1  14
HETATM   14  O1  UNL     1       4.015  16.962  -9.201  1.00  0.00    -0.359 OA
HETATM   15  C1  UNL     1       4.743  16.115  -9.994  1.00  0.00     0.205 C 
ENDBRANCH   1  14
BRANCH   4  16
HETATM   16  O2  UNL     1       1.110  16.003  -5.833  1.00  0.00    -0.389 OA
ATOM     17  H2  UNL     1       0.202  16.033  -5.553  1.00  0.00     0.210 HD
ENDBRANCH   4  16
BRANCH   9  18
HETATM   18  O3  UNL     1      -2.074  19.769  -9.875  1.00  0.00    -0.395 OA
ATOM     19  H3  UNL     1      -2.676  19.579  -9.164  1.00  0.00     0.210 HD
ENDBRANCH   9  18
TORSDOF 3
ENDMDL
MODEL 2
REMARK VINA RESULT: -3.960017763      1.831      5.109
REMARK  3 active torsions:
REMARK  status: ('A' for Active; 'I' for Inactive)
REMARK    1  A    between atoms: O1_2  and  C2_3 
REMARK    2  A    between atoms: C5_6  and  O2_7 
REMARK    3  A    between atoms: C10_13  and  O3_14 
ROOT
HETATM    1  C2  UNL     1       1.574  16.260  -7.570  1.00  0.00     0.171 C 
HETATM    2  C3  UNL     1       0.165  16.477  -8.040  1.00  0.00     0.072 C 
HETATM    3  C4  UNL     1       0.172  17.455  -9.169  1.00  0.00     0.044 C 
HETATM    4  C5  UNL     1       1.580  17.468  -9.646  1.00  0.00     0.068 C 
HETATM    5  C6  UNL     1       2.037  16.143 -10.251  1.00  0.00     0.051 C 
HETATM    6  C7  UNL     1       3.171  16.166  -9.256  1.00  0.00     0.000 C 
HETATM    7  C8  UNL     1       4.497  16.506  -9.793  1.00  0.00     0.015 C 
HETATM    8  C9  UNL     1       4.933  15.317 -10.636  1.00  0.00     0.032 C 
HETATM    9  C10 UNL     1       4.889  14.024  -9.895  1.00  0.00     0.120 C 
HETATM   10  C11 UNL     1       3.634  13.786  -9.119  1.00  0.00     0.064 C 
HETATM   11  C12 UNL     1       3.238  14.981  -8.326  1.00  0.00     0.137 C 
HETATM   12  O4  UNL     1       1.981  14.950  -7.799  1.00  0.00    -0.348 OA
HETATM   13  C13 UNL     1       2.411  17.154  -8.455  1.00  0.00     0.093 C 
ENDROOT
BRANCH   1  14
HETATM   14  O1  UNL     1       1.688  16.646  -6.257  1.00  0.00    -0.359 OA
HETATM   15  C1  UNL     1       0.532  16.551  -5.529  1.00  0.00     0.205 C 
ENDBRANCH   1  14
BRANCH   4  16
HETATM   16  O2  UNL     1       1.981  18.586 -10.363  1.00  0.00    -0.389 OA
ATOM     17  H2  UNL     1       1.656  19.424 -10.056  1.00  0.00     0.210 HD
ENDBRANCH   4  16
BRANCH   9  18
HETATM   18  O3  UNL     1       5.005  12.994 -10.847  1.00  0.00    -0.395 OA
ATOM     19  H3  UNL     1       5.739  13.211 -11.410  1.00  0.00     0.210 HD
ENDBRANCH   9  18
TORSDOF 3
ENDMDL
MODEL 3
REMARK VINA RESULT: -3.931800369      1.744      3.432
REMARK  3 active torsions:
REMARK  status: ('A' for Active; 'I' for Inactive)
REMARK    1  A    between atoms: O1_2  and  C2_3 
REMARK    2  A    between atoms: C5_6  and  O2_7 
REMARK    3  A    between atoms: C10_13  and  O3_14 
ROOT
HETATM    1  C2  UNL     1       1.911  15.263  -8.413  1.00  0.00     0.171 C 
HETATM    2  C3  UNL     1       3.368  15.393  -8.746  1.00  0.00     0.072 C 
HETATM    3  C4  UNL     1       3.579  16.641  -9.540  1.00  0.00     0.044 C 
HETATM    4  C5  UNL     1       2.358  17.453  -9.292  1.00  0.00     0.068 C 
HETATM    5  C6  UNL     1       2.205  17.910  -7.844  1.00  0.00     0.051 C 
HETATM    6  C7  UNL     1       0.847  17.254  -7.859  1.00  0.00     0.000 C 
HETATM    7  C8  UNL     1      -0.309  18.159  -7.934  1.00  0.00     0.015 C 
HETATM    8  C9  UNL     1      -0.389  18.862  -6.587  1.00  0.00     0.032 C 
HETATM    9  C10 UNL     1      -0.431  17.917  -5.434  1.00  0.00     0.120 C 
HETATM   10  C11 UNL     1       0.583  16.819  -5.484  1.00  0.00     0.064 C 
HETATM   11  C12 UNL     1       0.638  16.177  -6.824  1.00  0.00     0.137 C 
HETATM   12  O4  UNL     1       1.702  15.353  -7.040  1.00  0.00    -0.348 OA
HETATM   13  C13 UNL     1       1.267  16.475  -9.047  1.00  0.00     0.093 C 
ENDROOT
BRANCH   1  14
HETATM   14  O1  UNL     1       1.410  14.112  -8.968  1.00  0.00    -0.359 OA
HETATM   15  C1  UNL     1       0.676  14.296 -10.109  1.00  0.00     0.205 C 
ENDBRANCH   1  14
BRANCH   4  16
HETATM   16  O2  UNL     1       2.067  18.434 -10.229  1.00  0.00    -0.389 OA
ATOM     17  H2  UNL     1       2.200  19.334  -9.955  1.00  0.00     0.210 HD
ENDBRANCH   4  16
BRANCH   9  18
HETATM   18  O3  UNL     1      -0.189  18.670  -4.270  1.00  0.00    -0.395 OA
ATOM     19  H3  UNL     1      -0.848  19.353  -4.234  1.00  0.00     0.210 HD
ENDBRANCH   9  18
TORSDOF 3
ENDMDL
MODEL 4
REMARK VINA RESULT: -3.924861799      1.551      4.717
REMARK  3 active torsions:
REMARK  status: ('A' for Active; 'I' for Inactive)
REMARK    1  A    between atoms: O1_2  and  C2_3 
REMARK    2  A    between atoms: C5_6  and  O2_7 
REMARK    3  A    between atoms: C10_13  and  O3_14 
ROOT
HETATM    1  C2  UNL     1       0.989  17.277  -9.947  1.00  0.00     0.171 C 
HETATM    2  C3  UNL     1       0.983  18.613  -9.266  1.00  0.00     0.072 C 
HETATM    3  C4  UNL     1       1.204  18.416  -7.801  1.00  0.00     0.044 C 
HETATM    4  C5  UNL     1       1.775  17.048  -7.690  1.00  0.00     0.068 C 
HETATM    5  C6  UNL     1       3.150  16.899  -8.335  1.00  0.00     0.051 C 
HETATM    6  C7  UNL     1       2.566  15.770  -9.145  1.00  0.00     0.000 C 
HETATM    7  C8  UNL     1       2.959  14.412  -8.741  1.00  0.00     0.015 C 
HETATM    8  C9  UNL     1       4.423  14.259  -9.125  1.00  0.00     0.032 C 
HETATM    9  C10 UNL     1       4.689  14.568 -10.560  1.00  0.00     0.120 C 
HETATM   10  C11 UNL     1       4.062  15.831 -11.058  1.00  0.00     0.064 C 
HETATM   11  C12 UNL     1       2.638  15.943 -10.641  1.00  0.00     0.137 C 
HETATM   12  O4  UNL     1       2.065  17.167 -10.822  1.00  0.00    -0.348 OA
HETATM   13  C13 UNL     1       1.212  16.282  -8.832  1.00  0.00     0.093 C 
ENDROOT
BRANCH   1  14
HETATM   14  O1  UNL     1      -0.226  17.057 -10.547  1.00  0.00    -0.359 OA
HETATM   15  C1  UNL     1      -1.065  16.224  -9.856  1.00  0.00     0.205 C 
ENDBRANCH   1  14
BRANCH   4  16
HETATM   16  O2  UNL     1       1.659  16.428  -6.454  1.00  0.00    -0.389 OA
ATOM     17  H2  UNL     1       1.576  15.481  -6.461  1.00  0.00     0.210 HD
ENDBRANCH   4  16
BRANCH   9  18
HETATM   18  O3  UNL     1       6.082  14.696 -10.707  1.00  0.00    -0.395 OA
ATOM     19  H3  UNL     1       6.266  14.730 -11.639  1.00  0.00     0.210 HD
ENDBRANCH   9  18
TORSDOF 3
ENDMDL
MODEL 5
REMARK VINA RESULT: -3.808839251      1.920      4.306
REMARK  3 active torsions:
REMARK  status: ('A' for Active; 'I' for Inactive)
REMARK    1  A    between atoms: O1_2  and  C2_3 
REMARK    2  A    between atoms: C5_6  and  O2_7 
REMARK    3  A    between atoms: C10_13  and  O3_14 
ROOT
HETATM    1  C2  UNL     1       0.631  15.126  -6.952  1.00  0.00     0.171 C 
HETATM    2  C3  UNL     1      -0.801  15.364  -7.330  1.00  0.00     0.072 C 
HETATM    3  C4  UNL     1      -1.072  16.833  -7.320  1.00  0.00     0.044 C 
HETATM    4  C5  UNL     1       0.274  17.462  -7.378  1.00  0.00     0.068 C 
HETATM    5  C6  UNL     1       1.024  17.193  -8.680  1.00  0.00     0.051 C 
HETATM    6  C7  UNL     1       2.148  16.650  -7.833  1.00  0.00     0.000 C 
HETATM    7  C8  UNL     1       3.332  17.511  -7.699  1.00  0.00     0.015 C 
HETATM    8  C9  UNL     1       4.020  17.505  -9.055  1.00  0.00     0.032 C 
HETATM    9  C10 UNL     1       4.320  16.133  -9.556  1.00  0.00     0.120 C 
HETATM   10  C11 UNL     1       3.187  15.163  -9.448  1.00  0.00     0.064 C 
HETATM   11  C12 UNL     1       2.535  15.220  -8.113  1.00  0.00     0.137 C 
HETATM   12  O4  UNL     1       1.341  14.568  -8.011  1.00  0.00    -0.348 OA
HETATM   13  C13 UNL     1       1.194  16.507  -6.709  1.00  0.00     0.093 C 
ENDROOT
BRANCH   1  14
HETATM   14  O1  UNL     1       0.688  14.378  -5.802  1.00  0.00    -0.359 OA
HETATM   15  C1  UNL     1       0.571  13.026  -5.991  1.00  0.00     0.205 C 
ENDBRANCH   1  14
BRANCH   4  16
HETATM   16  O2  UNL     1       0.364  18.773  -6.933  1.00  0.00    -0.389 OA
ATOM     17  H2  UNL     1       0.942  19.348  -7.423  1.00  0.00     0.210 HD
ENDBRANCH   4  16
BRANCH   9  18
HETATM   18  O3  UNL     1       4.655  16.249 -10.917  1.00  0.00    -0.395 OA
ATOM     19  H3  UNL     1       4.473  15.411 -11.325  1.00  0.00     0.210 HD
ENDBRANCH   9  18
TORSDOF 3
ENDMDL
