MODEL 1
REMARK VINA RESULT: -4.173504167      0.000      0.000
REMARK  2 active torsions:
REMARK  status: ('A' for Active; 'I' for Inactive)
REMARK    1  A    between atoms: C7_8  and  O2_9 
REMARK    2  A    between atoms: C11_14  and  O3_15 
ROOT
HETATM    1  C1  UNL     1      -0.093  16.974  -5.187  1.00  0.00     0.040 C 
HETATM    2  C2  UNL     1       0.461  16.131  -6.321  1.00  0.00     0.128 C 
HETATM    3  O1  UNL     1       1.819  16.423  -6.546  1.00  0.00    -0.368 OA
HETATM    4  C3  UNL     1       1.547  16.440  -7.887  1.00  0.00     0.126 C 
HETATM    5  C4  UNL     1       1.943  17.764  -8.582  1.00  0.00     0.160 C 
HETATM    6  C5  UNL     1       3.401  17.640  -8.623  1.00  0.00     0.045 C 
HETATM    7  C6  UNL     1       3.620  16.131  -8.711  1.00  0.00     0.054 C 
HETATM    8  C7  UNL     1       4.469  15.707  -9.836  1.00  0.00     0.125 C 
HETATM    9  C8  UNL     1       4.149  14.232 -10.115  1.00  0.00     0.032 C 
HETATM   10  C9  UNL     1       3.632  13.554  -8.859  1.00  0.00     0.006 C 
HETATM   11  C10 UNL     1       2.286  14.094  -8.431  1.00  0.00     0.042 C 
HETATM   12  C11 UNL     1       2.205  15.521  -8.787  1.00  0.00     0.098 C 
HETATM   13  O4  UNL     1       1.353  18.640  -7.743  1.00  0.00    -0.382 OA
HETATM   14  C12 UNL     1       0.014  18.167  -7.757  1.00  0.00     0.178 C 
HETATM   15  C13 UNL     1       0.136  16.634  -7.704  1.00  0.00     0.078 C 
ENDROOT
BRANCH   8  16
HETATM   16  O2  UNL     1       4.273  16.474 -10.980  1.00  0.00    -0.395 OA
ATOM     17  H2  UNL     1       4.001  15.956 -11.730  1.00  0.00     0.210 HD
ENDBRANCH   8  16
BRANCH  12  18
HETATM   18  O3  UNL     1       1.783  15.750 -10.101  1.00  0.00    -0.386 OA
ATOM     19  H3  UNL     1       1.796  14.938 -10.593  1.00  0.00     0.210 HD
ENDBRANCH  12  18
TORSDOF 2
ENDMDL
MODEL 2
REMARK VINA RESULT: -3.886764027      1.921      2.163
REMARK  2 active torsions:
REMARK  status: ('A' for Active; 'I' for Inactive)
REMARK    1  A    between atoms: C7_8  and  O2_9 
REMARK    2  A    between atoms: C11_14  and  O3_15 
ROOT
HETATM    1  C1  UNL     1      -2.541  17.090  -7.765  1.00  0.00     0.040 C 
HETATM    2  C2  UNL     1      -1.405  16.925  -8.758  1.00  0.00     0.128 C 
HETATM    3  O1  UNL     1      -0.253  16.425  -8.124  1.00  0.00    -0.368 OA
HETATM    4  C3  UNL     1       0.475  17.359  -8.810  1.00  0.00     0.126 C 
HETATM    5  C4  UNL     1       1.313  18.285  -7.896  1.00  0.00     0.160 C 
HETATM    6  C5  UNL     1       2.387  17.383  -7.483  1.00  0.00     0.045 C 
HETATM    7  C6  UNL     1       2.525  16.435  -8.672  1.00  0.00     0.054 C 
HETATM    8  C7  UNL     1       3.890  16.334  -9.212  1.00  0.00     0.125 C 
HETATM    9  C8  UNL     1       3.771  15.831 -10.658  1.00  0.00     0.032 C 
HETATM   10  C9  UNL     1       2.495  15.028 -10.837  1.00  0.00     0.006 C 
HETATM   11  C10 UNL     1       1.257  15.884 -10.697  1.00  0.00     0.042 C 
HETATM   12  C11 UNL     1       1.521  16.956  -9.722  1.00  0.00     0.098 C 
HETATM   13  O4  UNL     1       0.355  18.657  -7.022  1.00  0.00    -0.382 OA
HETATM   14  C12 UNL     1      -0.628  19.178  -7.904  1.00  0.00     0.178 C 
HETATM   15  C13 UNL     1      -0.661  18.194  -9.086  1.00  0.00     0.078 C 
ENDROOT
BRANCH   8  16
HETATM   16  O2  UNL     1       4.578  17.543  -9.171  1.00  0.00    -0.395 OA
ATOM     17  H2  UNL     1       4.697  17.929 -10.031  1.00  0.00     0.210 HD
ENDBRANCH   8  16
BRANCH  12  18
HETATM   18  O3  UNL     1       2.134  18.084 -10.279  1.00  0.00    -0.386 OA
ATOM     19  H3  UNL     1       1.627  18.399 -11.017  1.00  0.00     0.210 HD
ENDBRANCH  12  18
TORSDOF 2
ENDMDL
MODEL 3
REMARK VINA RESULT: -3.808764297      1.799      4.721
REMARK  2 active torsions:
REMARK  status: ('A' for Active; 'I' for Inactive)
REMARK    1  A    between atoms: C7_8  and  O2_9 
REMARK    2  A    between atoms: C11_14  and  O3_15 
ROOT
HETATM    1  C1  UNL     1       4.928  15.327 -10.052  1.00  0.00     0.040 C 
HETATM    2  C2  UNL     1       3.622  16.018 -10.400  1.00  0.00     0.128 C 
HETATM    3  O1  UNL     1       3.309  17.007  -9.449  1.00  0.00    -0.368 OA
HETATM    4  C3  UNL     1       2.024  16.538  -9.449  1.00  0.00     0.126 C 
HETATM    5  C4  UNL     1       1.515  16.124  -8.048  1.00  0.00     0.160 C 
HETATM    6  C5  UNL     1       1.306  17.430  -7.422  1.00  0.00     0.045 C 
HETATM    7  C6  UNL     1       0.954  18.331  -8.604  1.00  0.00     0.054 C 
HETATM    8  C7  UNL     1      -0.306  19.075  -8.445  1.00  0.00     0.125 C 
HETATM    9  C8  UNL     1      -0.786  19.464  -9.850  1.00  0.00     0.032 C 
HETATM   10  C9  UNL     1       0.390  19.558 -10.805  1.00  0.00     0.006 C 
HETATM   11  C10 UNL     1       1.035  18.212 -11.051  1.00  0.00     0.042 C 
HETATM   12  C11 UNL     1       0.924  17.395  -9.831  1.00  0.00     0.098 C 
HETATM   13  O4  UNL     1       2.541  15.336  -7.664  1.00  0.00    -0.382 OA
HETATM   14  C12 UNL     1       2.587  14.411  -8.741  1.00  0.00     0.178 C 
HETATM   15  C13 UNL     1       2.379  15.262 -10.005  1.00  0.00     0.078 C 
ENDROOT
BRANCH   8  16
HETATM   16  O2  UNL     1      -1.285  18.344  -7.779  1.00  0.00    -0.395 OA
ATOM     17  H2  UNL     1      -1.226  18.422  -6.834  1.00  0.00     0.210 HD
ENDBRANCH   8  16
BRANCH  12  18
HETATM   18  O3  UNL     1      -0.285  16.700  -9.727  1.00  0.00    -0.386 OA
ATOM     19  H3  UNL     1      -0.489  16.275 -10.551  1.00  0.00     0.210 HD
ENDBRANCH  12  18
TORSDOF 2
ENDMDL
MODEL 4
REMARK VINA RESULT: -3.790691625      1.738      5.200
REMARK  2 active torsions:
REMARK  status: ('A' for Active; 'I' for Inactive)
REMARK    1  A    between atoms: C7_8  and  O2_9 
REMARK    2  A    between atoms: C11_14  and  O3_15 
ROOT
HETATM    1  C1  UNL     1       4.123  16.884  -9.158  1.00  0.00     0.040 C 
HETATM    2  C2  UNL     1       2.758  17.464  -8.835  1.00  0.00     0.128 C 
HETATM    3  O1  UNL     1       2.524  17.455  -7.448  1.00  0.00    -0.368 OA
HETATM    4  C3  UNL     1       1.267  16.979  -7.708  1.00  0.00     0.126 C 
HETATM    5  C4  UNL     1       0.949  15.646  -6.992  1.00  0.00     0.160 C 
HETATM    6  C5  UNL     1       0.766  16.099  -5.613  1.00  0.00     0.045 C 
HETATM    7  C6  UNL     1       0.237  17.522  -5.780  1.00  0.00     0.054 C 
HETATM    8  C7  UNL     1      -1.022  17.789  -5.067  1.00  0.00     0.125 C 
HETATM    9  C8  UNL     1      -1.684  18.995  -5.748  1.00  0.00     0.032 C 
HETATM   10  C9  UNL     1      -0.637  19.866  -6.418  1.00  0.00     0.006 C 
HETATM   11  C10 UNL     1       0.026  19.168  -7.585  1.00  0.00     0.042 C 
HETATM   12  C11 UNL     1       0.097  17.724  -7.303  1.00  0.00     0.098 C 
HETATM   13  O4  UNL     1       2.044  14.940  -7.341  1.00  0.00    -0.382 OA
HETATM   14  C12 UNL     1       1.996  15.052  -8.756  1.00  0.00     0.178 C 
HETATM   15  C13 UNL     1       1.603  16.514  -9.025  1.00  0.00     0.078 C 
ENDROOT
BRANCH   8  16
HETATM   16  O2  UNL     1      -1.884  16.696  -5.065  1.00  0.00    -0.395 OA
ATOM     17  H2  UNL     1      -1.440  15.876  -4.882  1.00  0.00     0.210 HD
ENDBRANCH   8  16
BRANCH  12  18
HETATM   18  O3  UNL     1      -1.062  17.025  -7.656  1.00  0.00    -0.386 OA
ATOM     19  H3  UNL     1      -0.868  16.393  -8.337  1.00  0.00     0.210 HD
ENDBRANCH  12  18
TORSDOF 2
ENDMDL
MODEL 5
REMARK VINA RESULT: -3.789469212      1.602      2.611
REMARK  2 active torsions:
REMARK  status: ('A' for Active; 'I' for Inactive)
REMARK    1  A    between atoms: C7_8  and  O2_9 
REMARK    2  A    between atoms: C11_14  and  O3_15 
ROOT
HETATM    1  C1  UNL     1      -0.582  19.534  -7.107  1.00  0.00     0.040 C 
HETATM    2  C2  UNL     1       0.672  18.703  -7.313  1.00  0.00     0.128 C 
HETATM    3  O1  UNL     1       0.692  18.135  -8.601  1.00  0.00    -0.368 OA
HETATM    4  C3  UNL     1       1.086  16.957  -8.026  1.00  0.00     0.126 C 
HETATM    5  C4  UNL     1       0.156  15.765  -8.354  1.00  0.00     0.160 C 
HETATM    6  C5  UNL     1       0.515  15.499  -9.747  1.00  0.00     0.045 C 
HETATM    7  C6  UNL     1       1.979  15.928  -9.819  1.00  0.00     0.054 C 
HETATM    8  C7  UNL     1       2.888  14.897 -10.346  1.00  0.00     0.125 C 
HETATM    9  C8  UNL     1       4.300  15.241  -9.853  1.00  0.00     0.032 C 
HETATM   10  C9  UNL     1       4.422  16.731  -9.590  1.00  0.00     0.006 C 
HETATM   11  C10 UNL     1       3.563  17.178  -8.428  1.00  0.00     0.042 C 
HETATM   12  C11 UNL     1       2.348  16.348  -8.381  1.00  0.00     0.098 C 
HETATM   13  O4  UNL     1      -1.033  16.323  -8.047  1.00  0.00    -0.382 OA
HETATM   14  C12 UNL     1      -0.801  16.735  -6.708  1.00  0.00     0.178 C 
HETATM   15  C13 UNL     1       0.622  17.320  -6.716  1.00  0.00     0.078 C 
ENDROOT
BRANCH   8  16
HETATM   16  O2  UNL     1       2.533  13.611  -9.951  1.00  0.00    -0.395 OA
ATOM     17  H2  UNL     1       3.161  13.222  -9.353  1.00  0.00     0.210 HD
ENDBRANCH   8  16
BRANCH  12  18
HETATM   18  O3  UNL     1       2.514  15.147  -7.685  1.00  0.00    -0.386 OA
ATOM     19  H3  UNL     1       3.412  15.064  -7.387  1.00  0.00     0.210 HD
ENDBRANCH  12  18
TORSDOF 2
ENDMDL
