MODEL 1
REMARK VINA RESULT: -4.030473989      0.000      0.000
REMARK  2 active torsions:
REMARK  status: ('A' for Active; 'I' for Inactive)
REMARK    1  A    between atoms: O1_1  and  C1_3 
REMARK    2  A    between atoms: C13_17  and  O4_18 
ROOT
HETATM    1  C1  UNL     1       3.382  16.799  -8.744  1.00  0.00     0.149 C 
HETATM    2  C2  UNL     1       2.665  17.312  -7.568  1.00  0.00     0.037 C 
HETATM    3  C3  UNL     1       1.548  18.258  -7.818  1.00  0.00     0.040 C 
HETATM    4  C4  UNL     1       0.172  17.583  -7.674  1.00  0.00     0.061 C 
HETATM    5  C5  UNL     1      -0.732  18.169  -8.692  1.00  0.00     0.038 C 
HETATM    6  C6  UNL     1      -1.611  19.277  -8.183  1.00  0.00     0.003 C 
HETATM    7  C7  UNL     1      -0.951  20.095  -7.100  1.00  0.00     0.000 C 
HETATM    8  C8  UNL     1      -0.534  19.258  -5.938  1.00  0.00     0.003 C 
HETATM    9  C9  UNL     1      -0.379  17.822  -6.279  1.00  0.00     0.038 C 
HETATM   10  O2  UNL     1       0.424  16.251  -7.783  1.00  0.00    -0.378 OA
HETATM   11  C10 UNL     1      -0.607  15.414  -7.995  1.00  0.00     0.195 C 
HETATM   12  C11 UNL     1      -0.309  14.678  -9.310  1.00  0.00     0.193 C 
HETATM   13  O3  UNL     1       0.524  15.465 -10.110  1.00  0.00    -0.386 OA
HETATM   14  C12 UNL     1       1.859  15.238  -9.902  1.00  0.00     0.201 C 
HETATM   15  C13 UNL     1       2.590  16.578  -9.978  1.00  0.00     0.170 C 
ENDROOT
BRANCH   1  16
HETATM   16  O1  UNL     1       4.487  17.612  -9.082  1.00  0.00    -0.393 OA
ATOM     17  H1  UNL     1       5.310  17.213  -8.826  1.00  0.00     0.210 HD
ENDBRANCH   1  16
BRANCH  15  18
HETATM   18  O4  UNL     1       3.505  16.498 -11.056  1.00  0.00    -0.391 OA
ATOM     19  H4  UNL     1       4.370  16.374 -10.683  1.00  0.00     0.210 HD
ENDBRANCH  15  18
TORSDOF 2
ENDMDL
MODEL 2
REMARK VINA RESULT: -3.859472866      5.794      6.804
REMARK  2 active torsions:
REMARK  status: ('A' for Active; 'I' for Inactive)
REMARK    1  A    between atoms: O1_1  and  C1_3 
REMARK    2  A    between atoms: C13_17  and  O4_18 
ROOT
HETATM    1  C1  UNL     1       0.380  18.089  -1.562  1.00  0.00     0.149 C 
HETATM    2  C2  UNL     1       0.085  19.481  -1.190  1.00  0.00     0.037 C 
HETATM    3  C3  UNL     1       0.308  20.518  -2.229  1.00  0.00     0.040 C 
HETATM    4  C4  UNL     1      -1.009  20.991  -2.869  1.00  0.00     0.061 C 
HETATM    5  C5  UNL     1      -0.750  21.251  -4.306  1.00  0.00     0.038 C 
HETATM    6  C6  UNL     1      -0.476  22.691  -4.641  1.00  0.00     0.003 C 
HETATM    7  C7  UNL     1       0.237  23.422  -3.530  1.00  0.00     0.000 C 
HETATM    8  C8  UNL     1      -0.524  23.378  -2.248  1.00  0.00     0.003 C 
HETATM    9  C9  UNL     1      -1.494  22.257  -2.184  1.00  0.00     0.038 C 
HETATM   10  O2  UNL     1      -1.907  20.012  -2.584  1.00  0.00    -0.378 OA
HETATM   11  C10 UNL     1      -3.071  19.987  -3.257  1.00  0.00     0.195 C 
HETATM   12  C11 UNL     1      -3.142  18.623  -3.960  1.00  0.00     0.193 C 
HETATM   13  O3  UNL     1      -1.848  18.140  -4.178  1.00  0.00    -0.386 OA
HETATM   14  C12 UNL     1      -1.369  17.372  -3.149  1.00  0.00     0.201 C 
HETATM   15  C13 UNL     1       0.115  17.691  -2.965  1.00  0.00     0.170 C 
ENDROOT
BRANCH   1  16
HETATM   16  O1  UNL     1       1.715  17.737  -1.260  1.00  0.00    -0.393 OA
ATOM     17  H1  UNL     1       2.207  17.512  -2.041  1.00  0.00     0.210 HD
ENDBRANCH   1  16
BRANCH  15  18
HETATM   18  O4  UNL     1       0.835  16.496  -3.206  1.00  0.00    -0.391 OA
ATOM     19  H4  UNL     1       0.198  15.808  -3.357  1.00  0.00     0.210 HD
ENDBRANCH  15  18
TORSDOF 2
ENDMDL
MODEL 3
REMARK VINA RESULT: -3.636659872      2.179      4.818
REMARK  2 active torsions:
REMARK  status: ('A' for Active; 'I' for Inactive)
REMARK    1  A    between atoms: O1_1  and  C1_3 
REMARK    2  A    between atoms: C13_17  and  O4_18 
ROOT
HETATM    1  C1  UNL     1      -1.491  18.128  -9.565  1.00  0.00     0.149 C 
HETATM    2  C2  UNL     1      -0.549  17.000  -9.619  1.00  0.00     0.037 C 
HETATM    3  C3  UNL     1       0.896  17.324  -9.526  1.00  0.00     0.040 C 
HETATM    4  C4  UNL     1       1.471  17.020  -8.131  1.00  0.00     0.061 C 
HETATM    5  C5  UNL     1       2.475  18.064  -7.814  1.00  0.00     0.038 C 
HETATM    6  C6  UNL     1       3.897  17.671  -8.102  1.00  0.00     0.003 C 
HETATM    7  C7  UNL     1       4.018  16.746  -9.288  1.00  0.00     0.000 C 
HETATM    8  C8  UNL     1       3.215  15.501  -9.114  1.00  0.00     0.003 C 
HETATM    9  C9  UNL     1       2.119  15.647  -8.125  1.00  0.00     0.038 C 
HETATM   10  O2  UNL     1       0.387  16.956  -7.313  1.00  0.00    -0.378 OA
HETATM   11  C10 UNL     1       0.577  16.999  -5.983  1.00  0.00     0.195 C 
HETATM   12  C11 UNL     1      -0.212  18.212  -5.467  1.00  0.00     0.193 C 
HETATM   13  O3  UNL     1      -0.347  19.154  -6.491  1.00  0.00    -0.386 OA
HETATM   14  C12 UNL     1      -1.476  18.981  -7.249  1.00  0.00     0.201 C 
HETATM   15  C13 UNL     1      -1.124  19.279  -8.707  1.00  0.00     0.170 C 
ENDROOT
BRANCH   1  16
HETATM   16  O1  UNL     1      -1.784  18.628 -10.854  1.00  0.00    -0.393 OA
ATOM     17  H1  UNL     1      -2.389  18.065 -11.323  1.00  0.00     0.210 HD
ENDBRANCH   1  16
BRANCH  15  18
HETATM   18  O4  UNL     1      -1.916  20.378  -9.115  1.00  0.00    -0.391 OA
ATOM     19  H4  UNL     1      -2.186  20.840  -8.329  1.00  0.00     0.210 HD
ENDBRANCH  15  18
TORSDOF 2
ENDMDL
MODEL 4
REMARK VINA RESULT: -3.575608842      2.071      2.630
REMARK  2 active torsions:
REMARK  status: ('A' for Active; 'I' for Inactive)
REMARK    1  A    between atoms: O1_1  and  C1_3 
REMARK    2  A    between atoms: C13_17  and  O4_18 
ROOT
HETATM    1  C1  UNL     1       1.545  17.593  -9.068  1.00  0.00     0.149 C 
HETATM    2  C2  UNL     1       1.025  17.510  -7.696  1.00  0.00     0.037 C 
HETATM    3  C3  UNL     1       0.545  18.773  -7.080  1.00  0.00     0.040 C 
HETATM    4  C4  UNL     1      -0.991  18.866  -7.066  1.00  0.00     0.061 C 
HETATM    5  C5  UNL     1      -1.364  20.281  -7.304  1.00  0.00     0.038 C 
HETATM    6  C6  UNL     1      -1.654  21.069  -6.056  1.00  0.00     0.003 C 
HETATM    7  C7  UNL     1      -0.822  20.623  -4.879  1.00  0.00     0.000 C 
HETATM    8  C8  UNL     1      -1.011  19.176  -4.572  1.00  0.00     0.003 C 
HETATM    9  C9  UNL     1      -1.527  18.397  -5.725  1.00  0.00     0.038 C 
HETATM   10  O2  UNL     1      -1.403  17.967  -7.999  1.00  0.00    -0.378 OA
HETATM   11  C10 UNL     1      -2.674  18.024  -8.434  1.00  0.00     0.195 C 
HETATM   12  C11 UNL     1      -2.608  18.236  -9.953  1.00  0.00     0.193 C 
HETATM   13  O3  UNL     1      -1.406  18.867 -10.287  1.00  0.00    -0.386 OA
HETATM   14  C12 UNL     1      -0.384  17.994 -10.556  1.00  0.00     0.201 C 
HETATM   15  C13 UNL     1       0.907  18.574  -9.978  1.00  0.00     0.170 C 
ENDROOT
BRANCH   1  16
HETATM   16  O1  UNL     1       2.938  17.830  -9.089  1.00  0.00    -0.393 OA
ATOM     17  H1  UNL     1       3.155  18.690  -8.748  1.00  0.00     0.210 HD
ENDBRANCH   1  16
BRANCH  15  18
HETATM   18  O4  UNL     1       1.795  18.784 -11.060  1.00  0.00    -0.391 OA
ATOM     19  H4  UNL     1       1.867  19.723 -11.188  1.00  0.00     0.210 HD
ENDBRANCH  15  18
TORSDOF 2
ENDMDL
MODEL 5
REMARK VINA RESULT: -3.575535013      9.031     10.890
REMARK  2 active torsions:
REMARK  status: ('A' for Active; 'I' for Inactive)
REMARK    1  A    between atoms: O1_1  and  C1_3 
REMARK    2  A    between atoms: C13_17  and  O4_18 
ROOT
HETATM    1  C1  UNL     1       4.290  21.270   2.972  1.00  0.00     0.149 C 
HETATM    2  C2  UNL     1       2.993  21.847   2.587  1.00  0.00     0.037 C 
HETATM    3  C3  UNL     1       2.551  21.636   1.186  1.00  0.00     0.040 C 
HETATM    4  C4  UNL     1       1.473  20.543   1.075  1.00  0.00     0.061 C 
HETATM    5  C5  UNL     1       1.707  19.797  -0.185  1.00  0.00     0.038 C 
HETATM    6  C6  UNL     1       0.868  20.253  -1.346  1.00  0.00     0.003 C 
HETATM    7  C7  UNL     1       0.574  21.732  -1.307  1.00  0.00     0.000 C 
HETATM    8  C8  UNL     1      -0.114  22.137  -0.047  1.00  0.00     0.003 C 
HETATM    9  C9  UNL     1       0.092  21.175   1.064  1.00  0.00     0.038 C 
HETATM   10  O2  UNL     1       1.579  19.831   2.228  1.00  0.00    -0.378 OA
HETATM   11  C10 UNL     1       0.977  18.631   2.304  1.00  0.00     0.195 C 
HETATM   12  C11 UNL     1       2.079  17.606   2.610  1.00  0.00     0.193 C 
HETATM   13  O3  UNL     1       3.306  18.083   2.140  1.00  0.00    -0.386 OA
HETATM   14  C12 UNL     1       3.998  18.820   3.066  1.00  0.00     0.201 C 
HETATM   15  C13 UNL     1       4.674  19.985   2.342  1.00  0.00     0.170 C 
ENDROOT
BRANCH   1  16
HETATM   16  O1  UNL     1       5.350  22.182   2.772  1.00  0.00    -0.393 OA
ATOM     17  H1  UNL     1       6.161  21.738   2.549  1.00  0.00     0.210 HD
ENDBRANCH   1  16
BRANCH  15  18
HETATM   18  O4  UNL     1       6.072  19.833   2.514  1.00  0.00    -0.391 OA
ATOM     19  H4  UNL     1       6.250  18.901   2.569  1.00  0.00     0.210 HD
ENDBRANCH  15  18
TORSDOF 2
ENDMDL
