MODEL 1
REMARK VINA RESULT: -4.437107870      0.000      0.000
REMARK  1 active torsions:
REMARK  status: ('A' for Active; 'I' for Inactive)
REMARK    1  A    between atoms: N1_1  and  C1_5 
ROOT
HETATM    1  C1  UNL     1       1.782  18.276  -9.863  1.00  0.00     0.193 C 
HETATM    2  C2  UNL     1       1.710  16.766 -10.165  1.00  0.00     0.021 C 
HETATM    3  C3  UNL     1       0.323  16.566  -9.524  1.00  0.00     0.022 C 
HETATM    4  C4  UNL     1       0.687  17.063  -8.119  1.00  0.00     0.018 C 
HETATM    5  C5  UNL     1      -0.515  17.408  -7.291  1.00  0.00     0.136 C 
HETATM    6  C6  UNL     1      -0.059  18.251  -6.113  1.00  0.00     0.038 C 
HETATM    7  C7  UNL     1      -0.170  17.313  -4.896  1.00  0.00     0.063 C 
HETATM    8  C8  UNL     1       0.001  15.982  -5.641  1.00  0.00     0.260 C 
HETATM    9  O1  UNL     1      -0.917  16.195  -6.684  1.00  0.00    -0.355 OA
HETATM   10  O2  UNL     1       1.323  15.886  -6.124  1.00  0.00    -0.355 OA
HETATM   11  C9  UNL     1       1.234  15.794  -7.488  1.00  0.00     0.136 C 
HETATM   12  C10 UNL     1       2.403  15.292  -8.229  1.00  0.00     0.038 C 
HETATM   13  C11 UNL     1       2.813  16.136  -9.413  1.00  0.00    -0.006 C 
HETATM   14  C12 UNL     1       3.804  17.152  -8.825  1.00  0.00     0.005 C 
HETATM   15  C13 UNL     1       3.033  17.941  -7.816  1.00  0.00     0.008 C 
HETATM   16  C14 UNL     1       1.639  18.164  -8.332  1.00  0.00     0.030 C 
ENDROOT
BRANCH   1  17
HETATM   17  N1  UNL     1       0.680  18.980 -10.449  1.00  0.00    -0.074 N 
ATOM     18  H13 UNL     1       0.728  18.968 -11.467  1.00  0.00     0.274 HD
ATOM     19  H12 UNL     1      -0.196  18.471 -10.328  1.00  0.00     0.274 HD
ATOM     20  H11 UNL     1       0.612  19.932 -10.089  1.00  0.00     0.274 HD
ENDBRANCH   1  17
TORSDOF 1
ENDMDL
MODEL 2
REMARK VINA RESULT: -3.993133117      2.092      3.869
REMARK  1 active torsions:
REMARK  status: ('A' for Active; 'I' for Inactive)
REMARK    1  A    between atoms: N1_1  and  C1_5 
ROOT
HETATM    1  C1  UNL     1      -0.123  18.817  -8.332  1.00  0.00     0.193 C 
HETATM    2  C2  UNL     1      -0.915  17.544  -8.690  1.00  0.00     0.021 C 
HETATM    3  C3  UNL     1       0.067  16.576  -8.003  1.00  0.00     0.022 C 
HETATM    4  C4  UNL     1       1.315  16.967  -8.805  1.00  0.00     0.018 C 
HETATM    5  C5  UNL     1       2.592  16.526  -8.153  1.00  0.00     0.136 C 
HETATM    6  C6  UNL     1       3.741  17.292  -8.784  1.00  0.00     0.038 C 
HETATM    7  C7  UNL     1       4.469  16.254  -9.658  1.00  0.00     0.063 C 
HETATM    8  C8  UNL     1       3.276  15.323  -9.915  1.00  0.00     0.260 C 
HETATM    9  O1  UNL     1       2.805  15.200  -8.596  1.00  0.00    -0.355 OA
HETATM   10  O2  UNL     1       2.342  15.983 -10.742  1.00  0.00    -0.355 OA
HETATM   11  C9  UNL     1       1.178  16.068 -10.022  1.00  0.00     0.136 C 
HETATM   12  C10 UNL     1      -0.070  16.345 -10.752  1.00  0.00     0.038 C 
HETATM   13  C11 UNL     1      -0.916  17.450 -10.163  1.00  0.00    -0.006 C 
HETATM   14  C12 UNL     1      -0.402  18.723 -10.851  1.00  0.00     0.005 C 
HETATM   15  C13 UNL     1       1.035  18.850 -10.460  1.00  0.00     0.008 C 
HETATM   16  C14 UNL     1       1.192  18.416  -9.030  1.00  0.00     0.030 C 
ENDROOT
BRANCH   1  17
HETATM   17  N1  UNL     1       0.046  18.948  -6.916  1.00  0.00    -0.074 N 
ATOM     18  H13 UNL     1       0.873  19.499  -6.688  1.00  0.00     0.274 HD
ATOM     19  H12 UNL     1      -0.665  19.556  -6.509  1.00  0.00     0.274 HD
ATOM     20  H11 UNL     1       0.066  18.037  -6.457  1.00  0.00     0.274 HD
ENDBRANCH   1  17
TORSDOF 1
ENDMDL
MODEL 3
REMARK VINA RESULT: -3.959861772      1.626      2.459
REMARK  1 active torsions:
REMARK  status: ('A' for Active; 'I' for Inactive)
REMARK    1  A    between atoms: N1_1  and  C1_5 
ROOT
HETATM    1  C1  UNL     1       1.473  15.616 -10.146  1.00  0.00     0.193 C 
HETATM    2  C2  UNL     1       2.797  15.947  -9.430  1.00  0.00     0.021 C 
HETATM    3  C3  UNL     1       2.498  15.086  -8.188  1.00  0.00     0.022 C 
HETATM    4  C4  UNL     1       1.195  15.784  -7.779  1.00  0.00     0.018 C 
HETATM    5  C5  UNL     1       0.368  14.969  -6.829  1.00  0.00     0.136 C 
HETATM    6  C6  UNL     1      -1.039  15.539  -6.809  1.00  0.00     0.038 C 
HETATM    7  C7  UNL     1      -1.156  16.245  -5.445  1.00  0.00     0.063 C 
HETATM    8  C8  UNL     1       0.335  16.546  -5.237  1.00  0.00     0.260 C 
HETATM    9  O1  UNL     1       0.860  15.278  -5.538  1.00  0.00    -0.355 OA
HETATM   10  O2  UNL     1       0.748  17.516  -6.175  1.00  0.00    -0.355 OA
HETATM   11  C9  UNL     1       1.726  16.931  -6.936  1.00  0.00     0.136 C 
HETATM   12  C10 UNL     1       2.611  17.806  -7.722  1.00  0.00     0.038 C 
HETATM   13  C11 UNL     1       2.780  17.400  -9.168  1.00  0.00    -0.006 C 
HETATM   14  C12 UNL     1       1.646  18.134  -9.898  1.00  0.00     0.005 C 
HETATM   15  C13 UNL     1       0.374  17.608  -9.315  1.00  0.00     0.008 C 
HETATM   16  C14 UNL     1       0.532  16.139  -9.043  1.00  0.00     0.030 C 
ENDROOT
BRANCH   1  17
HETATM   17  N1  UNL     1       1.325  14.205 -10.346  1.00  0.00    -0.074 N 
ATOM     18  H13 UNL     1       1.706  13.914 -11.246  1.00  0.00     0.274 HD
ATOM     19  H12 UNL     1       1.944  13.674  -9.734  1.00  0.00     0.274 HD
ATOM     20  H11 UNL     1       0.354  13.914 -10.240  1.00  0.00     0.274 HD
ENDBRANCH   1  17
TORSDOF 1
ENDMDL
MODEL 4
REMARK VINA RESULT: -3.860272387      1.530      3.218
REMARK  1 active torsions:
REMARK  status: ('A' for Active; 'I' for Inactive)
REMARK    1  A    between atoms: N1_1  and  C1_5 
ROOT
HETATM    1  C1  UNL     1       1.385  17.996  -9.483  1.00  0.00     0.193 C 
HETATM    2  C2  UNL     1       1.822  18.422  -8.068  1.00  0.00     0.021 C 
HETATM    3  C3  UNL     1       2.517  17.088  -7.734  1.00  0.00     0.022 C 
HETATM    4  C4  UNL     1       1.296  16.181  -7.931  1.00  0.00     0.018 C 
HETATM    5  C5  UNL     1       1.662  14.735  -8.092  1.00  0.00     0.136 C 
HETATM    6  C6  UNL     1       0.467  14.001  -8.674  1.00  0.00     0.038 C 
HETATM    7  C7  UNL     1      -0.087  13.165  -7.505  1.00  0.00     0.063 C 
HETATM    8  C8  UNL     1       0.418  14.052  -6.358  1.00  0.00     0.260 C 
HETATM    9  O1  UNL     1       1.749  14.218  -6.778  1.00  0.00    -0.355 OA
HETATM   10  O2  UNL     1      -0.288  15.273  -6.369  1.00  0.00    -0.355 OA
HETATM   11  C9  UNL     1       0.644  16.259  -6.561  1.00  0.00     0.136 C 
HETATM   12  C10 UNL     1       0.269  17.644  -6.228  1.00  0.00     0.038 C 
HETATM   13  C11 UNL     1       0.584  18.660  -7.301  1.00  0.00    -0.006 C 
HETATM   14  C12 UNL     1      -0.677  18.683  -8.177  1.00  0.00     0.005 C 
HETATM   15  C13 UNL     1      -0.814  17.304  -8.737  1.00  0.00     0.008 C 
HETATM   16  C14 UNL     1       0.554  16.769  -9.057  1.00  0.00     0.030 C 
ENDROOT
BRANCH   1  17
HETATM   17  N1  UNL     1       2.510  17.621 -10.288  1.00  0.00    -0.074 N 
ATOM     18  H13 UNL     1       2.394  17.923 -11.255  1.00  0.00     0.274 HD
ATOM     19  H12 UNL     1       3.338  18.167 -10.051  1.00  0.00     0.274 HD
ATOM     20  H11 UNL     1       2.693  16.620 -10.229  1.00  0.00     0.274 HD
ENDBRANCH   1  17
TORSDOF 1
ENDMDL
MODEL 5
REMARK VINA RESULT: -3.752288884      1.754      3.491
REMARK  1 active torsions:
REMARK  status: ('A' for Active; 'I' for Inactive)
REMARK    1  A    between atoms: N1_1  and  C1_5 
ROOT
HETATM    1  C1  UNL     1      -0.300  17.866  -9.601  1.00  0.00     0.193 C 
HETATM    2  C2  UNL     1       1.113  18.467  -9.460  1.00  0.00     0.021 C 
HETATM    3  C3  UNL     1       1.812  17.361 -10.272  1.00  0.00     0.022 C 
HETATM    4  C4  UNL     1       1.379  16.177  -9.398  1.00  0.00     0.018 C 
HETATM    5  C5  UNL     1       1.526  14.854 -10.090  1.00  0.00     0.136 C 
HETATM    6  C6  UNL     1       0.714  13.822  -9.328  1.00  0.00     0.038 C 
HETATM    7  C7  UNL     1       1.762  12.948  -8.614  1.00  0.00     0.063 C 
HETATM    8  C8  UNL     1       2.881  13.996  -8.525  1.00  0.00     0.260 C 
HETATM    9  O1  UNL     1       2.862  14.451  -9.855  1.00  0.00    -0.355 OA
HETATM   10  O2  UNL     1       2.498  15.009  -7.622  1.00  0.00    -0.355 OA
HETATM   11  C9  UNL     1       2.467  16.177  -8.338  1.00  0.00     0.136 C 
HETATM   12  C10 UNL     1       2.488  17.448  -7.595  1.00  0.00     0.038 C 
HETATM   13  C11 UNL     1       1.435  18.446  -8.019  1.00  0.00    -0.006 C 
HETATM   14  C12 UNL     1       0.225  18.115  -7.132  1.00  0.00     0.005 C 
HETATM   15  C13 UNL     1      -0.163  16.713  -7.475  1.00  0.00     0.008 C 
HETATM   16  C14 UNL     1       0.015  16.504  -8.952  1.00  0.00     0.030 C 
ENDROOT
BRANCH   1  17
HETATM   17  N1  UNL     1      -0.673  17.726 -10.977  1.00  0.00    -0.074 N 
ATOM     18  H13 UNL     1      -0.322  18.500 -11.540  1.00  0.00     0.274 HD
ATOM     19  H12 UNL     1      -0.167  16.963 -11.426  1.00  0.00     0.274 HD
ATOM     20  H11 UNL     1      -1.682  17.617 -11.080  1.00  0.00     0.274 HD
ENDBRANCH   1  17
TORSDOF 1
ENDMDL
