MODEL 1
REMARK VINA RESULT: -4.075355064      0.000      0.000
REMARK  2 active torsions:
REMARK  status: ('A' for Active; 'I' for Inactive)
REMARK    1  A    between atoms: C11_13  and  O3_14 
REMARK    2  A    between atoms: C12_16  and  O4_17 
ROOT
HETATM    1  C1  UNL     1      -2.094  18.153  -6.688  1.00  0.00     0.046 C 
HETATM    2  C2  UNL     1      -0.981  19.043  -6.567  1.00  0.00     0.058 C 
HETATM    3  C3  UNL     1      -1.454  20.214  -7.269  1.00  0.00     0.038 C 
HETATM    4  C4  UNL     1      -1.432  19.696  -8.737  1.00  0.00     0.006 C 
HETATM    5  C5  UNL     1      -0.624  18.406  -8.938  1.00  0.00     0.041 C 
HETATM    6  C6  UNL     1       0.410  18.095  -7.962  1.00  0.00     0.096 C 
HETATM    7  O1  UNL     1       0.276  19.145  -7.115  1.00  0.00    -0.366 OA
HETATM    8  C7  UNL     1       0.440  16.999  -7.007  1.00  0.00     0.157 C 
HETATM    9  C8  UNL     1       0.137  17.297  -5.544  1.00  0.00     0.038 C 
HETATM   10  C9  UNL     1      -0.455  18.705  -5.265  1.00  0.00     0.040 C 
HETATM   11  O2  UNL     1       1.750  16.467  -6.989  1.00  0.00    -0.374 OA
HETATM   12  C10 UNL     1       2.586  17.380  -7.546  1.00  0.00     0.163 C 
HETATM   13  C11 UNL     1       3.345  16.747  -8.717  1.00  0.00     0.176 C 
HETATM   14  C12 UNL     1       2.138  17.139  -9.580  1.00  0.00     0.159 C 
HETATM   15  C13 UNL     1       1.823  18.180  -8.546  1.00  0.00     0.086 C 
ENDROOT
BRANCH  13  16
HETATM   16  O3  UNL     1       4.486  17.411  -9.088  1.00  0.00    -0.390 OA
ATOM     17  H3  UNL     1       4.994  17.761  -8.367  1.00  0.00     0.210 HD
ENDBRANCH  13  16
BRANCH  14  18
HETATM   18  O4  UNL     1       1.258  16.077  -9.665  1.00  0.00    -0.392 OA
ATOM     19  H4  UNL     1       0.970  15.827  -8.795  1.00  0.00     0.210 HD
ENDBRANCH  14  18
TORSDOF 2
ENDMDL
MODEL 2
REMARK VINA RESULT: -3.971875412      1.056      1.233
REMARK  2 active torsions:
REMARK  status: ('A' for Active; 'I' for Inactive)
REMARK    1  A    between atoms: C11_13  and  O3_14 
REMARK    2  A    between atoms: C12_16  and  O4_17 
ROOT
HETATM    1  C1  UNL     1      -1.455  17.336  -6.709  1.00  0.00     0.046 C 
HETATM    2  C2  UNL     1      -0.204  17.951  -6.395  1.00  0.00     0.058 C 
HETATM    3  C3  UNL     1      -0.507  19.353  -6.564  1.00  0.00     0.038 C 
HETATM    4  C4  UNL     1      -0.647  19.431  -8.113  1.00  0.00     0.006 C 
HETATM    5  C5  UNL     1      -0.080  18.215  -8.858  1.00  0.00     0.041 C 
HETATM    6  C6  UNL     1       0.935  17.419  -8.184  1.00  0.00     0.096 C 
HETATM    7  O1  UNL     1       1.023  18.079  -7.002  1.00  0.00    -0.366 OA
HETATM    8  C7  UNL     1       0.828  16.050  -7.704  1.00  0.00     0.157 C 
HETATM    9  C8  UNL     1       0.654  15.812  -6.209  1.00  0.00     0.038 C 
HETATM   10  C9  UNL     1       0.323  17.077  -5.372  1.00  0.00     0.040 C 
HETATM   11  O2  UNL     1       2.028  15.376  -8.026  1.00  0.00    -0.374 OA
HETATM   12  C10 UNL     1       2.977  16.307  -8.300  1.00  0.00     0.163 C 
HETATM   13  C11 UNL     1       3.558  16.067  -9.698  1.00  0.00     0.176 C 
HETATM   14  C12 UNL     1       2.393  16.918 -10.219  1.00  0.00     0.159 C 
HETATM   15  C13 UNL     1       2.311  17.523  -8.849  1.00  0.00     0.086 C 
ENDROOT
BRANCH  13  16
HETATM   16  O3  UNL     1       4.774  16.658  -9.924  1.00  0.00    -0.390 OA
ATOM     17  H3  UNL     1       4.781  17.300 -10.623  1.00  0.00     0.210 HD
ENDBRANCH  13  16
BRANCH  14  18
HETATM   18  O4  UNL     1       1.343  16.098 -10.588  1.00  0.00    -0.392 OA
ATOM     19  H4  UNL     1       0.955  16.416 -11.395  1.00  0.00     0.210 HD
ENDBRANCH  14  18
TORSDOF 2
ENDMDL
MODEL 3
REMARK VINA RESULT: -3.897645368      1.076      1.336
REMARK  2 active torsions:
REMARK  status: ('A' for Active; 'I' for Inactive)
REMARK    1  A    between atoms: C11_13  and  O3_14 
REMARK    2  A    between atoms: C12_16  and  O4_17 
ROOT
HETATM    1  C1  UNL     1      -1.876  18.224  -7.957  1.00  0.00     0.046 C 
HETATM    2  C2  UNL     1      -0.789  19.116  -8.214  1.00  0.00     0.058 C 
HETATM    3  C3  UNL     1      -1.270  19.856  -9.357  1.00  0.00     0.038 C 
HETATM    4  C4  UNL     1      -1.197  18.759 -10.460  1.00  0.00     0.006 C 
HETATM    5  C5  UNL     1      -0.353  17.536 -10.076  1.00  0.00     0.041 C 
HETATM    6  C6  UNL     1       0.662  17.708  -9.048  1.00  0.00     0.096 C 
HETATM    7  O1  UNL     1       0.480  19.015  -8.735  1.00  0.00    -0.366 OA
HETATM    8  C7  UNL     1       0.693  17.129  -7.714  1.00  0.00     0.157 C 
HETATM    9  C8  UNL     1       0.344  18.015  -6.524  1.00  0.00     0.038 C 
HETATM   10  C9  UNL     1      -0.289  19.386  -6.886  1.00  0.00     0.040 C 
HETATM   11  O2  UNL     1       2.014  16.700  -7.450  1.00  0.00    -0.374 OA
HETATM   12  C10 UNL     1       2.842  17.313  -8.334  1.00  0.00     0.163 C 
HETATM   13  C11 UNL     1       3.648  16.264  -9.110  1.00  0.00     0.176 C 
HETATM   14  C12 UNL     1       2.455  16.208 -10.074  1.00  0.00     0.159 C 
HETATM   15  C13 UNL     1       2.088  17.580  -9.592  1.00  0.00     0.086 C 
ENDROOT
BRANCH  13  16
HETATM   16  O3  UNL     1       4.781  16.743  -9.714  1.00  0.00    -0.390 OA
ATOM     17  H3  UNL     1       5.227  16.119 -10.275  1.00  0.00     0.210 HD
ENDBRANCH  13  16
BRANCH  14  18
HETATM   18  O4  UNL     1       1.604  15.184  -9.707  1.00  0.00    -0.392 OA
ATOM     19  H4  UNL     1       1.488  15.184  -8.764  1.00  0.00     0.210 HD
ENDBRANCH  14  18
TORSDOF 2
ENDMDL
MODEL 4
REMARK VINA RESULT: -3.800953270      2.406      4.326
REMARK  2 active torsions:
REMARK  status: ('A' for Active; 'I' for Inactive)
REMARK    1  A    between atoms: C11_13  and  O3_14 
REMARK    2  A    between atoms: C12_16  and  O4_17 
ROOT
HETATM    1  C1  UNL     1       1.417  18.399  -9.781  1.00  0.00     0.046 C 
HETATM    2  C2  UNL     1       1.170  17.307  -8.892  1.00  0.00     0.058 C 
HETATM    3  C3  UNL     1       1.447  17.900  -7.604  1.00  0.00     0.038 C 
HETATM    4  C4  UNL     1       2.994  18.049  -7.683  1.00  0.00     0.006 C 
HETATM    5  C5  UNL     1       3.649  17.236  -8.807  1.00  0.00     0.041 C 
HETATM    6  C6  UNL     1       2.928  16.077  -9.313  1.00  0.00     0.096 C 
HETATM    7  O1  UNL     1       1.804  16.133  -8.557  1.00  0.00    -0.366 OA
HETATM    8  C7  UNL     1       2.340  15.893 -10.631  1.00  0.00     0.157 C 
HETATM    9  C8  UNL     1       0.829  16.016 -10.779  1.00  0.00     0.038 C 
HETATM   10  C9  UNL     1       0.090  16.610  -9.549  1.00  0.00     0.040 C 
HETATM   11  O2  UNL     1       2.624  14.576 -11.060  1.00  0.00    -0.374 OA
HETATM   12  C10 UNL     1       2.985  13.845  -9.974  1.00  0.00     0.163 C 
HETATM   13  C11 UNL     1       4.368  13.223 -10.199  1.00  0.00     0.176 C 
HETATM   14  C12 UNL     1       4.938  14.541  -9.658  1.00  0.00     0.159 C 
HETATM   15  C13 UNL     1       3.619  14.752  -8.975  1.00  0.00     0.086 C 
ENDROOT
BRANCH  13  16
HETATM   16  O3  UNL     1       4.657  12.159  -9.384  1.00  0.00    -0.390 OA
ATOM     17  H3  UNL     1       5.411  12.283  -8.820  1.00  0.00     0.210 HD
ENDBRANCH  13  16
BRANCH  14  18
HETATM   18  O4  UNL     1       5.226  15.392 -10.708  1.00  0.00    -0.392 OA
ATOM     19  H4  UNL     1       5.613  14.901 -11.423  1.00  0.00     0.210 HD
ENDBRANCH  14  18
TORSDOF 2
ENDMDL
MODEL 5
REMARK VINA RESULT: -3.774778069      2.421      4.734
REMARK  2 active torsions:
REMARK  status: ('A' for Active; 'I' for Inactive)
REMARK    1  A    between atoms: C11_13  and  O3_14 
REMARK    2  A    between atoms: C12_16  and  O4_17 
ROOT
HETATM    1  C1  UNL     1       3.698  17.320  -8.625  1.00  0.00     0.046 C 
HETATM    2  C2  UNL     1       2.555  16.996  -9.420  1.00  0.00     0.058 C 
HETATM    3  C3  UNL     1       1.856  18.259  -9.470  1.00  0.00     0.038 C 
HETATM    4  C4  UNL     1       1.344  18.361  -8.003  1.00  0.00     0.006 C 
HETATM    5  C5  UNL     1       1.410  17.043  -7.220  1.00  0.00     0.041 C 
HETATM    6  C6  UNL     1       1.423  15.802  -7.981  1.00  0.00     0.096 C 
HETATM    7  O1  UNL     1       1.390  16.287  -9.247  1.00  0.00    -0.366 OA
HETATM    8  C7  UNL     1       2.505  14.838  -8.104  1.00  0.00     0.157 C 
HETATM    9  C8  UNL     1       3.316  14.813  -9.393  1.00  0.00     0.038 C 
HETATM   10  C9  UNL     1       3.087  16.020 -10.343  1.00  0.00     0.040 C 
HETATM   11  O2  UNL     1       1.950  13.540  -8.018  1.00  0.00    -0.374 OA
HETATM   12  C10 UNL     1       0.614  13.635  -8.244  1.00  0.00     0.163 C 
HETATM   13  C11 UNL     1      -0.159  13.034  -7.064  1.00  0.00     0.176 C 
HETATM   14  C12 UNL     1      -0.043  14.419  -6.414  1.00  0.00     0.159 C 
HETATM   15  C13 UNL     1       0.146  14.977  -7.793  1.00  0.00     0.086 C 
ENDROOT
BRANCH  13  16
HETATM   16  O3  UNL     1      -1.459  12.698  -7.341  1.00  0.00    -0.390 OA
ATOM     17  H3  UNL     1      -1.955  13.369  -7.794  1.00  0.00     0.210 HD
ENDBRANCH  13  16
BRANCH  14  18
HETATM   18  O4  UNL     1       1.061  14.455  -5.583  1.00  0.00    -0.392 OA
ATOM     19  H4  UNL     1       1.588  15.220  -5.782  1.00  0.00     0.210 HD
ENDBRANCH  14  18
TORSDOF 2
ENDMDL
