MODEL 1
REMARK VINA RESULT: -7.651938579      0.000      0.000
REMARK  1 active torsions:
REMARK  status: ('A' for Active; 'I' for Inactive)
REMARK    1  A    between atoms: C14_16  and  O3_17 
ROOT
HETATM    1  C1  UNL     1      -3.153  21.000  -2.170  1.00  0.00     0.018 C 
HETATM    2  C2  UNL     1      -2.729  19.524  -2.203  1.00  0.00    -0.011 C 
HETATM    3  C3  UNL     1      -1.430  19.405  -2.952  1.00  0.00     0.050 C 
HETATM    4  C4  UNL     1      -0.721  18.282  -2.286  1.00  0.00     0.070 A 
HETATM    5  C5  UNL     1       0.540  18.763  -1.617  1.00  0.00     0.043 A 
HETATM    6  C6  UNL     1      -0.065  18.558  -0.276  1.00  0.00    -0.004 A 
HETATM    7  C7  UNL     1      -0.472  19.734   0.521  1.00  0.00     0.005 C 
HETATM    8  C8  UNL     1      -1.751  20.254  -0.097  1.00  0.00     0.006 C 
HETATM    9  C9  UNL     1      -2.379  19.080  -0.836  1.00  0.00     0.003 C 
HETATM   10  C10 UNL     1      -1.315  18.068  -0.922  1.00  0.00     0.029 A 
HETATM   11  O1  UNL     1      -0.676  17.117  -2.977  1.00  0.00    -0.347 OA
HETATM   12  C11 UNL     1      -1.360  17.060  -4.140  1.00  0.00     0.290 A 
HETATM   13  O2  UNL     1      -2.048  15.742  -4.230  1.00  0.00    -0.348 OA
HETATM   14  C12 UNL     1      -2.738  16.921  -4.225  1.00  0.00     0.182 A 
HETATM   15  C13 UNL     1      -3.613  17.316  -3.058  1.00  0.00     0.069 C 
HETATM   16  C14 UNL     1      -3.789  18.785  -2.902  1.00  0.00     0.129 C 
ENDROOT
BRANCH  16  17
HETATM   17  O3  UNL     1      -5.040  19.081  -2.324  1.00  0.00    -0.395 OA
ATOM     18  H3  UNL     1      -5.417  19.845  -2.744  1.00  0.00     0.210 HD
ENDBRANCH  16  17
TORSDOF 1
ENDMDL
MODEL 2
REMARK VINA RESULT: -7.643455575      4.451      7.035
REMARK  1 active torsions:
REMARK  status: ('A' for Active; 'I' for Inactive)
REMARK    1  A    between atoms: C14_16  and  O3_17 
ROOT
HETATM    1  C1  UNL     1       3.172  21.021   2.218  1.00  0.00     0.018 C 
HETATM    2  C2  UNL     1       2.743  19.546   2.218  1.00  0.00    -0.011 C 
HETATM    3  C3  UNL     1       1.445  19.414   2.967  1.00  0.00     0.050 C 
HETATM    4  C4  UNL     1       0.730  18.309   2.277  1.00  0.00     0.070 A 
HETATM    5  C5  UNL     1      -0.530  18.809   1.622  1.00  0.00     0.043 A 
HETATM    6  C6  UNL     1       0.071  18.634   0.275  1.00  0.00    -0.004 A 
HETATM    7  C7  UNL     1       0.481  19.825  -0.496  1.00  0.00     0.005 C 
HETATM    8  C8  UNL     1       1.763  20.327   0.131  1.00  0.00     0.006 C 
HETATM    9  C9  UNL     1       2.388  19.134   0.842  1.00  0.00     0.003 C 
HETATM   10  C10 UNL     1       1.321  18.125   0.907  1.00  0.00     0.029 A 
HETATM   11  O1  UNL     1       0.683  17.129   2.941  1.00  0.00    -0.347 OA
HETATM   12  C11 UNL     1       1.369  17.043   4.101  1.00  0.00     0.290 A 
HETATM   13  O2  UNL     1       2.054  15.721   4.159  1.00  0.00    -0.348 OA
HETATM   14  C12 UNL     1       2.747  16.897   4.180  1.00  0.00     0.182 A 
HETATM   15  C13 UNL     1       3.621  17.316   3.020  1.00  0.00     0.069 C 
HETATM   16  C14 UNL     1       3.801  18.788   2.898  1.00  0.00     0.129 C 
ENDROOT
BRANCH  16  17
HETATM   17  O3  UNL     1       5.052  19.093   2.324  1.00  0.00    -0.395 OA
ATOM     18  H3  UNL     1       5.678  18.409   2.533  1.00  0.00     0.210 HD
ENDBRANCH  16  17
TORSDOF 1
ENDMDL
MODEL 3
REMARK VINA RESULT: -7.626414974      4.668      6.827
REMARK  1 active torsions:
REMARK  status: ('A' for Active; 'I' for Inactive)
REMARK    1  A    between atoms: C14_16  and  O3_17 
ROOT
HETATM    1  C1  UNL     1       0.861  17.202   0.432  1.00  0.00     0.018 C 
HETATM    2  C2  UNL     1       1.369  18.181   1.500  1.00  0.00    -0.011 C 
HETATM    3  C3  UNL     1       2.184  19.255   0.832  1.00  0.00     0.050 C 
HETATM    4  C4  UNL     1       1.934  20.471   1.649  1.00  0.00     0.070 A 
HETATM    5  C5  UNL     1       1.214  21.521   0.846  1.00  0.00     0.043 A 
HETATM    6  C6  UNL     1      -0.027  21.308   1.633  1.00  0.00    -0.004 A 
HETATM    7  C7  UNL     1      -1.168  20.606   1.010  1.00  0.00     0.005 C 
HETATM    8  C8  UNL     1      -0.806  19.137   0.976  1.00  0.00     0.006 C 
HETATM    9  C9  UNL     1       0.226  18.925   2.074  1.00  0.00     0.003 C 
HETATM   10  C10 UNL     1       0.675  20.275   2.446  1.00  0.00     0.029 A 
HETATM   11  O1  UNL     1       2.952  20.864   2.452  1.00  0.00    -0.347 OA
HETATM   12  C11 UNL     1       4.040  20.065   2.510  1.00  0.00     0.290 A 
HETATM   13  O2  UNL     1       4.497  19.975   3.924  1.00  0.00    -0.348 OA
HETATM   14  C12 UNL     1       4.094  18.875   3.222  1.00  0.00     0.182 A 
HETATM   15  C13 UNL     1       2.819  18.143   3.571  1.00  0.00     0.069 C 
HETATM   16  C14 UNL     1       2.208  17.411   2.429  1.00  0.00     0.129 C 
ENDROOT
BRANCH  16  17
HETATM   17  O3  UNL     1       1.504  16.276   2.880  1.00  0.00    -0.395 OA
ATOM     18  H3  UNL     1       1.994  15.846   3.571  1.00  0.00     0.210 HD
ENDBRANCH  16  17
TORSDOF 1
ENDMDL
MODEL 4
REMARK VINA RESULT: -7.529682175      1.478      3.366
REMARK  1 active torsions:
REMARK  status: ('A' for Active; 'I' for Inactive)
REMARK    1  A    between atoms: C14_16  and  O3_17 
ROOT
HETATM    1  C1  UNL     1      -0.172  17.387  -0.576  1.00  0.00     0.018 C 
HETATM    2  C2  UNL     1      -0.921  18.315  -1.544  1.00  0.00    -0.011 C 
HETATM    3  C3  UNL     1      -1.923  19.125  -0.768  1.00  0.00     0.050 C 
HETATM    4  C4  UNL     1      -1.975  20.429  -1.478  1.00  0.00     0.070 A 
HETATM    5  C5  UNL     1      -1.470  21.542  -0.599  1.00  0.00     0.043 A 
HETATM    6  C6  UNL     1      -0.243  21.672  -1.425  1.00  0.00    -0.004 A 
HETATM    7  C7  UNL     1       1.046  21.189  -0.888  1.00  0.00     0.005 C 
HETATM    8  C8  UNL     1       1.014  19.679  -0.978  1.00  0.00     0.006 C 
HETATM    9  C9  UNL     1       0.010  19.336  -2.071  1.00  0.00     0.003 C 
HETATM   10  C10 UNL     1      -0.734  20.581  -2.313  1.00  0.00     0.029 A 
HETATM   11  O1  UNL     1      -3.084  20.654  -2.224  1.00  0.00    -0.347 OA
HETATM   12  C11 UNL     1      -3.974  19.643  -2.331  1.00  0.00     0.290 A 
HETATM   13  O2  UNL     1      -4.454  19.571  -3.739  1.00  0.00    -0.348 OA
HETATM   14  C12 UNL     1      -3.794  18.533  -3.145  1.00  0.00     0.182 A 
HETATM   15  C13 UNL     1      -2.405  18.130  -3.581  1.00  0.00     0.069 C 
HETATM   16  C14 UNL     1      -1.607  17.458  -2.520  1.00  0.00     0.129 C 
ENDROOT
BRANCH  16  17
HETATM   17  O3  UNL     1      -0.691  16.547  -3.084  1.00  0.00    -0.395 OA
ATOM     18  H3  UNL     1      -0.560  16.748  -4.003  1.00  0.00     0.210 HD
ENDBRANCH  16  17
TORSDOF 1
ENDMDL
MODEL 5
REMARK VINA RESULT: -7.497253247      1.691      3.230
REMARK  1 active torsions:
REMARK  status: ('A' for Active; 'I' for Inactive)
REMARK    1  A    between atoms: C14_16  and  O3_17 
ROOT
HETATM    1  C1  UNL     1      -1.309  18.229   0.756  1.00  0.00     0.018 C 
HETATM    2  C2  UNL     1      -1.631  18.722  -0.662  1.00  0.00    -0.011 C 
HETATM    3  C3  UNL     1      -2.252  20.089  -0.576  1.00  0.00     0.050 C 
HETATM    4  C4  UNL     1      -1.788  20.784  -1.804  1.00  0.00     0.070 A 
HETATM    5  C5  UNL     1      -0.904  21.954  -1.460  1.00  0.00     0.043 A 
HETATM    6  C6  UNL     1       0.288  21.237  -1.980  1.00  0.00    -0.004 A 
HETATM    7  C7  UNL     1       1.285  20.704  -1.029  1.00  0.00     0.005 C 
HETATM    8  C8  UNL     1       0.674  19.465  -0.411  1.00  0.00     0.006 C 
HETATM    9  C9  UNL     1      -0.371  18.964  -1.399  1.00  0.00     0.003 C 
HETATM   10  C10 UNL     1      -0.575  20.076  -2.339  1.00  0.00     0.029 A 
HETATM   11  O1  UNL     1      -2.715  20.947  -2.779  1.00  0.00    -0.347 OA
HETATM   12  C11 UNL     1      -3.925  20.378  -2.585  1.00  0.00     0.290 A 
HETATM   13  O2  UNL     1      -4.378  19.762  -3.863  1.00  0.00    -0.348 OA
HETATM   14  C12 UNL     1      -4.178  19.021  -2.733  1.00  0.00     0.182 A 
HETATM   15  C13 UNL     1      -3.046  18.025  -2.636  1.00  0.00     0.069 C 
HETATM   16  C14 UNL     1      -2.582  17.767  -1.246  1.00  0.00     0.129 C 
ENDROOT
BRANCH  16  17
HETATM   17  O3  UNL     1      -2.082  16.456  -1.120  1.00  0.00    -0.395 OA
ATOM     18  H3  UNL     1      -2.779  15.828  -1.273  1.00  0.00     0.210 HD
ENDBRANCH  16  17
TORSDOF 1
ENDMDL
