MODEL 1
REMARK VINA RESULT: -6.768903122      0.000      0.000
REMARK  2 active torsions:
REMARK  status: ('A' for Active; 'I' for Inactive)
REMARK    1  A    between atoms: O1_1  and  C1_3 
REMARK    2  A    between atoms: C6_9  and  O2_10 
ROOT
HETATM    1  C1  UNL     1      -3.580  18.947  -3.109  1.00  0.00     0.070 C 
HETATM    2  C2  UNL     1      -2.398  19.785  -2.742  1.00  0.00     0.111 C 
HETATM    3  S1  UNL     1      -0.819  18.952  -3.042  1.00  0.00    -0.165 SA
HETATM    4  C3  UNL     1      -1.094  17.627  -4.219  1.00  0.00     0.089 C 
HETATM    5  C4  UNL     1      -2.512  17.050  -4.097  1.00  0.00     0.033 C 
HETATM    6  C5  UNL     1      -3.442  18.227  -4.415  1.00  0.00     0.055 C 
HETATM    7  C6  UNL     1      -2.794  16.725  -2.688  1.00  0.00     0.074 C 
HETATM    8  C7  UNL     1      -3.462  15.427  -2.427  1.00  0.00     0.065 C 
HETATM    9  C8  UNL     1      -2.962  14.406  -3.425  1.00  0.00     0.171 C 
HETATM   10  O3  UNL     1      -3.358  14.864  -4.684  1.00  0.00    -0.379 OA
HETATM   11  C9  UNL     1      -2.621  15.947  -5.076  1.00  0.00     0.072 A 
HETATM   12  C10 UNL     1      -2.735  16.305  -6.533  1.00  0.00     0.042 A 
HETATM   13  C11 UNL     1      -1.477  15.632  -6.010  1.00  0.00     0.042 A 
HETATM   14  C12 UNL     1      -3.691  17.820  -2.119  1.00  0.00     0.077 C 
ENDROOT
BRANCH   1  15
HETATM   15  O1  UNL     1      -4.717  19.744  -3.042  1.00  0.00    -0.389 OA
ATOM     16  H1  UNL     1      -5.073  19.683  -2.163  1.00  0.00     0.210 HD
ENDBRANCH   1  15
BRANCH   7  17
HETATM   17  O2  UNL     1      -1.619  16.764  -1.907  1.00  0.00    -0.389 OA
ATOM     18  H2  UNL     1      -1.612  16.070  -1.259  1.00  0.00     0.210 HD
ENDBRANCH   7  17
TORSDOF 2
ENDMDL
MODEL 2
REMARK VINA RESULT: -6.753867877      8.381      9.775
REMARK  2 active torsions:
REMARK  status: ('A' for Active; 'I' for Inactive)
REMARK    1  A    between atoms: O1_1  and  C1_3 
REMARK    2  A    between atoms: C6_9  and  O2_10 
ROOT
HETATM    1  C1  UNL     1       3.585  18.924   3.084  1.00  0.00     0.070 C 
HETATM    2  C2  UNL     1       2.406  19.754   2.691  1.00  0.00     0.111 C 
HETATM    3  S1  UNL     1       0.825  18.923   2.983  1.00  0.00    -0.165 SA
HETATM    4  C3  UNL     1       1.088  17.615   4.181  1.00  0.00     0.089 C 
HETATM    5  C4  UNL     1       2.508  17.039   4.084  1.00  0.00     0.033 C 
HETATM    6  C5  UNL     1       3.432  18.221   4.397  1.00  0.00     0.055 C 
HETATM    7  C6  UNL     1       2.808  16.695   2.683  1.00  0.00     0.074 C 
HETATM    8  C7  UNL     1       3.481  15.395   2.447  1.00  0.00     0.065 C 
HETATM    9  C8  UNL     1       2.970  14.386   3.453  1.00  0.00     0.171 C 
HETATM   10  O3  UNL     1       3.350  14.862   4.710  1.00  0.00    -0.379 OA
HETATM   11  C9  UNL     1       2.607  15.949   5.079  1.00  0.00     0.072 A 
HETATM   12  C10 UNL     1       2.703  16.327   6.532  1.00  0.00     0.042 A 
HETATM   13  C11 UNL     1       1.452  15.644   6.003  1.00  0.00     0.042 A 
HETATM   14  C12 UNL     1       3.710  17.783   2.110  1.00  0.00     0.077 C 
ENDROOT
BRANCH   1  15
HETATM   15  O1  UNL     1       4.722  19.722   3.019  1.00  0.00    -0.389 OA
ATOM     16  H1  UNL     1       5.108  19.762   3.887  1.00  0.00     0.210 HD
ENDBRANCH   1  15
BRANCH   7  17
HETATM   17  O2  UNL     1       1.642  16.721   1.887  1.00  0.00    -0.389 OA
ATOM     18  H2  UNL     1       1.733  17.328   1.162  1.00  0.00     0.210 HD
ENDBRANCH   7  17
TORSDOF 2
ENDMDL
MODEL 3
REMARK VINA RESULT: -6.745177224      8.120      9.682
REMARK  2 active torsions:
REMARK  status: ('A' for Active; 'I' for Inactive)
REMARK    1  A    between atoms: O1_1  and  C1_3 
REMARK    2  A    between atoms: C6_9  and  O2_10 
ROOT
HETATM    1  C1  UNL     1       2.535  16.377   5.356  1.00  0.00     0.070 C 
HETATM    2  C2  UNL     1       2.963  15.094   4.719  1.00  0.00     0.111 C 
HETATM    3  S1  UNL     1       3.144  15.220   2.923  1.00  0.00    -0.165 SA
HETATM    4  C3  UNL     1       3.331  16.951   2.494  1.00  0.00     0.089 C 
HETATM    5  C4  UNL     1       2.587  17.861   3.482  1.00  0.00     0.033 C 
HETATM    6  C5  UNL     1       3.247  17.588   4.838  1.00  0.00     0.055 C 
HETATM    7  C6  UNL     1       1.201  17.387   3.643  1.00  0.00     0.074 C 
HETATM    8  C7  UNL     1       0.140  18.423   3.638  1.00  0.00     0.065 C 
HETATM    9  C8  UNL     1       0.530  19.523   2.674  1.00  0.00     0.171 C 
HETATM   10  O3  UNL     1       1.701  20.089   3.181  1.00  0.00    -0.379 OA
HETATM   11  C9  UNL     1       2.771  19.253   3.019  1.00  0.00     0.072 A 
HETATM   12  C10 UNL     1       4.118  19.891   3.222  1.00  0.00     0.042 A 
HETATM   13  C11 UNL     1       3.637  19.556   1.819  1.00  0.00     0.042 A 
HETATM   14  C12 UNL     1       1.105  16.645   4.971  1.00  0.00     0.077 C 
ENDROOT
BRANCH   1  15
HETATM   15  O1  UNL     1       2.631  16.233   6.735  1.00  0.00    -0.389 OA
ATOM     16  H1  UNL     1       3.366  15.661   6.925  1.00  0.00     0.210 HD
ENDBRANCH   1  15
BRANCH   7  17
HETATM   17  O2  UNL     1       0.868  16.431   2.658  1.00  0.00    -0.389 OA
ATOM     18  H2  UNL     1       0.791  16.832   1.800  1.00  0.00     0.210 HD
ENDBRANCH   7  17
TORSDOF 2
ENDMDL
MODEL 4
REMARK VINA RESULT: -6.736980586      1.765      4.235
REMARK  2 active torsions:
REMARK  status: ('A' for Active; 'I' for Inactive)
REMARK    1  A    between atoms: O1_1  and  C1_3 
REMARK    2  A    between atoms: C6_9  and  O2_10 
ROOT
HETATM    1  C1  UNL     1      -2.747  16.390  -5.133  1.00  0.00     0.070 C 
HETATM    2  C2  UNL     1      -3.064  15.136  -4.384  1.00  0.00     0.111 C 
HETATM    3  S1  UNL     1      -2.960  15.336  -2.589  1.00  0.00    -0.165 SA
HETATM    4  C3  UNL     1      -3.085  17.084  -2.207  1.00  0.00     0.089 C 
HETATM    5  C4  UNL     1      -2.510  17.950  -3.337  1.00  0.00     0.033 C 
HETATM    6  C5  UNL     1      -3.375  17.623  -4.560  1.00  0.00     0.055 C 
HETATM    7  C6  UNL     1      -1.164  17.467  -3.695  1.00  0.00     0.074 C 
HETATM    8  C7  UNL     1      -0.121  18.500  -3.900  1.00  0.00     0.065 C 
HETATM    9  C8  UNL     1      -0.359  19.640  -2.933  1.00  0.00     0.171 C 
HETATM   10  O3  UNL     1      -1.598  20.187  -3.272  1.00  0.00    -0.379 OA
HETATM   11  C9  UNL     1      -2.625  19.361  -2.908  1.00  0.00     0.072 A 
HETATM   12  C10 UNL     1      -3.990  19.993  -2.922  1.00  0.00     0.042 A 
HETATM   13  C11 UNL     1      -3.292  19.715  -1.601  1.00  0.00     0.042 A 
HETATM   14  C12 UNL     1      -1.276  16.670  -4.990  1.00  0.00     0.077 C 
ENDROOT
BRANCH   1  15
HETATM   15  O1  UNL     1      -3.059  16.190  -6.472  1.00  0.00    -0.389 OA
ATOM     16  H1  UNL     1      -3.148  17.039  -6.889  1.00  0.00     0.210 HD
ENDBRANCH   1  15
BRANCH   7  17
HETATM   17  O2  UNL     1      -0.676  16.553  -2.736  1.00  0.00    -0.389 OA
ATOM     18  H2  UNL     1      -0.026  15.972  -3.113  1.00  0.00     0.210 HD
ENDBRANCH   7  17
TORSDOF 2
ENDMDL
MODEL 5
REMARK VINA RESULT: -6.435427698      2.268      3.432
REMARK  2 active torsions:
REMARK  status: ('A' for Active; 'I' for Inactive)
REMARK    1  A    between atoms: O1_1  and  C1_3 
REMARK    2  A    between atoms: C6_9  and  O2_10 
ROOT
HETATM    1  C1  UNL     1      -1.074  17.631   0.316  1.00  0.00     0.070 C 
HETATM    2  C2  UNL     1       0.240  18.254  -0.032  1.00  0.00     0.111 C 
HETATM    3  S1  UNL     1       0.445  18.528  -1.809  1.00  0.00    -0.165 SA
HETATM    4  C3  UNL     1      -1.177  18.526  -2.573  1.00  0.00     0.089 C 
HETATM    5  C4  UNL     1      -2.155  17.615  -1.816  1.00  0.00     0.033 C 
HETATM    6  C5  UNL     1      -2.244  18.219  -0.410  1.00  0.00     0.055 C 
HETATM    7  C6  UNL     1      -1.541  16.290  -1.612  1.00  0.00     0.074 C 
HETATM    8  C7  UNL     1      -2.405  15.112  -1.864  1.00  0.00     0.065 C 
HETATM    9  C8  UNL     1      -3.336  15.421  -3.016  1.00  0.00     0.171 C 
HETATM   10  O3  UNL     1      -4.142  16.480  -2.592  1.00  0.00    -0.379 OA
HETATM   11  C9  UNL     1      -3.442  17.654  -2.544  1.00  0.00     0.072 A 
HETATM   12  C10 UNL     1      -4.281  18.896  -2.427  1.00  0.00     0.042 A 
HETATM   13  C11 UNL     1      -3.617  18.547  -3.749  1.00  0.00     0.042 A 
HETATM   14  C12 UNL     1      -1.067  16.206  -0.165  1.00  0.00     0.077 C 
ENDROOT
BRANCH   1  15
HETATM   15  O1  UNL     1      -1.217  17.660   1.699  1.00  0.00    -0.389 OA
ATOM     16  H1  UNL     1      -0.462  17.232   2.086  1.00  0.00     0.210 HD
ENDBRANCH   1  15
BRANCH   7  17
HETATM   17  O2  UNL     1      -0.375  16.140  -2.394  1.00  0.00    -0.389 OA
ATOM     18  H2  UNL     1       0.409  16.263  -1.873  1.00  0.00     0.210 HD
ENDBRANCH   7  17
TORSDOF 2
ENDMDL
