MODEL 1
REMARK VINA RESULT: -7.419212269      0.000      0.000
REMARK  2 active torsions:
REMARK  status: ('A' for Active; 'I' for Inactive)
REMARK    1  A    between atoms: C3_3  and  C4_5 
REMARK    2  A    between atoms: C4_5  and  O1_6 
ROOT
HETATM    1  C4  UNL     1       2.240  20.571   2.565  1.00  0.00     0.206 C 
HETATM    2  C5  UNL     1       0.849  20.357   3.020  1.00  0.00     0.075 C 
HETATM    3  C6  UNL     1      -0.081  19.693   2.084  1.00  0.00     0.011 C 
HETATM    4  C7  UNL     1      -0.986  20.526   1.282  1.00  0.00    -0.003 C 
HETATM    5  C8  UNL     1      -0.656  20.381  -0.204  1.00  0.00    -0.004 C 
HETATM    6  C9  UNL     1      -1.180  21.816  -0.338  1.00  0.00     0.013 C 
HETATM    7  C10 UNL     1      -0.753  21.971   1.133  1.00  0.00     0.025 C 
HETATM    8  C11 UNL     1       0.654  22.431   1.107  1.00  0.00     0.192 A 
HETATM    9  O2  UNL     1       1.386  22.715   0.000  1.00  0.00    -0.341 OA
HETATM   10  C12 UNL     1       1.480  21.424   0.512  1.00  0.00     0.195 A 
HETATM   11  C13 UNL     1       0.828  20.431  -0.395  1.00  0.00     0.076 C 
HETATM   12  O3  UNL     1       2.465  20.988   1.294  1.00  0.00    -0.311 OA
ENDROOT
BRANCH   1  13
HETATM   13  C3  UNL     1       3.116  19.369   2.751  1.00  0.00     0.081 C 
HETATM   14  C2  UNL     1       2.919  18.192   2.245  1.00  0.00    -0.003 C 
HETATM   15  C1  UNL     1       3.853  17.066   2.489  1.00  0.00     0.038 C 
HETATM   16  N1  UNL     1       4.267  19.569   3.559  1.00  0.00    -0.102 NA
ENDBRANCH   1  13
BRANCH   1  17
HETATM   17  O1  UNL     1       2.802  21.516   3.469  1.00  0.00    -0.361 OA
ATOM     18  H1  UNL     1       2.543  21.178   4.318  1.00  0.00     0.213 HD
ENDBRANCH   1  17
TORSDOF 2
ENDMDL
MODEL 2
REMARK VINA RESULT: -7.414579571      3.914      5.917
REMARK  2 active torsions:
REMARK  status: ('A' for Active; 'I' for Inactive)
REMARK    1  A    between atoms: C3_3  and  C4_5 
REMARK    2  A    between atoms: C4_5  and  O1_6 
ROOT
HETATM    1  C4  UNL     1      -2.218  20.592  -2.557  1.00  0.00     0.206 C 
HETATM    2  C5  UNL     1      -0.826  20.367  -3.001  1.00  0.00     0.075 C 
HETATM    3  C6  UNL     1       0.094  19.702  -2.056  1.00  0.00     0.011 C 
HETATM    4  C7  UNL     1       0.999  20.534  -1.252  1.00  0.00    -0.003 C 
HETATM    5  C8  UNL     1       0.658  20.399   0.232  1.00  0.00    -0.004 C 
HETATM    6  C9  UNL     1       1.190  21.831   0.362  1.00  0.00     0.013 C 
HETATM    7  C10 UNL     1       0.774  21.982  -1.113  1.00  0.00     0.025 C 
HETATM    8  C11 UNL     1      -0.630  22.450  -1.098  1.00  0.00     0.192 A 
HETATM    9  O2  UNL     1      -1.368  22.745   0.002  1.00  0.00    -0.341 OA
HETATM   10  C12 UNL     1      -1.466  21.452  -0.503  1.00  0.00     0.195 A 
HETATM   11  C13 UNL     1      -0.827  20.459   0.413  1.00  0.00     0.076 C 
HETATM   12  O3  UNL     1      -2.449  21.017  -1.289  1.00  0.00    -0.311 OA
ENDROOT
BRANCH   1  13
HETATM   13  C3  UNL     1      -3.101  19.395  -2.742  1.00  0.00     0.081 C 
HETATM   14  C2  UNL     1      -2.910  18.217  -2.236  1.00  0.00    -0.003 C 
HETATM   15  C1  UNL     1      -3.849  17.096  -2.479  1.00  0.00     0.038 C 
HETATM   16  N1  UNL     1      -4.250  19.600  -3.551  1.00  0.00    -0.102 NA
ENDBRANCH   1  13
BRANCH   1  17
HETATM   17  O1  UNL     1      -2.768  21.536  -3.469  1.00  0.00    -0.361 OA
ATOM     18  H1  UNL     1      -2.237  22.309  -3.319  1.00  0.00     0.213 HD
ENDBRANCH   1  17
TORSDOF 2
ENDMDL
MODEL 3
REMARK VINA RESULT: -7.394306584      5.197      6.777
REMARK  2 active torsions:
REMARK  status: ('A' for Active; 'I' for Inactive)
REMARK    1  A    between atoms: C3_3  and  C4_5 
REMARK    2  A    between atoms: C4_5  and  O1_6 
ROOT
HETATM    1  C4  UNL     1      -0.580  17.166  -3.665  1.00  0.00     0.206 C 
HETATM    2  C5  UNL     1      -1.263  16.666  -2.452  1.00  0.00     0.075 C 
HETATM    3  C6  UNL     1      -2.520  17.331  -2.052  1.00  0.00     0.011 C 
HETATM    4  C7  UNL     1      -2.470  18.361  -1.009  1.00  0.00    -0.003 C 
HETATM    5  C8  UNL     1      -2.876  19.716  -1.587  1.00  0.00    -0.004 C 
HETATM    6  C9  UNL     1      -1.951  20.316  -0.522  1.00  0.00     0.013 C 
HETATM    7  C10 UNL     1      -1.194  18.978  -0.613  1.00  0.00     0.025 C 
HETATM    8  C11 UNL     1      -0.172  19.155  -1.669  1.00  0.00     0.192 A 
HETATM    9  O2  UNL     1       0.077  20.294  -2.365  1.00  0.00    -0.341 OA
HETATM   10  C12 UNL     1      -0.814  19.386  -2.929  1.00  0.00     0.195 A 
HETATM   11  C13 UNL     1      -2.212  19.914  -2.914  1.00  0.00     0.076 C 
HETATM   12  O3  UNL     1      -0.500  18.505  -3.876  1.00  0.00    -0.311 OA
ENDROOT
BRANCH   1  13
HETATM   13  C3  UNL     1      -1.134  16.596  -4.936  1.00  0.00     0.081 C 
HETATM   14  C2  UNL     1      -2.330  16.780  -5.400  1.00  0.00    -0.003 C 
HETATM   15  C1  UNL     1      -2.780  16.169  -6.675  1.00  0.00     0.038 C 
HETATM   16  N1  UNL     1      -0.240  15.784  -5.683  1.00  0.00    -0.102 NA
ENDBRANCH   1  13
BRANCH   1  17
HETATM   17  O1  UNL     1       0.735  16.626  -3.621  1.00  0.00    -0.361 OA
ATOM     18  H1  UNL     1       1.235  17.241  -4.144  1.00  0.00     0.213 HD
ENDBRANCH   1  17
TORSDOF 2
ENDMDL
MODEL 4
REMARK VINA RESULT: -7.357946650      5.663      7.276
REMARK  2 active torsions:
REMARK  status: ('A' for Active; 'I' for Inactive)
REMARK    1  A    between atoms: C3_3  and  C4_5 
REMARK    2  A    between atoms: C4_5  and  O1_6 
ROOT
HETATM    1  C4  UNL     1      -2.862  17.463  -3.877  1.00  0.00     0.206 C 
HETATM    2  C5  UNL     1      -1.477  17.961  -4.020  1.00  0.00     0.075 C 
HETATM    3  C6  UNL     1      -0.712  18.219  -2.783  1.00  0.00     0.011 C 
HETATM    4  C7  UNL     1      -0.637  19.594  -2.276  1.00  0.00    -0.003 C 
HETATM    5  C8  UNL     1      -1.327  19.691  -0.916  1.00  0.00    -0.004 C 
HETATM    6  C9  UNL     1      -1.629  21.143  -1.305  1.00  0.00     0.013 C 
HETATM    7  C10 UNL     1      -1.565  20.630  -2.756  1.00  0.00     0.025 C 
HETATM    8  C11 UNL     1      -2.939  20.201  -3.101  1.00  0.00     0.192 A 
HETATM    9  O2  UNL     1      -4.037  20.304  -2.310  1.00  0.00    -0.341 OA
HETATM   10  C12 UNL     1      -3.328  19.107  -2.263  1.00  0.00     0.195 A 
HETATM   11  C13 UNL     1      -2.623  18.942  -0.956  1.00  0.00     0.076 C 
HETATM   12  O3  UNL     1      -3.664  18.001  -2.924  1.00  0.00    -0.311 OA
ENDROOT
BRANCH   1  13
HETATM   13  C3  UNL     1      -2.942  15.980  -3.673  1.00  0.00     0.081 C 
HETATM   14  C2  UNL     1      -3.285  15.375  -2.580  1.00  0.00    -0.003 C 
HETATM   15  C1  UNL     1      -3.334  13.896  -2.483  1.00  0.00     0.038 C 
HETATM   16  N1  UNL     1      -2.607  15.188  -4.803  1.00  0.00    -0.102 NA
ENDBRANCH   1  13
BRANCH   1  17
HETATM   17  O1  UNL     1      -3.472  17.642  -5.150  1.00  0.00    -0.361 OA
ATOM     18  H1  UNL     1      -4.163  18.268  -4.967  1.00  0.00     0.213 HD
ENDBRANCH   1  17
TORSDOF 2
ENDMDL
MODEL 5
REMARK VINA RESULT: -7.350291219      3.085      4.140
REMARK  2 active torsions:
REMARK  status: ('A' for Active; 'I' for Inactive)
REMARK    1  A    between atoms: C3_3  and  C4_5 
REMARK    2  A    between atoms: C4_5  and  O1_6 
ROOT
HETATM    1  C4  UNL     1       0.655  17.104   3.726  1.00  0.00     0.206 C 
HETATM    2  C5  UNL     1       1.352  16.612   2.518  1.00  0.00     0.075 C 
HETATM    3  C6  UNL     1       2.592  17.305   2.113  1.00  0.00     0.011 C 
HETATM    4  C7  UNL     1       2.516  18.325   1.061  1.00  0.00    -0.003 C 
HETATM    5  C8  UNL     1       2.887  19.695   1.629  1.00  0.00    -0.004 C 
HETATM    6  C9  UNL     1       1.948  20.262   0.558  1.00  0.00     0.013 C 
HETATM    7  C10 UNL     1       1.225  18.906   0.659  1.00  0.00     0.025 C 
HETATM    8  C11 UNL     1       0.198  19.065   1.713  1.00  0.00     0.192 A 
HETATM    9  O2  UNL     1      -0.081  20.203   2.399  1.00  0.00    -0.341 OA
HETATM   10  C12 UNL     1       0.832  19.323   2.971  1.00  0.00     0.195 A 
HETATM   11  C13 UNL     1       2.216  19.887   2.954  1.00  0.00     0.076 C 
HETATM   12  O3  UNL     1       0.540  18.441   3.925  1.00  0.00    -0.311 OA
ENDROOT
BRANCH   1  13
HETATM   13  C3  UNL     1       1.222  16.559   5.002  1.00  0.00     0.081 C 
HETATM   14  C2  UNL     1       2.428  16.737   5.442  1.00  0.00    -0.003 C 
HETATM   15  C1  UNL     1       2.890  16.153   6.724  1.00  0.00     0.038 C 
HETATM   16  N1  UNL     1       0.330  15.778   5.784  1.00  0.00    -0.102 NA
ENDBRANCH   1  13
BRANCH   1  17
HETATM   17  O1  UNL     1      -0.646  16.529   3.685  1.00  0.00    -0.361 OA
ATOM     18  H1  UNL     1      -1.157  17.124   4.220  1.00  0.00     0.213 HD
ENDBRANCH   1  17
TORSDOF 2
ENDMDL
