MODEL 1
REMARK VINA RESULT: -7.035031793      0.000      0.000
REMARK  2 active torsions:
REMARK  status: ('A' for Active; 'I' for Inactive)
REMARK    1  A    between atoms: C4_5  and  O2_6 
REMARK    2  A    between atoms: C13_17  and  O4_18 
ROOT
HETATM    1  C1  UNL     1      -1.932  20.516  -0.188  1.00  0.00     0.015 C 
HETATM    2  C2  UNL     1      -0.525  20.894   0.255  1.00  0.00     0.034 C 
HETATM    3  C3  UNL     1      -0.434  20.706   1.741  1.00  0.00     0.178 C 
HETATM    4  O1  UNL     1      -0.292  19.337   1.981  1.00  0.00    -0.354 OA
HETATM    5  C4  UNL     1       0.661  19.191   2.969  1.00  0.00     0.168 C 
HETATM    6  C5  UNL     1       0.362  17.963   3.784  1.00  0.00     0.101 C 
HETATM    7  C6  UNL     1       1.575  17.081   3.737  1.00  0.00     0.131 C 
HETATM    8  O3  UNL     1       1.540  16.148   2.709  1.00  0.00    -0.385 OA
HETATM    9  C7  UNL     1       2.876  15.849   2.396  1.00  0.00     0.168 C 
HETATM   10  C8  UNL     1       3.671  17.099   2.689  1.00  0.00     0.034 C 
HETATM   11  C9  UNL     1       2.669  18.014   3.272  1.00  0.00     0.026 C 
HETATM   12  C10 UNL     1       2.049  19.001   2.387  1.00  0.00     0.055 C 
HETATM   13  C11 UNL     1       1.961  18.673   0.947  1.00  0.00     0.013 C 
HETATM   14  C12 UNL     1       1.817  19.987   0.174  1.00  0.00     0.033 C 
HETATM   15  C13 UNL     1       0.497  20.098  -0.512  1.00  0.00     0.124 C 
ENDROOT
BRANCH   5  16
HETATM   16  O2  UNL     1       0.678  20.277   3.862  1.00  0.00    -0.365 OA
ATOM     17  H2  UNL     1      -0.044  20.249   4.479  1.00  0.00     0.213 HD
ENDBRANCH   5  16
BRANCH  15  18
HETATM   18  O4  UNL     1      -0.052  18.872  -0.867  1.00  0.00    -0.395 OA
ATOM     19  H4  UNL     1       0.236  18.642  -1.742  1.00  0.00     0.210 HD
ENDBRANCH  15  18
TORSDOF 2
ENDMDL
MODEL 2
REMARK VINA RESULT: -7.018055442      3.129      5.958
REMARK  2 active torsions:
REMARK  status: ('A' for Active; 'I' for Inactive)
REMARK    1  A    between atoms: C4_5  and  O2_6 
REMARK    2  A    between atoms: C13_17  and  O4_18 
ROOT
HETATM    1  C1  UNL     1       1.845  20.610   0.104  1.00  0.00     0.015 C 
HETATM    2  C2  UNL     1       0.447  20.968  -0.383  1.00  0.00     0.034 C 
HETATM    3  C3  UNL     1       0.390  20.725  -1.863  1.00  0.00     0.178 C 
HETATM    4  O1  UNL     1       0.256  19.348  -2.056  1.00  0.00    -0.354 OA
HETATM    5  C4  UNL     1      -0.675  19.164  -3.058  1.00  0.00     0.168 C 
HETATM    6  C5  UNL     1      -0.357  17.907  -3.820  1.00  0.00     0.101 C 
HETATM    7  C6  UNL     1      -1.569  17.025  -3.768  1.00  0.00     0.131 C 
HETATM    8  O3  UNL     1      -1.555  16.131  -2.706  1.00  0.00    -0.385 OA
HETATM    9  C7  UNL     1      -2.897  15.840  -2.412  1.00  0.00     0.168 C 
HETATM   10  C8  UNL     1      -3.687  17.076  -2.768  1.00  0.00     0.034 C 
HETATM   11  C9  UNL     1      -2.674  17.972  -3.362  1.00  0.00     0.026 C 
HETATM   12  C10 UNL     1      -2.076  18.992  -2.500  1.00  0.00     0.055 C 
HETATM   13  C11 UNL     1      -2.019  18.717  -1.048  1.00  0.00     0.013 C 
HETATM   14  C12 UNL     1      -1.894  20.059  -0.321  1.00  0.00     0.033 C 
HETATM   15  C13 UNL     1      -0.590  20.198   0.390  1.00  0.00     0.124 C 
ENDROOT
BRANCH   5  16
HETATM   16  O2  UNL     1      -0.674  20.216  -3.990  1.00  0.00    -0.365 OA
ATOM     17  H2  UNL     1      -0.606  19.906  -4.885  1.00  0.00     0.213 HD
ENDBRANCH   5  16
BRANCH  15  18
HETATM   18  O4  UNL     1      -0.046  18.987   0.801  1.00  0.00    -0.395 OA
ATOM     19  H4  UNL     1       0.220  19.058   1.710  1.00  0.00     0.210 HD
ENDBRANCH  15  18
TORSDOF 2
ENDMDL
MODEL 3
REMARK VINA RESULT: -7.002929841      1.425      4.845
REMARK  2 active torsions:
REMARK  status: ('A' for Active; 'I' for Inactive)
REMARK    1  A    between atoms: C4_5  and  O2_6 
REMARK    2  A    between atoms: C13_17  and  O4_18 
ROOT
HETATM    1  C1  UNL     1       3.247  15.768   3.528  1.00  0.00     0.015 C 
HETATM    2  C2  UNL     1       2.575  16.918   4.267  1.00  0.00     0.034 C 
HETATM    3  C3  UNL     1       3.244  18.195   3.853  1.00  0.00     0.178 C 
HETATM    4  O1  UNL     1       2.751  18.535   2.590  1.00  0.00    -0.354 OA
HETATM    5  C4  UNL     1       2.518  19.896   2.594  1.00  0.00     0.168 C 
HETATM    6  C5  UNL     1       2.722  20.448   1.210  1.00  0.00     0.101 C 
HETATM    7  C6  UNL     1       1.455  21.142   0.807  1.00  0.00     0.131 C 
HETATM    8  O3  UNL     1       0.570  20.322   0.120  1.00  0.00    -0.385 OA
HETATM    9  C7  UNL     1      -0.715  20.842   0.345  1.00  0.00     0.168 C 
HETATM   10  C8  UNL     1      -0.680  21.480   1.713  1.00  0.00     0.034 C 
HETATM   11  C9  UNL     1       0.733  21.344   2.120  1.00  0.00     0.026 C 
HETATM   12  C10 UNL     1       1.089  20.220   2.986  1.00  0.00     0.055 C 
HETATM   13  C11 UNL     1       0.249  19.005   2.916  1.00  0.00     0.013 C 
HETATM   14  C12 UNL     1       0.433  18.230   4.223  1.00  0.00     0.033 C 
HETATM   15  C13 UNL     1       1.091  16.908   4.011  1.00  0.00     0.124 C 
ENDROOT
BRANCH   5  16
HETATM   16  O2  UNL     1       3.400  20.588   3.441  1.00  0.00    -0.365 OA
ATOM     17  H2  UNL     1       3.255  21.527   3.426  1.00  0.00     0.213 HD
ENDBRANCH   5  16
BRANCH  15  18
HETATM   18  O4  UNL     1       0.848  16.360   2.758  1.00  0.00    -0.395 OA
ATOM     19  H4  UNL     1       0.227  16.907   2.293  1.00  0.00     0.210 HD
ENDBRANCH  15  18
TORSDOF 2
ENDMDL
MODEL 4
REMARK VINA RESULT: -6.985749036      3.899      6.103
REMARK  2 active torsions:
REMARK  status: ('A' for Active; 'I' for Inactive)
REMARK    1  A    between atoms: C4_5  and  O2_6 
REMARK    2  A    between atoms: C13_17  and  O4_18 
ROOT
HETATM    1  C1  UNL     1      -3.345  15.858  -3.356  1.00  0.00     0.015 C 
HETATM    2  C2  UNL     1      -2.641  16.964  -4.131  1.00  0.00     0.034 C 
HETATM    3  C3  UNL     1      -3.280  18.271  -3.767  1.00  0.00     0.178 C 
HETATM    4  O1  UNL     1      -2.786  18.644  -2.513  1.00  0.00    -0.354 OA
HETATM    5  C4  UNL     1      -2.519  19.997  -2.564  1.00  0.00     0.168 C 
HETATM    6  C5  UNL     1      -2.716  20.603  -1.202  1.00  0.00     0.101 C 
HETATM    7  C6  UNL     1      -1.434  21.280  -0.816  1.00  0.00     0.131 C 
HETATM    8  O3  UNL     1      -0.574  20.463  -0.095  1.00  0.00    -0.385 OA
HETATM    9  C7  UNL     1       0.724  20.943  -0.331  1.00  0.00     0.168 C 
HETATM   10  C8  UNL     1       0.713  21.532  -1.720  1.00  0.00     0.034 C 
HETATM   11  C9  UNL     1      -0.701  21.417  -2.131  1.00  0.00     0.026 C 
HETATM   12  C10 UNL     1      -1.080  20.272  -2.959  1.00  0.00     0.055 C 
HETATM   13  C11 UNL     1      -0.271  19.040  -2.840  1.00  0.00     0.013 C 
HETATM   14  C12 UNL     1      -0.467  18.224  -4.121  1.00  0.00     0.033 C 
HETATM   15  C13 UNL     1      -1.159  16.927  -3.865  1.00  0.00     0.124 C 
ENDROOT
BRANCH   5  16
HETATM   16  O2  UNL     1      -3.379  20.680  -3.441  1.00  0.00    -0.365 OA
ATOM     17  H2  UNL     1      -2.984  20.833  -4.291  1.00  0.00     0.213 HD
ENDBRANCH   5  16
BRANCH  15  18
HETATM   18  O4  UNL     1      -0.936  16.417  -2.592  1.00  0.00    -0.395 OA
ATOM     19  H4  UNL     1      -0.024  16.166  -2.512  1.00  0.00     0.210 HD
ENDBRANCH  15  18
TORSDOF 2
ENDMDL
MODEL 5
REMARK VINA RESULT: -6.905356437      2.723      4.748
REMARK  2 active torsions:
REMARK  status: ('A' for Active; 'I' for Inactive)
REMARK    1  A    between atoms: C4_5  and  O2_6 
REMARK    2  A    between atoms: C13_17  and  O4_18 
ROOT
HETATM    1  C1  UNL     1      -1.911  16.986  -3.677  1.00  0.00     0.015 C 
HETATM    2  C2  UNL     1      -2.728  17.727  -2.627  1.00  0.00     0.034 C 
HETATM    3  C3  UNL     1      -2.183  17.376  -1.275  1.00  0.00     0.178 C 
HETATM    4  O1  UNL     1      -1.014  18.118  -1.089  1.00  0.00    -0.354 OA
HETATM    5  C4  UNL     1      -1.029  18.590   0.208  1.00  0.00     0.168 C 
HETATM    6  C5  UNL     1       0.380  18.714   0.718  1.00  0.00     0.101 C 
HETATM    7  C6  UNL     1       0.579  20.134   1.159  1.00  0.00     0.131 C 
HETATM    8  O3  UNL     1       1.092  20.955   0.164  1.00  0.00    -0.385 OA
HETATM    9  C7  UNL     1       0.666  22.259   0.461  1.00  0.00     0.168 C 
HETATM   10  C8  UNL     1      -0.664  22.121   1.163  1.00  0.00     0.034 C 
HETATM   11  C9  UNL     1      -0.832  20.660   1.297  1.00  0.00     0.026 C 
HETATM   12  C10 UNL     1      -1.649  19.971   0.297  1.00  0.00     0.055 C 
HETATM   13  C11 UNL     1      -1.744  20.579  -1.049  1.00  0.00     0.013 C 
HETATM   14  C12 UNL     1      -3.017  20.050  -1.714  1.00  0.00     0.033 C 
HETATM   15  C13 UNL     1      -2.724  19.206  -2.909  1.00  0.00     0.124 C 
ENDROOT
BRANCH   5  16
HETATM   16  O2  UNL     1      -1.703  17.722   1.085  1.00  0.00    -0.365 OA
ATOM     17  H2  UNL     1      -1.114  17.294   1.695  1.00  0.00     0.213 HD
ENDBRANCH   5  16
BRANCH  15  18
HETATM   18  O4  UNL     1      -1.540  19.544  -3.553  1.00  0.00    -0.395 OA
ATOM     19  H4  UNL     1      -0.816  19.103  -3.126  1.00  0.00     0.210 HD
ENDBRANCH  15  18
TORSDOF 2
ENDMDL
