MODEL 1
REMARK VINA RESULT: -6.548941194      0.000      0.000
REMARK  4 active torsions:
REMARK  status: ('A' for Active; 'I' for Inactive)
REMARK    1  A    between atoms: C4_4  and  C12_17 
REMARK    2  A    between atoms: C6_7  and  O2_8 
REMARK    3  A    between atoms: C9_12  and  C10_13 
REMARK    4  A    between atoms: C10_13  and  O3_14 
ROOT
HETATM    1  C1  UNL     1       2.443  17.749   0.686  1.00  0.00     0.018 C 
HETATM    2  C2  UNL     1       1.713  18.448   1.823  1.00  0.00    -0.004 C 
HETATM    3  C3  UNL     1       0.310  17.956   1.841  1.00  0.00     0.044 C 
HETATM    4  C4  UNL     1      -0.072  18.221   3.270  1.00  0.00     0.129 C 
HETATM    5  O1  UNL     1       1.128  18.219   3.999  1.00  0.00    -0.377 OA
HETATM    6  C5  UNL     1       2.146  17.873   3.168  1.00  0.00     0.159 C 
HETATM    7  C6  UNL     1       3.498  18.300   3.520  1.00  0.00     0.148 C 
HETATM    8  C7  UNL     1       3.811  19.736   3.339  1.00  0.00     0.035 C 
HETATM    9  C8  UNL     1       3.243  20.397   2.152  1.00  0.00     0.013 C 
HETATM   10  C9  UNL     1       1.891  19.908   1.702  1.00  0.00     0.059 C 
ENDROOT
BRANCH   7  11
HETATM   11  O2  UNL     1       3.773  17.945   4.855  1.00  0.00    -0.393 OA
ATOM     12  H2  UNL     1       4.672  17.643   4.926  1.00  0.00     0.210 HD
ENDBRANCH   7  11
BRANCH  10  13
HETATM   13  C10 UNL     1       0.796  20.771   2.234  1.00  0.00     0.166 C 
HETATM   14  C11 UNL     1      -0.588  20.397   1.877  1.00  0.00     0.078 C 
HETATM   15  C12 UNL     1      -0.790  21.250   0.613  1.00  0.00     0.044 C 
HETATM   16  C13 UNL     1      -0.039  22.500   1.054  1.00  0.00     0.178 C 
HETATM   17  O4  UNL     1       0.938  22.119   1.926  1.00  0.00    -0.354 OA
BRANCH  13  18
HETATM   18  O3  UNL     1       0.895  20.723   3.647  1.00  0.00    -0.365 OA
ATOM     19  H3  UNL     1       0.465  19.921   3.922  1.00  0.00     0.213 HD
ENDBRANCH  13  18
ENDBRANCH  10  13
TORSDOF 4
ENDMDL
MODEL 2
REMARK VINA RESULT: -6.542527769      4.735      6.783
REMARK  4 active torsions:
REMARK  status: ('A' for Active; 'I' for Inactive)
REMARK    1  A    between atoms: C4_4  and  C12_17 
REMARK    2  A    between atoms: C6_7  and  O2_8 
REMARK    3  A    between atoms: C9_12  and  C10_13 
REMARK    4  A    between atoms: C10_13  and  O3_14 
ROOT
HETATM    1  C1  UNL     1      -2.472  17.876  -0.629  1.00  0.00     0.018 C 
HETATM    2  C2  UNL     1      -1.715  18.556  -1.760  1.00  0.00    -0.004 C 
HETATM    3  C3  UNL     1      -0.333  18.008  -1.785  1.00  0.00     0.044 C 
HETATM    4  C4  UNL     1       0.057  18.272  -3.212  1.00  0.00     0.129 C 
HETATM    5  O1  UNL     1      -1.143  18.325  -3.938  1.00  0.00    -0.377 OA
HETATM    6  C5  UNL     1      -2.173  18.012  -3.110  1.00  0.00     0.159 C 
HETATM    7  C6  UNL     1      -3.508  18.497  -3.454  1.00  0.00     0.148 C 
HETATM    8  C7  UNL     1      -3.762  19.943  -3.258  1.00  0.00     0.035 C 
HETATM    9  C8  UNL     1      -3.166  20.568  -2.066  1.00  0.00     0.013 C 
HETATM   10  C9  UNL     1      -1.834  20.020  -1.623  1.00  0.00     0.059 C 
ENDROOT
BRANCH   7  11
HETATM   11  O2  UNL     1      -3.798  18.167  -4.793  1.00  0.00    -0.393 OA
ATOM     12  H2  UNL     1      -3.363  18.779  -5.374  1.00  0.00     0.210 HD
ENDBRANCH   7  11
BRANCH  10  13
HETATM   13  C10 UNL     1      -0.706  20.844  -2.149  1.00  0.00     0.166 C 
HETATM   14  C11 UNL     1       0.662  20.410  -1.800  1.00  0.00     0.078 C 
HETATM   15  C12 UNL     1       0.902  21.238  -0.527  1.00  0.00     0.044 C 
HETATM   16  C13 UNL     1       0.202  22.523  -0.951  1.00  0.00     0.178 C 
HETATM   17  O4  UNL     1      -0.792  22.193  -1.825  1.00  0.00    -0.354 OA
BRANCH  13  18
HETATM   18  O3  UNL     1      -0.810  20.816  -3.562  1.00  0.00    -0.365 OA
ATOM     19  H3  UNL     1      -1.335  21.569  -3.809  1.00  0.00     0.213 HD
ENDBRANCH  13  18
ENDBRANCH  10  13
TORSDOF 4
ENDMDL
MODEL 3
REMARK VINA RESULT: -6.531822076      2.647      3.734
REMARK  4 active torsions:
REMARK  status: ('A' for Active; 'I' for Inactive)
REMARK    1  A    between atoms: C4_4  and  C12_17 
REMARK    2  A    between atoms: C6_7  and  O2_8 
REMARK    3  A    between atoms: C9_12  and  C10_13 
REMARK    4  A    between atoms: C10_13  and  O3_14 
ROOT
HETATM    1  C1  UNL     1       3.657  18.659   3.919  1.00  0.00     0.018 C 
HETATM    2  C2  UNL     1       2.836  17.491   3.394  1.00  0.00    -0.004 C 
HETATM    3  C3  UNL     1       3.670  16.746   2.413  1.00  0.00     0.044 C 
HETATM    4  C4  UNL     1       3.027  15.388   2.459  1.00  0.00     0.129 C 
HETATM    5  O1  UNL     1       2.420  15.290   3.721  1.00  0.00    -0.377 OA
HETATM    6  C5  UNL     1       2.734  16.394   4.448  1.00  0.00     0.159 C 
HETATM    7  C6  UNL     1       1.840  16.781   5.537  1.00  0.00     0.148 C 
HETATM    8  C7  UNL     1       0.542  17.380   5.150  1.00  0.00     0.035 C 
HETATM    9  C8  UNL     1       0.548  18.298   3.998  1.00  0.00     0.013 C 
HETATM   10  C9  UNL     1       1.534  17.983   2.903  1.00  0.00     0.059 C 
ENDROOT
BRANCH   7  11
HETATM   11  O2  UNL     1       1.592  15.668   6.363  1.00  0.00    -0.393 OA
ATOM     12  H2  UNL     1       1.226  15.960   7.190  1.00  0.00     0.210 HD
ENDBRANCH   7  11
BRANCH  10  13
HETATM   13  C10 UNL     1       0.891  17.212   1.798  1.00  0.00     0.166 C 
HETATM   14  C11 UNL     1       1.746  16.842   0.651  1.00  0.00     0.078 C 
HETATM   15  C12 UNL     1       1.487  18.034  -0.286  1.00  0.00     0.044 C 
HETATM   16  C13 UNL     1       0.003  18.232  -0.005  1.00  0.00     0.178 C 
HETATM   17  O4  UNL     1      -0.243  17.820   1.272  1.00  0.00    -0.354 OA
BRANCH  13  18
HETATM   18  O3  UNL     1       0.410  16.010   2.372  1.00  0.00    -0.365 OA
ATOM     19  H3  UNL     1      -0.368  15.769   1.883  1.00  0.00     0.213 HD
ENDBRANCH  13  18
ENDBRANCH  10  13
TORSDOF 4
ENDMDL
MODEL 4
REMARK VINA RESULT: -6.527946731      1.950      2.868
REMARK  4 active torsions:
REMARK  status: ('A' for Active; 'I' for Inactive)
REMARK    1  A    between atoms: C4_4  and  C12_17 
REMARK    2  A    between atoms: C6_7  and  O2_8 
REMARK    3  A    between atoms: C9_12  and  C10_13 
REMARK    4  A    between atoms: C10_13  and  O3_14 
ROOT
HETATM    1  C1  UNL     1       0.872  18.074   3.873  1.00  0.00     0.018 C 
HETATM    2  C2  UNL     1       1.238  19.087   2.799  1.00  0.00    -0.004 C 
HETATM    3  C3  UNL     1       0.512  20.351   3.091  1.00  0.00     0.044 C 
HETATM    4  C4  UNL     1       1.383  21.355   2.390  1.00  0.00     0.129 C 
HETATM    5  O1  UNL     1       2.664  20.783   2.334  1.00  0.00    -0.377 OA
HETATM    6  C5  UNL     1       2.653  19.611   3.021  1.00  0.00     0.159 C 
HETATM    7  C6  UNL     1       3.655  18.603   2.682  1.00  0.00     0.148 C 
HETATM    8  C7  UNL     1       3.464  17.879   1.403  1.00  0.00     0.035 C 
HETATM    9  C8  UNL     1       2.082  17.526   1.038  1.00  0.00     0.013 C 
HETATM   10  C9  UNL     1       1.012  18.497   1.465  1.00  0.00     0.059 C 
ENDROOT
BRANCH   7  11
HETATM   11  O2  UNL     1       4.935  19.191   2.678  1.00  0.00    -0.393 OA
ATOM     12  H2  UNL     1       5.548  18.624   3.131  1.00  0.00     0.210 HD
ENDBRANCH   7  11
BRANCH  10  13
HETATM   13  C10 UNL     1       0.658  19.436   0.360  1.00  0.00     0.166 C 
HETATM   14  C11 UNL     1      -0.372  20.455   0.649  1.00  0.00     0.078 C 
HETATM   15  C12 UNL     1      -1.635  19.720   0.171  1.00  0.00     0.044 C 
HETATM   16  C13 UNL     1      -1.050  19.024  -1.052  1.00  0.00     0.178 C 
HETATM   17  O4  UNL     1       0.276  18.804  -0.817  1.00  0.00    -0.354 OA
BRANCH  13  18
HETATM   18  O3  UNL     1       1.849  20.123   0.018  1.00  0.00    -0.365 OA
ATOM     19  H3  UNL     1       2.191  19.701  -0.762  1.00  0.00     0.213 HD
ENDBRANCH  13  18
ENDBRANCH  10  13
TORSDOF 4
ENDMDL
MODEL 5
REMARK VINA RESULT: -6.526857149      6.244      7.666
REMARK  4 active torsions:
REMARK  status: ('A' for Active; 'I' for Inactive)
REMARK    1  A    between atoms: C4_4  and  C12_17 
REMARK    2  A    between atoms: C6_7  and  O2_8 
REMARK    3  A    between atoms: C9_12  and  C10_13 
REMARK    4  A    between atoms: C10_13  and  O3_14 
ROOT
HETATM    1  C1  UNL     1      -3.652  18.697  -3.928  1.00  0.00     0.018 C 
HETATM    2  C2  UNL     1      -2.849  17.516  -3.405  1.00  0.00    -0.004 C 
HETATM    3  C3  UNL     1      -3.686  16.796  -2.409  1.00  0.00     0.044 C 
HETATM    4  C4  UNL     1      -3.073  15.424  -2.453  1.00  0.00     0.129 C 
HETATM    5  O1  UNL     1      -2.484  15.304  -3.722  1.00  0.00    -0.377 OA
HETATM    6  C5  UNL     1      -2.784  16.410  -4.453  1.00  0.00     0.159 C 
HETATM    7  C6  UNL     1      -1.895  16.771  -5.554  1.00  0.00     0.148 C 
HETATM    8  C7  UNL     1      -0.580  17.345  -5.188  1.00  0.00     0.035 C 
HETATM    9  C8  UNL     1      -0.553  18.270  -4.042  1.00  0.00     0.013 C 
HETATM   10  C9  UNL     1      -1.532  17.984  -2.933  1.00  0.00     0.059 C 
ENDROOT
BRANCH   7  11
HETATM   11  O2  UNL     1      -1.681  15.647  -6.376  1.00  0.00    -0.393 OA
ATOM     12  H2  UNL     1      -2.287  14.956  -6.136  1.00  0.00     0.210 HD
ENDBRANCH   7  11
BRANCH  10  13
HETATM   13  C10 UNL     1      -0.892  17.208  -1.831  1.00  0.00     0.166 C 
HETATM   14  C11 UNL     1      -1.743  16.853  -0.677  1.00  0.00     0.078 C 
HETATM   15  C12 UNL     1      -1.460  18.044   0.255  1.00  0.00     0.044 C 
HETATM   16  C13 UNL     1       0.024  18.220  -0.037  1.00  0.00     0.178 C 
HETATM   17  O4  UNL     1       0.255  17.800  -1.315  1.00  0.00    -0.354 OA
BRANCH  13  18
HETATM   18  O3  UNL     1      -0.432  15.996  -2.405  1.00  0.00    -0.365 OA
ATOM     19  H3  UNL     1       0.514  15.993  -2.309  1.00  0.00     0.213 HD
ENDBRANCH  13  18
ENDBRANCH  10  13
TORSDOF 4
ENDMDL
