MODEL 1
REMARK VINA RESULT: -7.260171945      0.000      0.000
REMARK  2 active torsions:
REMARK  status: ('A' for Active; 'I' for Inactive)
REMARK    1  A    between atoms: C10_11  and  O1_12 
REMARK    2  A    between atoms: C14_17  and  O2_18 
ROOT
HETATM    1  C1  UNL     1       0.456  23.591  -2.481  1.00  0.00     0.017 C 
HETATM    2  C2  UNL     1       0.053  22.359  -2.256  1.00  0.00    -0.058 C 
HETATM    3  C3  UNL     1      -0.680  21.634  -3.320  1.00  0.00     0.036 C 
HETATM    4  C4  UNL     1      -0.392  20.158  -3.325  1.00  0.00     0.011 C 
HETATM    5  C5  UNL     1      -0.100  19.604  -1.956  1.00  0.00     0.011 C 
HETATM    6  C6  UNL     1      -1.264  19.972  -1.038  1.00  0.00     0.128 C 
HETATM    7  N1  UNL     1      -0.887  21.200  -0.441  1.00  0.00    -0.377 N 
HETATM    8  C7  UNL     1      -1.265  21.446   0.868  1.00  0.00     0.059 C 
HETATM    9  C8  UNL     1      -0.534  20.709   1.953  1.00  0.00     0.047 C 
HETATM   10  C9  UNL     1       0.881  21.157   2.107  1.00  0.00     0.045 C 
HETATM   11  C10 UNL     1       1.676  21.142   0.836  1.00  0.00     0.087 C 
HETATM   12  C11 UNL     1       1.442  19.907   0.007  1.00  0.00     0.048 C 
HETATM   13  C12 UNL     1       1.025  20.370  -1.355  1.00  0.00     0.029 C 
HETATM   14  C13 UNL     1       0.309  21.690  -0.983  1.00  0.00     0.087 C 
HETATM   15  C14 UNL     1       1.306  22.283  -0.086  1.00  0.00     0.185 C 
ENDROOT
BRANCH  11  16
HETATM   16  O1  UNL     1       3.022  21.282   1.180  1.00  0.00    -0.387 OA
ATOM     17  H1  UNL     1       3.182  22.205   1.340  1.00  0.00     0.210 HD
ENDBRANCH  11  16
BRANCH  15  18
HETATM   18  O2  UNL     1       0.951  23.428   0.594  1.00  0.00    -0.390 OA
ATOM     19  H2  UNL     1       1.566  24.140   0.466  1.00  0.00     0.210 HD
ENDBRANCH  15  18
TORSDOF 2
ENDMDL
MODEL 2
REMARK VINA RESULT: -7.227145145      4.083      5.822
REMARK  2 active torsions:
REMARK  status: ('A' for Active; 'I' for Inactive)
REMARK    1  A    between atoms: C10_11  and  O1_12 
REMARK    2  A    between atoms: C14_17  and  O2_18 
ROOT
HETATM    1  C1  UNL     1      -3.983  20.701  -2.422  1.00  0.00     0.017 C 
HETATM    2  C2  UNL     1      -2.925  20.113  -1.906  1.00  0.00    -0.058 C 
HETATM    3  C3  UNL     1      -2.205  20.772  -0.792  1.00  0.00     0.036 C 
HETATM    4  C4  UNL     1      -1.619  19.791   0.186  1.00  0.00     0.011 C 
HETATM    5  C5  UNL     1      -1.206  18.491  -0.450  1.00  0.00     0.011 C 
HETATM    6  C6  UNL     1      -0.256  18.809  -1.603  1.00  0.00     0.128 C 
HETATM    7  N1  UNL     1      -1.086  18.914  -2.746  1.00  0.00    -0.377 N 
HETATM    8  C7  UNL     1      -0.597  18.479  -3.966  1.00  0.00     0.059 C 
HETATM    9  C8  UNL     1      -0.502  16.998  -4.188  1.00  0.00     0.047 C 
HETATM   10  C9  UNL     1      -1.838  16.342  -4.306  1.00  0.00     0.045 C 
HETATM   11  C10 UNL     1      -2.777  16.643  -3.177  1.00  0.00     0.087 C 
HETATM   12  C11 UNL     1      -2.113  16.592  -1.826  1.00  0.00     0.048 C 
HETATM   13  C12 UNL     1      -2.375  17.909  -1.163  1.00  0.00     0.029 C 
HETATM   14  C13 UNL     1      -2.443  18.827  -2.405  1.00  0.00     0.087 C 
HETATM   15  C14 UNL     1      -3.342  18.044  -3.260  1.00  0.00     0.185 C 
ENDROOT
BRANCH  11  16
HETATM   16  O1  UNL     1      -3.839  15.742  -3.262  1.00  0.00    -0.387 OA
ATOM     17  H1  UNL     1      -3.924  15.319  -2.415  1.00  0.00     0.210 HD
ENDBRANCH  11  16
BRANCH  15  18
HETATM   18  O2  UNL     1      -3.524  18.473  -4.556  1.00  0.00    -0.390 OA
ATOM     19  H2  UNL     1      -4.384  18.849  -4.705  1.00  0.00     0.210 HD
ENDBRANCH  15  18
TORSDOF 2
ENDMDL
MODEL 3
REMARK VINA RESULT: -7.224358868      3.589      4.953
REMARK  2 active torsions:
REMARK  status: ('A' for Active; 'I' for Inactive)
REMARK    1  A    between atoms: C10_11  and  O1_12 
REMARK    2  A    between atoms: C14_17  and  O2_18 
ROOT
HETATM    1  C1  UNL     1       3.953  20.715   2.407  1.00  0.00     0.017 C 
HETATM    2  C2  UNL     1       2.900  20.121   1.889  1.00  0.00    -0.058 C 
HETATM    3  C3  UNL     1       2.178  20.778   0.774  1.00  0.00     0.036 C 
HETATM    4  C4  UNL     1       1.600  19.794  -0.207  1.00  0.00     0.011 C 
HETATM    5  C5  UNL     1       1.193  18.491   0.427  1.00  0.00     0.011 C 
HETATM    6  C6  UNL     1       0.239  18.803   1.578  1.00  0.00     0.128 C 
HETATM    7  N1  UNL     1       1.066  18.911   2.723  1.00  0.00    -0.377 N 
HETATM    8  C7  UNL     1       0.577  18.471   3.941  1.00  0.00     0.059 C 
HETATM    9  C8  UNL     1       0.490  16.989   4.161  1.00  0.00     0.047 C 
HETATM   10  C9  UNL     1       1.829  16.341   4.281  1.00  0.00     0.045 C 
HETATM   11  C10 UNL     1       2.769  16.649   3.155  1.00  0.00     0.087 C 
HETATM   12  C11 UNL     1       2.108  16.595   1.802  1.00  0.00     0.048 C 
HETATM   13  C12 UNL     1       2.364  17.915   1.141  1.00  0.00     0.029 C 
HETATM   14  C13 UNL     1       2.424  18.832   2.384  1.00  0.00     0.087 C 
HETATM   15  C14 UNL     1       3.326  18.053   3.240  1.00  0.00     0.185 C 
ENDROOT
BRANCH  11  16
HETATM   16  O1  UNL     1       3.836  15.754   3.241  1.00  0.00    -0.387 OA
ATOM     17  H1  UNL     1       3.563  15.034   3.797  1.00  0.00     0.210 HD
ENDBRANCH  11  16
BRANCH  15  18
HETATM   18  O2  UNL     1       3.502  18.482   4.538  1.00  0.00    -0.390 OA
ATOM     19  H2  UNL     1       4.393  18.758   4.718  1.00  0.00     0.210 HD
ENDBRANCH  15  18
TORSDOF 2
ENDMDL
MODEL 4
REMARK VINA RESULT: -7.213798496      1.941      4.303
REMARK  2 active torsions:
REMARK  status: ('A' for Active; 'I' for Inactive)
REMARK    1  A    between atoms: C10_11  and  O1_12 
REMARK    2  A    between atoms: C14_17  and  O2_18 
ROOT
HETATM    1  C1  UNL     1      -0.787  24.032   2.487  1.00  0.00     0.017 C 
HETATM    2  C2  UNL     1      -0.216  22.856   2.347  1.00  0.00    -0.058 C 
HETATM    3  C3  UNL     1       0.575  22.300   3.469  1.00  0.00     0.036 C 
HETATM    4  C4  UNL     1       0.487  20.801   3.560  1.00  0.00     0.011 C 
HETATM    5  C5  UNL     1       0.312  20.133   2.222  1.00  0.00     0.011 C 
HETATM    6  C6  UNL     1       1.443  20.601   1.308  1.00  0.00     0.128 C 
HETATM    7  N1  UNL     1       0.923  21.730   0.628  1.00  0.00    -0.377 N 
HETATM    8  C7  UNL     1       1.304  21.948  -0.686  1.00  0.00     0.059 C 
HETATM    9  C8  UNL     1       0.711  21.057  -1.738  1.00  0.00     0.047 C 
HETATM   10  C9  UNL     1      -0.747  21.300  -1.950  1.00  0.00     0.045 C 
HETATM   11  C10 UNL     1      -1.570  21.252  -0.698  1.00  0.00     0.087 C 
HETATM   12  C11 UNL     1      -1.197  20.110   0.211  1.00  0.00     0.048 C 
HETATM   13  C12 UNL     1      -0.886  20.704   1.550  1.00  0.00     0.029 C 
HETATM   14  C13 UNL     1      -0.343  22.084   1.113  1.00  0.00     0.087 C 
HETATM   15  C14 UNL     1      -1.384  22.484   0.159  1.00  0.00     0.185 C 
ENDROOT
BRANCH  11  16
HETATM   16  O1  UNL     1      -2.911  21.188  -1.079  1.00  0.00    -0.387 OA
ATOM     17  H1  UNL     1      -3.367  20.658  -0.436  1.00  0.00     0.210 HD
ENDBRANCH  11  16
BRANCH  15  18
HETATM   18  O2  UNL     1      -1.164  23.625  -0.582  1.00  0.00    -0.390 OA
ATOM     19  H2  UNL     1      -1.514  23.566  -1.463  1.00  0.00     0.210 HD
ENDBRANCH  15  18
TORSDOF 2
ENDMDL
MODEL 5
REMARK VINA RESULT: -7.111343135      1.364      1.850
REMARK  2 active torsions:
REMARK  status: ('A' for Active; 'I' for Inactive)
REMARK    1  A    between atoms: C10_11  and  O1_12 
REMARK    2  A    between atoms: C14_17  and  O2_18 
ROOT
HETATM    1  C1  UNL     1       1.809  22.948  -0.669  1.00  0.00     0.017 C 
HETATM    2  C2  UNL     1       1.082  21.858  -0.782  1.00  0.00    -0.058 C 
HETATM    3  C3  UNL     1       0.145  21.731  -1.922  1.00  0.00     0.036 C 
HETATM    4  C4  UNL     1       0.005  20.314  -2.409  1.00  0.00     0.011 C 
HETATM    5  C5  UNL     1       0.168  19.291  -1.317  1.00  0.00     0.011 C 
HETATM    6  C6  UNL     1      -0.818  19.629  -0.201  1.00  0.00     0.128 C 
HETATM    7  N1  UNL     1      -0.094  20.456   0.693  1.00  0.00    -0.377 N 
HETATM    8  C7  UNL     1      -0.350  20.354   2.049  1.00  0.00     0.059 C 
HETATM    9  C8  UNL     1       0.174  19.144   2.766  1.00  0.00     0.047 C 
HETATM   10  C9  UNL     1       1.662  19.138   2.882  1.00  0.00     0.045 C 
HETATM   11  C10 UNL     1       2.384  19.330   1.583  1.00  0.00     0.087 C 
HETATM   12  C11 UNL     1       1.788  18.534   0.451  1.00  0.00     0.048 C 
HETATM   13  C12 UNL     1       1.480  19.505  -0.647  1.00  0.00     0.029 C 
HETATM   14  C13 UNL     1       1.176  20.770   0.188  1.00  0.00     0.087 C 
HETATM   15  C14 UNL     1       2.324  20.763   1.100  1.00  0.00     0.185 C 
ENDROOT
BRANCH  11  16
HETATM   16  O1  UNL     1       3.723  19.000   1.793  1.00  0.00    -0.387 OA
ATOM     17  H1  UNL     1       4.193  19.180   0.987  1.00  0.00     0.210 HD
ENDBRANCH  11  16
BRANCH  15  18
HETATM   18  O2  UNL     1       2.325  21.676   2.131  1.00  0.00    -0.390 OA
ATOM     19  H2  UNL     1       2.466  22.568   1.836  1.00  0.00     0.210 HD
ENDBRANCH  15  18
TORSDOF 2
ENDMDL
