MODEL 1
REMARK VINA RESULT: -7.489203541      0.000      0.000
REMARK  2 active torsions:
REMARK  status: ('A' for Active; 'I' for Inactive)
REMARK    1  A    between atoms: C11_13  and  O2_14 
REMARK    2  A    between atoms: C13_17  and  O3_18 
ROOT
HETATM    1  C1  UNL     1      -2.999  17.425  -4.400  1.00  0.00     0.017 C 
HETATM    2  C2  UNL     1      -2.972  18.068  -3.236  1.00  0.00    -0.057 C 
HETATM    3  C3  UNL     1      -2.110  17.480  -2.182  1.00  0.00     0.036 C 
HETATM    4  C4  UNL     1      -0.632  17.669  -2.421  1.00  0.00     0.005 C 
HETATM    5  C5  UNL     1       0.071  18.624  -1.532  1.00  0.00     0.007 C 
HETATM    6  C6  UNL     1       0.303  20.021  -2.148  1.00  0.00     0.024 C 
HETATM    7  C7  UNL     1       0.612  20.920  -0.944  1.00  0.00     0.008 C 
HETATM    8  C8  UNL     1      -0.544  20.982  -0.012  1.00  0.00     0.031 C 
HETATM    9  C9  UNL     1      -1.893  20.917  -0.653  1.00  0.00     0.277 C 
HETATM   10  N1  UNL     1      -1.997  20.108  -1.805  1.00  0.00     0.130 N 
HETATM   11  C10 UNL     1      -3.130  20.504  -2.583  1.00  0.00     0.395 C 
HETATM   12  O1  UNL     1      -2.689  21.449  -3.501  1.00  0.00    -0.322 OA
HETATM   13  C11 UNL     1      -1.336  21.752  -3.154  1.00  0.00     0.293 C 
HETATM   14  C12 UNL     1      -0.933  20.378  -2.787  1.00  0.00     0.285 C 
HETATM   15  C13 UNL     1      -3.787  19.292  -3.096  1.00  0.00     0.205 C 
ENDROOT
BRANCH  13  16
HETATM   16  O2  UNL     1      -0.726  22.100  -4.377  1.00  0.00    -0.369 OA
ATOM     17  H2  UNL     1      -0.524  21.267  -4.787  1.00  0.00     0.212 HD
ENDBRANCH  13  16
BRANCH  15  18
HETATM   18  O3  UNL     1      -4.432  19.595  -4.280  1.00  0.00    -0.387 OA
ATOM     19  H3  UNL     1      -5.069  20.289  -4.153  1.00  0.00     0.210 HD
ENDBRANCH  15  18
TORSDOF 2
ENDMDL
MODEL 2
REMARK VINA RESULT: -7.482113996      2.162      3.212
REMARK  2 active torsions:
REMARK  status: ('A' for Active; 'I' for Inactive)
REMARK    1  A    between atoms: C11_13  and  O2_14 
REMARK    2  A    between atoms: C13_17  and  O3_18 
ROOT
HETATM    1  C1  UNL     1      -1.628  16.967  -5.567  1.00  0.00     0.017 C 
HETATM    2  C2  UNL     1      -1.414  16.847  -4.259  1.00  0.00    -0.057 C 
HETATM    3  C3  UNL     1      -0.215  17.538  -3.726  1.00  0.00     0.036 C 
HETATM    4  C4  UNL     1      -0.351  19.038  -3.655  1.00  0.00     0.005 C 
HETATM    5  C5  UNL     1      -0.477  19.634  -2.304  1.00  0.00     0.007 C 
HETATM    6  C6  UNL     1      -1.923  19.986  -1.890  1.00  0.00     0.024 C 
HETATM    7  C7  UNL     1      -1.855  20.146  -0.367  1.00  0.00     0.008 C 
HETATM    8  C8  UNL     1      -1.455  18.873   0.287  1.00  0.00     0.031 C 
HETATM    9  C9  UNL     1      -1.942  17.625  -0.378  1.00  0.00     0.277 C 
HETATM   10  N1  UNL     1      -2.028  17.663  -1.787  1.00  0.00     0.130 N 
HETATM   11  C10 UNL     1      -2.936  16.662  -2.251  1.00  0.00     0.395 C 
HETATM   12  O1  UNL     1      -4.191  17.251  -2.334  1.00  0.00    -0.322 OA
HETATM   13  C11 UNL     1      -4.070  18.549  -1.749  1.00  0.00     0.293 C 
HETATM   14  C12 UNL     1      -2.727  18.862  -2.281  1.00  0.00     0.285 C 
HETATM   15  C13 UNL     1      -2.372  16.053  -3.466  1.00  0.00     0.205 C 
ENDROOT
BRANCH  13  16
HETATM   16  O2  UNL     1      -5.027  19.333  -2.426  1.00  0.00    -0.369 OA
ATOM     17  H2  UNL     1      -4.569  19.660  -3.192  1.00  0.00     0.212 HD
ENDBRANCH  13  16
BRANCH  15  18
HETATM   18  O3  UNL     1      -3.406  15.588  -4.258  1.00  0.00    -0.387 OA
ATOM     19  H3  UNL     1      -3.436  16.053  -5.085  1.00  0.00     0.210 HD
ENDBRANCH  15  18
TORSDOF 2
ENDMDL
MODEL 3
REMARK VINA RESULT: -7.476481201      5.377      7.187
REMARK  2 active torsions:
REMARK  status: ('A' for Active; 'I' for Inactive)
REMARK    1  A    between atoms: C11_13  and  O2_14 
REMARK    2  A    between atoms: C13_17  and  O3_18 
ROOT
HETATM    1  C1  UNL     1       3.034  17.454   4.294  1.00  0.00     0.017 C 
HETATM    2  C2  UNL     1       2.985  18.132   3.151  1.00  0.00    -0.057 C 
HETATM    3  C3  UNL     1       2.120  17.562   2.089  1.00  0.00     0.036 C 
HETATM    4  C4  UNL     1       0.643  17.719   2.349  1.00  0.00     0.005 C 
HETATM    5  C5  UNL     1      -0.086  18.689   1.497  1.00  0.00     0.007 C 
HETATM    6  C6  UNL     1      -0.333  20.063   2.157  1.00  0.00     0.024 C 
HETATM    7  C7  UNL     1      -0.670  20.993   0.985  1.00  0.00     0.008 C 
HETATM    8  C8  UNL     1       0.474  21.102   0.043  1.00  0.00     0.031 C 
HETATM    9  C9  UNL     1       1.832  21.039   0.667  1.00  0.00     0.277 C 
HETATM   10  N1  UNL     1       1.961  20.198   1.793  1.00  0.00     0.130 N 
HETATM   11  C10 UNL     1       3.096  20.589   2.571  1.00  0.00     0.395 C 
HETATM   12  O1  UNL     1       2.650  21.498   3.521  1.00  0.00    -0.322 OA
HETATM   13  C11 UNL     1       1.289  21.790   3.198  1.00  0.00     0.293 C 
HETATM   14  C12 UNL     1       0.904  20.421   2.794  1.00  0.00     0.285 C 
HETATM   15  C13 UNL     1       3.778  19.372   3.039  1.00  0.00     0.205 C 
ENDROOT
BRANCH  13  16
HETATM   16  O2  UNL     1       0.687  22.090   4.438  1.00  0.00    -0.369 OA
ATOM     17  H2  UNL     1       0.552  21.244   4.848  1.00  0.00     0.212 HD
ENDBRANCH  13  16
BRANCH  15  18
HETATM   18  O3  UNL     1       4.432  19.650   4.225  1.00  0.00    -0.387 OA
ATOM     19  H3  UNL     1       4.673  20.567   4.274  1.00  0.00     0.210 HD
ENDBRANCH  15  18
TORSDOF 2
ENDMDL
MODEL 4
REMARK VINA RESULT: -7.254098551      6.078      7.672
REMARK  2 active torsions:
REMARK  status: ('A' for Active; 'I' for Inactive)
REMARK    1  A    between atoms: C11_13  and  O2_14 
REMARK    2  A    between atoms: C13_17  and  O3_18 
ROOT
HETATM    1  C1  UNL     1       1.707  16.903   5.621  1.00  0.00     0.017 C 
HETATM    2  C2  UNL     1       1.410  16.895   4.325  1.00  0.00    -0.057 C 
HETATM    3  C3  UNL     1       0.256  17.731   3.912  1.00  0.00     0.036 C 
HETATM    4  C4  UNL     1       0.534  19.213   3.929  1.00  0.00     0.005 C 
HETATM    5  C5  UNL     1       0.642  19.887   2.613  1.00  0.00     0.007 C 
HETATM    6  C6  UNL     1       2.090  20.130   2.134  1.00  0.00     0.024 C 
HETATM    7  C7  UNL     1       1.953  20.401   0.632  1.00  0.00     0.008 C 
HETATM    8  C8  UNL     1       1.395  19.220  -0.077  1.00  0.00     0.031 C 
HETATM    9  C9  UNL     1       1.794  17.889   0.476  1.00  0.00     0.277 C 
HETATM   10  N1  UNL     1       1.961  17.821   1.876  1.00  0.00     0.130 N 
HETATM   11  C10 UNL     1       2.792  16.708   2.218  1.00  0.00     0.395 C 
HETATM   12  O1  UNL     1       4.101  17.170   2.260  1.00  0.00    -0.322 OA
HETATM   13  C11 UNL     1       4.076  18.511   1.768  1.00  0.00     0.293 C 
HETATM   14  C12 UNL     1       2.801  18.911   2.402  1.00  0.00     0.285 C 
HETATM   15  C13 UNL     1       2.240  16.071   3.424  1.00  0.00     0.205 C 
ENDROOT
BRANCH  13  16
HETATM   16  O2  UNL     1       5.140  19.154   2.433  1.00  0.00    -0.369 OA
ATOM     17  H2  UNL     1       5.379  19.874   1.861  1.00  0.00     0.212 HD
ENDBRANCH  13  16
BRANCH  15  18
HETATM   18  O3  UNL     1       3.266  15.458   4.119  1.00  0.00    -0.387 OA
ATOM     19  H3  UNL     1       3.597  16.023   4.806  1.00  0.00     0.210 HD
ENDBRANCH  15  18
TORSDOF 2
ENDMDL
MODEL 5
REMARK VINA RESULT: -7.236093921      0.980      1.016
REMARK  2 active torsions:
REMARK  status: ('A' for Active; 'I' for Inactive)
REMARK    1  A    between atoms: C11_13  and  O2_14 
REMARK    2  A    between atoms: C13_17  and  O3_18 
ROOT
HETATM    1  C1  UNL     1      -3.004  16.897  -3.664  1.00  0.00     0.017 C 
HETATM    2  C2  UNL     1      -2.709  17.450  -2.491  1.00  0.00    -0.057 C 
HETATM    3  C3  UNL     1      -1.440  17.010  -1.861  1.00  0.00     0.036 C 
HETATM    4  C4  UNL     1      -0.202  17.554  -2.529  1.00  0.00     0.005 C 
HETATM    5  C5  UNL     1       0.560  18.584  -1.785  1.00  0.00     0.007 C 
HETATM    6  C6  UNL     1       0.287  20.035  -2.239  1.00  0.00     0.024 C 
HETATM    7  C7  UNL     1       0.805  20.899  -1.083  1.00  0.00     0.008 C 
HETATM    8  C8  UNL     1       0.051  20.627   0.168  1.00  0.00     0.031 C 
HETATM    9  C9  UNL     1      -1.396  20.292  -0.011  1.00  0.00     0.277 C 
HETATM   10  N1  UNL     1      -1.726  19.560  -1.173  1.00  0.00     0.130 N 
HETATM   11  C10 UNL     1      -3.111  19.732  -1.485  1.00  0.00     0.395 C 
HETATM   12  O1  UNL     1      -3.206  20.813  -2.352  1.00  0.00    -0.322 OA
HETATM   13  C11 UNL     1      -1.905  21.400  -2.415  1.00  0.00     0.293 C 
HETATM   14  C12 UNL     1      -1.137  20.136  -2.394  1.00  0.00     0.285 C 
HETATM   15  C13 UNL     1      -3.650  18.437  -1.927  1.00  0.00     0.205 C 
ENDROOT
BRANCH  13  16
HETATM   16  O2  UNL     1      -1.831  21.960  -3.707  1.00  0.00    -0.369 OA
ATOM     17  H2  UNL     1      -1.182  21.434  -4.159  1.00  0.00     0.212 HD
ENDBRANCH  13  16
BRANCH  15  18
HETATM   18  O3  UNL     1      -4.708  18.660  -2.789  1.00  0.00    -0.387 OA
ATOM     19  H3  UNL     1      -5.106  19.508  -2.628  1.00  0.00     0.210 HD
ENDBRANCH  15  18
TORSDOF 2
ENDMDL
