MODEL 1
REMARK VINA RESULT: -5.877036859      0.000      0.000
REMARK  9 active torsions:
REMARK  status: ('A' for Active; 'I' for Inactive)
REMARK    1  A    between atoms: C2_2  and  O1_4 
REMARK    2  A    between atoms: O1_4  and  C4_5 
REMARK    3  A    between atoms: C6_8  and  O3_9 
REMARK    4  A    between atoms: O3_9  and  C7_10 
REMARK    5  A    between atoms: C9_13  and  N1_14 
REMARK    6  A    between atoms: N1_14  and  C10_16 
REMARK    7  A    between atoms: C11_20  and  O5_21 
REMARK    8  A    between atoms: C12_23  and  O6_24 
REMARK    9  A    between atoms: C13_26  and  N3_27 
ROOT
HETATM    1  C4  UNL     1       2.290  17.371   3.674  1.00  0.00     0.178 C 
HETATM    2  C5  UNL     1       1.169  18.140   3.029  1.00  0.00     0.205 C 
HETATM    3  O2  UNL     1       1.499  18.644   1.786  1.00  0.00    -0.356 OA
HETATM    4  C6  UNL     1       2.556  19.532   1.929  1.00  0.00     0.293 C 
HETATM    5  C12 UNL     1       3.776  18.688   2.135  1.00  0.00     0.206 C 
HETATM    6  C13 UNL     1       3.642  17.971   3.442  1.00  0.00     0.247 C 
ENDROOT
BRANCH   4   7
HETATM    7  O3  UNL     1       2.652  20.444   0.919  1.00  0.00    -0.325 OA
BRANCH   7   8
HETATM    8  C7  UNL     1       1.767  21.478   0.863  1.00  0.00     0.301 C 
HETATM    9  O4  UNL     1       1.792  22.350   1.903  1.00  0.00    -0.355 OA
HETATM   10  C8  UNL     1       0.642  23.032   2.190  1.00  0.00     0.207 C 
HETATM   11  C9  UNL     1       0.227  24.009   1.121  1.00  0.00     0.172 C 
HETATM   12  S2  UNL     1       0.348  23.237  -0.540  1.00  0.00    -0.105 SA
HETATM   13  C11 UNL     1       1.904  22.278  -0.447  1.00  0.00     0.236 C 
BRANCH  11  14
HETATM   14  N1  UNL     1       1.142  25.143   1.090  1.00  0.00    -0.354 N 
ATOM     15  H1  UNL     1       1.859  25.236   1.808  1.00  0.00     0.162 HD
BRANCH  14  16
HETATM   16  C10 UNL     1       1.037  26.119   0.061  1.00  0.00     0.182 C 
HETATM   17  N2  UNL     1       2.068  26.265  -0.900  1.00  0.00    -0.070 NA
HETATM   18  S1  UNL     1      -0.274  27.106  -0.053  1.00  0.00    -0.044 SA
ENDBRANCH  14  16
ENDBRANCH  11  14
BRANCH  13  19
HETATM   19  O5  UNL     1       2.926  23.191  -0.409  1.00  0.00    -0.380 OA
ATOM     20  H5  UNL     1       2.671  24.043  -0.744  1.00  0.00     0.211 HD
ENDBRANCH  13  19
ENDBRANCH   7   8
ENDBRANCH   4   7
BRANCH   5  21
HETATM   21  O6  UNL     1       4.956  19.418   2.088  1.00  0.00    -0.388 OA
ATOM     22  H6  UNL     1       5.479  19.331   2.876  1.00  0.00     0.210 HD
ENDBRANCH   5  21
BRANCH   6  23
HETATM   23  N3  UNL     1       4.013  18.905   4.491  1.00  0.00    -0.070 N 
ATOM     24  H33 UNL     1       3.944  19.870   4.168  1.00  0.00     0.274 HD
ATOM     25  H32 UNL     1       3.310  18.930   5.229  1.00  0.00     0.274 HD
ATOM     26  H31 UNL     1       4.939  18.708   4.870  1.00  0.00     0.274 HD
ENDBRANCH   6  23
BRANCH   1  27
HETATM   27  O1  UNL     1       1.959  17.220   5.013  1.00  0.00    -0.377 OA
BRANCH  27  28
HETATM   28  C2  UNL     1       1.870  15.898   5.410  1.00  0.00     0.114 C 
HETATM   29  C1  UNL     1       0.453  15.408   5.589  1.00  0.00     0.039 C 
HETATM   30  C3  UNL     1       2.546  15.804   6.784  1.00  0.00     0.039 C 
ENDBRANCH  27  28
ENDBRANCH   1  27
TORSDOF 9
ENDMDL
MODEL 2
REMARK VINA RESULT: -5.765807398      4.525      7.836
REMARK  9 active torsions:
REMARK  status: ('A' for Active; 'I' for Inactive)
REMARK    1  A    between atoms: C2_2  and  O1_4 
REMARK    2  A    between atoms: O1_4  and  C4_5 
REMARK    3  A    between atoms: C6_8  and  O3_9 
REMARK    4  A    between atoms: O3_9  and  C7_10 
REMARK    5  A    between atoms: C9_13  and  N1_14 
REMARK    6  A    between atoms: N1_14  and  C10_16 
REMARK    7  A    between atoms: C11_20  and  O5_21 
REMARK    8  A    between atoms: C12_23  and  O6_24 
REMARK    9  A    between atoms: C13_26  and  N3_27 
ROOT
HETATM    1  C4  UNL     1       1.820  19.958  -0.128  1.00  0.00     0.178 C 
HETATM    2  C5  UNL     1       2.358  20.603   1.120  1.00  0.00     0.205 C 
HETATM    3  O2  UNL     1       3.262  19.808   1.797  1.00  0.00    -0.356 OA
HETATM    4  C6  UNL     1       2.622  18.644   2.200  1.00  0.00     0.293 C 
HETATM    5  C12 UNL     1       2.492  17.800   0.969  1.00  0.00     0.206 C 
HETATM    6  C13 UNL     1       1.567  18.489   0.016  1.00  0.00     0.247 C 
ENDROOT
BRANCH   4   7
HETATM    7  O3  UNL     1       3.215  18.026   3.261  1.00  0.00    -0.325 OA
BRANCH   7   8
HETATM    8  C7  UNL     1       2.438  17.441   4.215  1.00  0.00     0.301 C 
HETATM    9  O4  UNL     1       1.108  17.370   3.950  1.00  0.00    -0.355 OA
HETATM   10  C8  UNL     1       0.248  17.325   5.012  1.00  0.00     0.207 C 
HETATM   11  C9  UNL     1       0.355  16.067   5.833  1.00  0.00     0.172 C 
HETATM   12  S2  UNL     1       2.114  15.661   6.164  1.00  0.00    -0.105 SA
HETATM   13  C11 UNL     1       2.939  16.028   4.573  1.00  0.00     0.236 C 
BRANCH  11  14
HETATM   14  N1  UNL     1      -0.173  14.931   5.088  1.00  0.00    -0.354 N 
ATOM     15  H1  UNL     1       0.077  13.982   5.365  1.00  0.00     0.162 HD
BRANCH  14  16
HETATM   16  C10 UNL     1      -1.034  15.142   3.977  1.00  0.00     0.182 C 
HETATM   17  N2  UNL     1      -0.529  15.083   2.654  1.00  0.00    -0.070 NA
HETATM   18  S1  UNL     1      -2.636  15.458   4.182  1.00  0.00    -0.044 SA
ENDBRANCH  14  16
ENDBRANCH  11  14
BRANCH  13  19
HETATM   19  O5  UNL     1       2.519  15.072   3.684  1.00  0.00    -0.380 OA
ATOM     20  H5  UNL     1       3.184  14.418   3.505  1.00  0.00     0.211 HD
ENDBRANCH  13  19
ENDBRANCH   7   8
ENDBRANCH   4   7
BRANCH   5  21
HETATM   21  O6  UNL     1       2.057  16.509   1.239  1.00  0.00    -0.388 OA
ATOM     22  H6  UNL     1       1.324  16.243   0.697  1.00  0.00     0.210 HD
ENDBRANCH   5  21
BRANCH   6  23
HETATM   23  N3  UNL     1       0.209  18.207   0.448  1.00  0.00    -0.070 N 
ATOM     24  H33 UNL     1      -0.087  18.851   1.182  1.00  0.00     0.274 HD
ATOM     25  H32 UNL     1      -0.468  18.461  -0.271  1.00  0.00     0.274 HD
ATOM     26  H31 UNL     1       0.091  17.237   0.740  1.00  0.00     0.274 HD
ENDBRANCH   6  23
BRANCH   1  27
HETATM   27  O1  UNL     1       0.705  20.689  -0.513  1.00  0.00    -0.377 OA
BRANCH  27  28
HETATM   28  C2  UNL     1       0.768  21.137  -1.820  1.00  0.00     0.114 C 
HETATM   29  C1  UNL     1       0.584  22.629  -1.965  1.00  0.00     0.039 C 
HETATM   30  C3  UNL     1      -0.396  20.476  -2.569  1.00  0.00     0.039 C 
ENDBRANCH  27  28
ENDBRANCH   1  27
TORSDOF 9
ENDMDL
MODEL 3
REMARK VINA RESULT: -5.735754483      4.064      7.854
REMARK  9 active torsions:
REMARK  status: ('A' for Active; 'I' for Inactive)
REMARK    1  A    between atoms: C2_2  and  O1_4 
REMARK    2  A    between atoms: O1_4  and  C4_5 
REMARK    3  A    between atoms: C6_8  and  O3_9 
REMARK    4  A    between atoms: O3_9  and  C7_10 
REMARK    5  A    between atoms: C9_13  and  N1_14 
REMARK    6  A    between atoms: N1_14  and  C10_16 
REMARK    7  A    between atoms: C11_20  and  O5_21 
REMARK    8  A    between atoms: C12_23  and  O6_24 
REMARK    9  A    between atoms: C13_26  and  N3_27 
ROOT
HETATM    1  C4  UNL     1       2.503  20.765   0.900  1.00  0.00     0.178 C 
HETATM    2  C5  UNL     1       2.880  21.092   2.319  1.00  0.00     0.205 C 
HETATM    3  O2  UNL     1       3.665  20.123   2.911  1.00  0.00    -0.356 OA
HETATM    4  C6  UNL     1       2.951  18.934   2.957  1.00  0.00     0.293 C 
HETATM    5  C12 UNL     1       2.973  18.388   1.563  1.00  0.00     0.206 C 
HETATM    6  C13 UNL     1       2.201  19.315   0.677  1.00  0.00     0.247 C 
ENDROOT
BRANCH   4   7
HETATM    7  O3  UNL     1       3.379  18.068   3.920  1.00  0.00    -0.325 OA
BRANCH   7   8
HETATM    8  C7  UNL     1       2.463  17.402   4.677  1.00  0.00     0.301 C 
HETATM    9  O4  UNL     1       1.189  17.387   4.208  1.00  0.00    -0.355 OA
HETATM   10  C8  UNL     1       0.177  17.248   5.117  1.00  0.00     0.207 C 
HETATM   11  C9  UNL     1       0.152  15.908   5.805  1.00  0.00     0.172 C 
HETATM   12  S2  UNL     1       1.838  15.433   6.353  1.00  0.00    -0.105 SA
HETATM   13  C11 UNL     1       2.898  15.949   4.953  1.00  0.00     0.236 C 
BRANCH  11  14
HETATM   14  N1  UNL     1      -0.261  14.868   4.872  1.00  0.00    -0.354 N 
ATOM     15  H1  UNL     1       0.209  13.964   4.878  1.00  0.00     0.162 HD
BRANCH  14  16
HETATM   16  C10 UNL     1      -1.316  15.111   3.951  1.00  0.00     0.182 C 
HETATM   17  N2  UNL     1      -2.637  15.340   4.412  1.00  0.00    -0.070 NA
HETATM   18  S1  UNL     1      -1.048  15.137   2.327  1.00  0.00    -0.044 SA
ENDBRANCH  14  16
ENDBRANCH  11  14
BRANCH  13  19
HETATM   19  O5  UNL     1       2.614  15.101   3.914  1.00  0.00    -0.380 OA
ATOM     20  H5  UNL     1       2.580  14.190   4.179  1.00  0.00     0.211 HD
ENDBRANCH  13  19
ENDBRANCH   7   8
ENDBRANCH   4   7
BRANCH   5  21
HETATM   21  O6  UNL     1       2.477  17.093   1.478  1.00  0.00    -0.388 OA
ATOM     22  H6  UNL     1       2.848  16.600   0.757  1.00  0.00     0.210 HD
ENDBRANCH   5  21
BRANCH   6  23
HETATM   23  N3  UNL     1       0.791  19.017   0.857  1.00  0.00    -0.070 N 
ATOM     24  H33 UNL     1       0.385  19.582   1.603  1.00  0.00     0.274 HD
ATOM     25  H32 UNL     1       0.237  19.361   0.073  1.00  0.00     0.274 HD
ATOM     26  H31 UNL     1       0.626  18.023   1.017  1.00  0.00     0.274 HD
ENDBRANCH   6  23
BRANCH   1  27
HETATM   27  O1  UNL     1       1.468  21.620   0.548  1.00  0.00    -0.377 OA
BRANCH  27  28
HETATM   28  C2  UNL     1       1.708  22.320  -0.620  1.00  0.00     0.114 C 
HETATM   29  C1  UNL     1       1.458  23.805  -0.504  1.00  0.00     0.039 C 
HETATM   30  C3  UNL     1       0.719  21.788  -1.664  1.00  0.00     0.039 C 
ENDBRANCH  27  28
ENDBRANCH   1  27
TORSDOF 9
ENDMDL
MODEL 4
REMARK VINA RESULT: -5.386173488      1.015      1.140
REMARK  9 active torsions:
REMARK  status: ('A' for Active; 'I' for Inactive)
REMARK    1  A    between atoms: C2_2  and  O1_4 
REMARK    2  A    between atoms: O1_4  and  C4_5 
REMARK    3  A    between atoms: C6_8  and  O3_9 
REMARK    4  A    between atoms: O3_9  and  C7_10 
REMARK    5  A    between atoms: C9_13  and  N1_14 
REMARK    6  A    between atoms: N1_14  and  C10_16 
REMARK    7  A    between atoms: C11_20  and  O5_21 
REMARK    8  A    between atoms: C12_23  and  O6_24 
REMARK    9  A    between atoms: C13_26  and  N3_27 
ROOT
HETATM    1  C4  UNL     1       2.285  16.611   3.028  1.00  0.00     0.178 C 
HETATM    2  C5  UNL     1       1.228  17.336   2.240  1.00  0.00     0.205 C 
HETATM    3  O2  UNL     1       1.745  18.104   1.215  1.00  0.00    -0.356 OA
HETATM    4  C6  UNL     1       2.570  19.080   1.759  1.00  0.00     0.293 C 
HETATM    5  C12 UNL     1       3.836  18.378   2.143  1.00  0.00     0.206 C 
HETATM    6  C13 UNL     1       3.529  17.415   3.247  1.00  0.00     0.247 C 
ENDROOT
BRANCH   4   7
HETATM    7  O3  UNL     1       2.738  20.171   0.958  1.00  0.00    -0.325 OA
BRANCH   7   8
HETATM    8  C7  UNL     1       1.804  21.163   0.972  1.00  0.00     0.301 C 
HETATM    9  O4  UNL     1       1.836  22.005   2.036  1.00  0.00    -0.355 OA
HETATM   10  C8  UNL     1       0.670  22.624   2.393  1.00  0.00     0.207 C 
HETATM   11  C9  UNL     1       0.162  23.610   1.373  1.00  0.00     0.172 C 
HETATM   12  S2  UNL     1       0.243  22.890  -0.314  1.00  0.00    -0.105 SA
HETATM   13  C11 UNL     1       1.845  22.005  -0.318  1.00  0.00     0.236 C 
BRANCH  11  14
HETATM   14  N1  UNL     1       1.021  24.786   1.336  1.00  0.00    -0.354 N 
ATOM     15  H1  UNL     1       1.756  24.900   2.033  1.00  0.00     0.162 HD
BRANCH  14  16
HETATM   16  C10 UNL     1       0.836  25.775   0.332  1.00  0.00     0.182 C 
HETATM   17  N2  UNL     1       1.825  25.985  -0.663  1.00  0.00    -0.070 NA
HETATM   18  S1  UNL     1      -0.520  26.706   0.284  1.00  0.00    -0.044 SA
ENDBRANCH  14  16
ENDBRANCH  11  14
BRANCH  13  19
HETATM   19  O5  UNL     1       2.823  22.964  -0.298  1.00  0.00    -0.380 OA
ATOM     20  H5  UNL     1       3.376  22.943  -1.070  1.00  0.00     0.211 HD
ENDBRANCH  13  19
ENDBRANCH   7   8
ENDBRANCH   4   7
BRANCH   5  21
HETATM   21  O6  UNL     1       4.850  19.251   2.514  1.00  0.00    -0.388 OA
ATOM     22  H6  UNL     1       5.381  19.537   1.780  1.00  0.00     0.210 HD
ENDBRANCH   5  21
BRANCH   6  23
HETATM   23  N3  UNL     1       3.480  18.174   4.485  1.00  0.00    -0.070 N 
ATOM     24  H33 UNL     1       3.784  17.608   5.278  1.00  0.00     0.274 HD
ATOM     25  H32 UNL     1       4.205  18.890   4.509  1.00  0.00     0.274 HD
ATOM     26  H31 UNL     1       2.558  18.577   4.652  1.00  0.00     0.274 HD
ENDBRANCH   6  23
BRANCH   1  27
HETATM   27  O1  UNL     1       1.684  16.167   4.198  1.00  0.00    -0.377 OA
BRANCH  27  28
HETATM   28  C2  UNL     1       0.367  16.570   4.325  1.00  0.00     0.114 C 
HETATM   29  C1  UNL     1       0.111  17.451   5.524  1.00  0.00     0.039 C 
HETATM   30  C3  UNL     1      -0.465  15.298   4.527  1.00  0.00     0.039 C 
ENDBRANCH  27  28
ENDBRANCH   1  27
TORSDOF 9
ENDMDL
MODEL 5
REMARK VINA RESULT: -5.368395793      3.279      8.346
REMARK  9 active torsions:
REMARK  status: ('A' for Active; 'I' for Inactive)
REMARK    1  A    between atoms: C2_2  and  O1_4 
REMARK    2  A    between atoms: O1_4  and  C4_5 
REMARK    3  A    between atoms: C6_8  and  O3_9 
REMARK    4  A    between atoms: O3_9  and  C7_10 
REMARK    5  A    between atoms: C9_13  and  N1_14 
REMARK    6  A    between atoms: N1_14  and  C10_16 
REMARK    7  A    between atoms: C11_20  and  O5_21 
REMARK    8  A    between atoms: C12_23  and  O6_24 
REMARK    9  A    between atoms: C13_26  and  N3_27 
ROOT
HETATM    1  C4  UNL     1       1.071  23.615  -1.100  1.00  0.00     0.178 C 
HETATM    2  C5  UNL     1       1.773  22.332  -0.744  1.00  0.00     0.205 C 
HETATM    3  O2  UNL     1       1.141  21.627   0.261  1.00  0.00    -0.356 OA
HETATM    4  C6  UNL     1       1.129  22.402   1.413  1.00  0.00     0.293 C 
HETATM    5  C12 UNL     1       0.070  23.439   1.198  1.00  0.00     0.206 C 
HETATM    6  C13 UNL     1       0.504  24.338   0.083  1.00  0.00     0.247 C 
ENDROOT
BRANCH   4   7
HETATM    7  O3  UNL     1       1.001  21.681   2.563  1.00  0.00    -0.325 OA
BRANCH   7   8
HETATM    8  C7  UNL     1       1.530  20.427   2.630  1.00  0.00     0.301 C 
HETATM    9  O4  UNL     1       2.680  20.294   3.339  1.00  0.00    -0.355 OA
HETATM   10  C8  UNL     1       3.520  19.269   3.004  1.00  0.00     0.207 C 
HETATM   11  C9  UNL     1       2.956  17.899   3.281  1.00  0.00     0.172 C 
HETATM   12  S2  UNL     1       1.222  17.785   2.691  1.00  0.00    -0.105 SA
HETATM   13  C11 UNL     1       0.508  19.403   3.163  1.00  0.00     0.236 C 
BRANCH  11  14
HETATM   14  N1  UNL     1       2.895  17.660   4.717  1.00  0.00    -0.354 N 
ATOM     15  H1  UNL     1       2.916  18.447   5.364  1.00  0.00     0.162 HD
BRANCH  14  16
HETATM   16  C10 UNL     1       2.806  16.332   5.217  1.00  0.00     0.182 C 
HETATM   17  N2  UNL     1       2.934  15.223   4.344  1.00  0.00    -0.070 NA
HETATM   18  S1  UNL     1       2.553  16.034   6.816  1.00  0.00    -0.044 SA
ENDBRANCH  14  16
ENDBRANCH  11  14
BRANCH  13  19
HETATM   19  O5  UNL     1       0.414  19.406   4.530  1.00  0.00    -0.380 OA
ATOM     20  H5  UNL     1      -0.427  19.095   4.843  1.00  0.00     0.211 HD
ENDBRANCH  13  19
ENDBRANCH   7   8
ENDBRANCH   4   7
BRANCH   5  21
HETATM   21  O6  UNL     1      -0.215  24.170   2.343  1.00  0.00    -0.388 OA
ATOM     22  H6  UNL     1      -0.080  25.103   2.232  1.00  0.00     0.210 HD
ENDBRANCH   5  21
BRANCH   6  23
HETATM   23  N3  UNL     1       1.444  25.297   0.639  1.00  0.00    -0.070 N 
ATOM     24  H33 UNL     1       1.472  25.240   1.657  1.00  0.00     0.274 HD
ATOM     25  H32 UNL     1       2.407  25.032   0.435  1.00  0.00     0.274 HD
ATOM     26  H31 UNL     1       1.249  26.249   0.328  1.00  0.00     0.274 HD
ENDBRANCH   6  23
BRANCH   1  27
HETATM   27  O1  UNL     1       1.961  24.369  -1.852  1.00  0.00    -0.377 OA
BRANCH  27  28
HETATM   28  C2  UNL     1       1.378  24.965  -2.955  1.00  0.00     0.114 C 
HETATM   29  C1  UNL     1       0.487  24.039  -3.749  1.00  0.00     0.039 C 
HETATM   30  C3  UNL     1       2.523  25.379  -3.888  1.00  0.00     0.039 C 
ENDBRANCH  27  28
ENDBRANCH   1  27
TORSDOF 9
ENDMDL
