MODEL 1
REMARK VINA RESULT: -6.813102036      0.000      0.000
REMARK  10 active torsions:
REMARK  status: ('A' for Active; 'I' for Inactive)
REMARK    1  A    between atoms: C2_2  and  O1_3 
REMARK    2  A    between atoms: C2_2  and  C10_25 
REMARK    3  A    between atoms: O1_3  and  C3_4 
REMARK    4  A    between atoms: C4_6  and  C5_7 
REMARK    5  A    between atoms: C5_7  and  O3_8 
REMARK    6  A    between atoms: O3_8  and  C6_9 
REMARK       I    between atoms: C6_9  and  N1_11 
REMARK    7  A    between atoms: N1_11  and  N2_13 
REMARK    8  A    between atoms: C7_16  and  O5_17 
REMARK    9  A    between atoms: C8_19  and  O6_20 
REMARK   10  A    between atoms: C9_22  and  O7_23 
ROOT
HETATM    1  C3  UNL     1       2.352  19.644   0.974  1.00  0.00     0.292 C 
HETATM    2  O2  UNL     1       3.026  18.398   1.097  1.00  0.00    -0.348 OA
HETATM    3  C4  UNL     1       2.937  18.039   2.437  1.00  0.00     0.180 C 
HETATM    4  C7  UNL     1       3.929  18.959   3.156  1.00  0.00     0.180 C 
HETATM    5  C8  UNL     1       3.262  20.310   3.160  1.00  0.00     0.183 C 
HETATM    6  C9  UNL     1       3.081  20.727   1.693  1.00  0.00     0.204 C 
ENDROOT
BRANCH   1   7
HETATM    7  O1  UNL     1       2.093  19.877  -0.374  1.00  0.00    -0.353 OA
BRANCH   7   8
HETATM    8  C2  UNL     1       0.803  19.662  -0.771  1.00  0.00     0.127 C 
HETATM    9  C1  UNL     1       0.767  18.319  -1.597  1.00  0.00     0.040 C 
BRANCH   8  10
HETATM   10  C10 UNL     1       0.313  20.675  -1.734  1.00  0.00     0.049 C 
HETATM   11  C11 UNL     1      -1.146  20.962  -1.764  1.00  0.00     0.018 C 
HETATM   12  C12 UNL     1      -1.417  21.510  -3.181  1.00  0.00     0.007 C 
HETATM   13  C16 UNL     1      -1.288  22.160  -0.852  1.00  0.00     0.173 C 
HETATM   14  C13 UNL     1      -0.241  22.341  -3.634  1.00  0.00     0.003 C 
HETATM   15  C14 UNL     1       0.555  22.960  -2.544  1.00  0.00     0.032 C 
HETATM   16  C15 UNL     1       0.868  22.058  -1.378  1.00  0.00     0.128 C 
HETATM   17  O8  UNL     1      -0.016  22.419  -0.350  1.00  0.00    -0.385 OA
ENDBRANCH   8  10
ENDBRANCH   7   8
ENDBRANCH   1   7
BRANCH   6  18
HETATM   18  O7  UNL     1       2.318  21.896   1.701  1.00  0.00    -0.388 OA
ATOM     19  H7  UNL     1       2.499  22.398   2.487  1.00  0.00     0.210 HD
ENDBRANCH   6  18
BRANCH   3  20
HETATM   20  C5  UNL     1       3.270  16.590   2.662  1.00  0.00     0.215 C 
BRANCH  20  21
HETATM   21  O3  UNL     1       3.596  16.246   3.964  1.00  0.00    -0.300 OA
BRANCH  21  22
HETATM   22  C6  UNL     1       2.655  15.808   4.874  1.00  0.00     0.379 C 
HETATM   23  O4  UNL     1       2.885  15.740   6.105  1.00  0.00    -0.237 OA
HETATM   24  N1  UNL     1       1.353  15.409   4.417  1.00  0.00    -0.252 N 
ATOM     25  H1  UNL     1       1.141  15.455   3.420  1.00  0.00     0.191 HD
BRANCH  24  26
HETATM   26  N2  UNL     1       0.376  14.962   5.296  1.00  0.00    -0.341 N 
ATOM     27  H22 UNL     1      -0.159  15.658   5.815  1.00  0.00     0.177 HD
ATOM     28  H21 UNL     1       0.187  13.968   5.428  1.00  0.00     0.177 HD
ENDBRANCH  24  26
ENDBRANCH  21  22
ENDBRANCH  20  21
ENDBRANCH   3  20
BRANCH   5  29
HETATM   29  O6  UNL     1       3.999  21.261   3.850  1.00  0.00    -0.390 OA
ATOM     30  H6  UNL     1       3.708  21.360   4.749  1.00  0.00     0.210 HD
ENDBRANCH   5  29
BRANCH   4  31
HETATM   31  O5  UNL     1       5.046  19.045   2.319  1.00  0.00    -0.390 OA
ATOM     32  H5  UNL     1       5.297  19.961   2.314  1.00  0.00     0.210 HD
ENDBRANCH   4  31
TORSDOF 10
ENDMDL
MODEL 2
REMARK VINA RESULT: -6.678256250      1.861      2.253
REMARK  10 active torsions:
REMARK  status: ('A' for Active; 'I' for Inactive)
REMARK    1  A    between atoms: C2_2  and  O1_3 
REMARK    2  A    between atoms: C2_2  and  C10_25 
REMARK    3  A    between atoms: O1_3  and  C3_4 
REMARK    4  A    between atoms: C4_6  and  C5_7 
REMARK    5  A    between atoms: C5_7  and  O3_8 
REMARK    6  A    between atoms: O3_8  and  C6_9 
REMARK       I    between atoms: C6_9  and  N1_11 
REMARK    7  A    between atoms: N1_11  and  N2_13 
REMARK    8  A    between atoms: C7_16  and  O5_17 
REMARK    9  A    between atoms: C8_19  and  O6_20 
REMARK   10  A    between atoms: C9_22  and  O7_23 
ROOT
HETATM    1  C3  UNL     1       2.261  19.708   1.195  1.00  0.00     0.292 C 
HETATM    2  O2  UNL     1       2.145  18.296   1.305  1.00  0.00    -0.348 OA
HETATM    3  C4  UNL     1       1.901  18.030   2.648  1.00  0.00     0.180 C 
HETATM    4  C7  UNL     1       3.250  18.248   3.341  1.00  0.00     0.180 C 
HETATM    5  C8  UNL     1       3.431  19.744   3.358  1.00  0.00     0.183 C 
HETATM    6  C9  UNL     1       3.478  20.208   1.895  1.00  0.00     0.204 C 
ENDROOT
BRANCH   1   7
HETATM    7  O1  UNL     1       2.143  20.060  -0.147  1.00  0.00    -0.353 OA
BRANCH   7   8
HETATM    8  C2  UNL     1       0.956  20.636  -0.503  1.00  0.00     0.127 C 
HETATM    9  C1  UNL     1       0.385  19.842  -1.740  1.00  0.00     0.040 C 
BRANCH   8  10
HETATM   10  C10 UNL     1       1.109  22.016  -1.017  1.00  0.00     0.049 C 
HETATM   11  C11 UNL     1       0.104  22.512  -1.995  1.00  0.00     0.018 C 
HETATM   12  C12 UNL     1       0.826  23.627  -2.780  1.00  0.00     0.007 C 
HETATM   13  C16 UNL     1      -0.901  23.240  -1.128  1.00  0.00     0.173 C 
HETATM   14  C13 UNL     1       1.754  24.378  -1.854  1.00  0.00     0.003 C 
HETATM   15  C14 UNL     1       1.365  24.365  -0.421  1.00  0.00     0.032 C 
HETATM   16  C15 UNL     1       0.925  23.029   0.118  1.00  0.00     0.128 C 
HETATM   17  O8  UNL     1      -0.475  23.070   0.186  1.00  0.00    -0.385 OA
ENDBRANCH   8  10
ENDBRANCH   7   8
ENDBRANCH   1   7
BRANCH   6  18
HETATM   18  O7  UNL     1       3.480  21.603   1.918  1.00  0.00    -0.388 OA
ATOM     19  H7  UNL     1       4.056  21.918   2.605  1.00  0.00     0.210 HD
ENDBRANCH   6  18
BRANCH   3  20
HETATM   20  C5  UNL     1       1.391  16.632   2.867  1.00  0.00     0.215 C 
BRANCH  20  21
HETATM   21  O3  UNL     1       1.678  15.725   1.859  1.00  0.00    -0.300 OA
BRANCH  21  22
HETATM   22  C6  UNL     1       2.604  14.713   2.013  1.00  0.00     0.379 C 
HETATM   23  O4  UNL     1       3.628  14.837   2.727  1.00  0.00    -0.237 OA
HETATM   24  N1  UNL     1       2.409  13.459   1.340  1.00  0.00    -0.252 N 
ATOM     25  H1  UNL     1       1.584  13.333   0.754  1.00  0.00     0.191 HD
BRANCH  24  26
HETATM   26  N2  UNL     1       3.314  12.414   1.466  1.00  0.00    -0.341 N 
ATOM     27  H22 UNL     1       3.646  12.175   2.401  1.00  0.00     0.177 HD
ATOM     28  H21 UNL     1       3.647  11.891   0.656  1.00  0.00     0.177 HD
ENDBRANCH  24  26
ENDBRANCH  21  22
ENDBRANCH  20  21
ENDBRANCH   3  20
BRANCH   5  29
HETATM   29  O6  UNL     1       4.583  20.128   4.029  1.00  0.00    -0.390 OA
ATOM     30  H6  UNL     1       4.812  19.525   4.726  1.00  0.00     0.210 HD
ENDBRANCH   5  29
BRANCH   4  31
HETATM   31  O5  UNL     1       4.214  17.718   2.479  1.00  0.00    -0.390 OA
ATOM     32  H5  UNL     1       4.359  16.825   2.767  1.00  0.00     0.210 HD
ENDBRANCH   4  31
TORSDOF 10
ENDMDL
MODEL 3
REMARK VINA RESULT: -6.348479850      1.471      1.779
REMARK  10 active torsions:
REMARK  status: ('A' for Active; 'I' for Inactive)
REMARK    1  A    between atoms: C2_2  and  O1_3 
REMARK    2  A    between atoms: C2_2  and  C10_25 
REMARK    3  A    between atoms: O1_3  and  C3_4 
REMARK    4  A    between atoms: C4_6  and  C5_7 
REMARK    5  A    between atoms: C5_7  and  O3_8 
REMARK    6  A    between atoms: O3_8  and  C6_9 
REMARK       I    between atoms: C6_9  and  N1_11 
REMARK    7  A    between atoms: N1_11  and  N2_13 
REMARK    8  A    between atoms: C7_16  and  O5_17 
REMARK    9  A    between atoms: C8_19  and  O6_20 
REMARK   10  A    between atoms: C9_22  and  O7_23 
ROOT
HETATM    1  C3  UNL     1       2.231  19.280   1.009  1.00  0.00     0.292 C 
HETATM    2  O2  UNL     1       2.708  18.054   1.548  1.00  0.00    -0.348 OA
HETATM    3  C4  UNL     1       2.534  18.141   2.925  1.00  0.00     0.180 C 
HETATM    4  C7  UNL     1       3.636  19.096   3.399  1.00  0.00     0.180 C 
HETATM    5  C8  UNL     1       3.177  20.459   2.948  1.00  0.00     0.183 C 
HETATM    6  C9  UNL     1       3.095  20.423   1.416  1.00  0.00     0.204 C 
ENDROOT
BRANCH   1   7
HETATM    7  O1  UNL     1       2.040  19.118  -0.361  1.00  0.00    -0.353 OA
BRANCH   7   8
HETATM    8  C2  UNL     1       0.738  19.052  -0.771  1.00  0.00     0.127 C 
HETATM    9  C1  UNL     1       0.599  17.818  -1.742  1.00  0.00     0.040 C 
BRANCH   8  10
HETATM   10  C10 UNL     1       0.332  20.202  -1.611  1.00  0.00     0.049 C 
HETATM   11  C11 UNL     1      -0.678  19.966  -2.676  1.00  0.00     0.018 C 
HETATM   12  C12 UNL     1      -0.430  21.079  -3.716  1.00  0.00     0.007 C 
HETATM   13  C16 UNL     1      -1.984  20.343  -2.012  1.00  0.00     0.173 C 
HETATM   14  C13 UNL     1      -0.023  22.350  -3.009  1.00  0.00     0.003 C 
HETATM   15  C14 UNL     1      -0.517  22.486  -1.615  1.00  0.00     0.032 C 
HETATM   16  C15 UNL     1      -0.390  21.252  -0.760  1.00  0.00     0.128 C 
HETATM   17  O8  UNL     1      -1.669  20.679  -0.698  1.00  0.00    -0.385 OA
ENDBRANCH   8  10
ENDBRANCH   7   8
ENDBRANCH   1   7
BRANCH   6  18
HETATM   18  O7  UNL     1       2.515  21.629   1.018  1.00  0.00    -0.388 OA
ATOM     19  H7  UNL     1       1.580  21.611   1.185  1.00  0.00     0.210 HD
ENDBRANCH   6  18
BRANCH   3  20
HETATM   20  C5  UNL     1       2.643  16.802   3.598  1.00  0.00     0.215 C 
BRANCH  20  21
HETATM   21  O3  UNL     1       3.569  15.929   3.048  1.00  0.00    -0.300 OA
BRANCH  21  22
HETATM   22  C6  UNL     1       3.200  14.764   2.406  1.00  0.00     0.379 C 
HETATM   23  O4  UNL     1       3.898  13.723   2.440  1.00  0.00    -0.237 OA
HETATM   24  N1  UNL     1       1.971  14.718   1.662  1.00  0.00    -0.252 N 
ATOM     25  H1  UNL     1       1.385  15.552   1.619  1.00  0.00     0.191 HD
BRANCH  24  26
HETATM   26  N2  UNL     1       1.561  13.569   1.001  1.00  0.00    -0.341 N 
ATOM     27  H22 UNL     1       1.829  12.666   1.393  1.00  0.00     0.177 HD
ATOM     28  H21 UNL     1       1.006  13.611   0.145  1.00  0.00     0.177 HD
ENDBRANCH  24  26
ENDBRANCH  21  22
ENDBRANCH  20  21
ENDBRANCH   3  20
BRANCH   5  29
HETATM   29  O6  UNL     1       4.031  21.468   3.368  1.00  0.00    -0.390 OA
ATOM     30  H6  UNL     1       3.744  22.327   3.081  1.00  0.00     0.210 HD
ENDBRANCH   5  29
BRANCH   4  31
HETATM   31  O5  UNL     1       4.772  18.769   2.653  1.00  0.00    -0.390 OA
ATOM     32  H5  UNL     1       4.668  17.858   2.403  1.00  0.00     0.210 HD
ENDBRANCH   4  31
TORSDOF 10
ENDMDL
MODEL 4
REMARK VINA RESULT: -6.335460615      1.444      1.632
REMARK  10 active torsions:
REMARK  status: ('A' for Active; 'I' for Inactive)
REMARK    1  A    between atoms: C2_2  and  O1_3 
REMARK    2  A    between atoms: C2_2  and  C10_25 
REMARK    3  A    between atoms: O1_3  and  C3_4 
REMARK    4  A    between atoms: C4_6  and  C5_7 
REMARK    5  A    between atoms: C5_7  and  O3_8 
REMARK    6  A    between atoms: O3_8  and  C6_9 
REMARK       I    between atoms: C6_9  and  N1_11 
REMARK    7  A    between atoms: N1_11  and  N2_13 
REMARK    8  A    between atoms: C7_16  and  O5_17 
REMARK    9  A    between atoms: C8_19  and  O6_20 
REMARK   10  A    between atoms: C9_22  and  O7_23 
ROOT
HETATM    1  C3  UNL     1       2.277  19.677   1.065  1.00  0.00     0.292 C 
HETATM    2  O2  UNL     1       2.305  18.259   0.976  1.00  0.00    -0.348 OA
HETATM    3  C4  UNL     1       2.068  17.785   2.261  1.00  0.00     0.180 C 
HETATM    4  C7  UNL     1       3.376  18.037   3.019  1.00  0.00     0.180 C 
HETATM    5  C8  UNL     1       3.403  19.527   3.246  1.00  0.00     0.183 C 
HETATM    6  C9  UNL     1       3.425  20.193   1.863  1.00  0.00     0.204 C 
ENDROOT
BRANCH   1   7
HETATM    7  O1  UNL     1       2.146  20.200  -0.219  1.00  0.00    -0.353 OA
BRANCH   7   8
HETATM    8  C2  UNL     1       0.891  20.624  -0.557  1.00  0.00     0.127 C 
HETATM    9  C1  UNL     1       0.332  19.647  -1.662  1.00  0.00     0.040 C 
BRANCH   8  10
HETATM   10  C10 UNL     1       0.882  21.945  -1.225  1.00  0.00     0.049 C 
HETATM   11  C11 UNL     1      -0.362  22.758  -1.148  1.00  0.00     0.018 C 
HETATM   12  C12 UNL     1      -0.307  23.690  -2.377  1.00  0.00     0.007 C 
HETATM   13  C16 UNL     1      -0.116  23.665   0.037  1.00  0.00     0.173 C 
HETATM   14  C13 UNL     1       1.123  24.100  -2.636  1.00  0.00     0.003 C 
HETATM   15  C14 UNL     1       2.010  24.093  -1.445  1.00  0.00     0.032 C 
HETATM   16  C15 UNL     1       1.881  22.889  -0.549  1.00  0.00     0.128 C 
HETATM   17  O8  UNL     1       1.121  23.298   0.558  1.00  0.00    -0.385 OA
ENDBRANCH   8  10
ENDBRANCH   7   8
ENDBRANCH   1   7
BRANCH   6  18
HETATM   18  O7  UNL     1       3.283  21.565   2.078  1.00  0.00    -0.388 OA
ATOM     19  H7  UNL     1       4.118  21.945   2.324  1.00  0.00     0.210 HD
ENDBRANCH   6  18
BRANCH   3  20
HETATM   20  C5  UNL     1       1.702  16.327   2.271  1.00  0.00     0.215 C 
BRANCH  20  21
HETATM   21  O3  UNL     1       2.323  15.560   3.245  1.00  0.00    -0.300 OA
BRANCH  21  22
HETATM   22  C6  UNL     1       1.894  15.538   4.557  1.00  0.00     0.379 C 
HETATM   23  O4  UNL     1       0.681  15.480   4.871  1.00  0.00    -0.237 OA
HETATM   24  N1  UNL     1       2.856  15.583   5.623  1.00  0.00    -0.252 N 
ATOM     25  H1  UNL     1       3.849  15.631   5.394  1.00  0.00     0.191 HD
BRANCH  24  26
HETATM   26  N2  UNL     1       2.470  15.564   6.957  1.00  0.00    -0.341 N 
ATOM     27  H22 UNL     1       1.539  15.215   7.182  1.00  0.00     0.177 HD
ATOM     28  H21 UNL     1       3.090  15.887   7.700  1.00  0.00     0.177 HD
ENDBRANCH  24  26
ENDBRANCH  21  22
ENDBRANCH  20  21
ENDBRANCH   3  20
BRANCH   5  29
HETATM   29  O6  UNL     1       4.498  19.926   3.999  1.00  0.00    -0.390 OA
ATOM     30  H6  UNL     1       4.243  20.336   4.816  1.00  0.00     0.210 HD
ENDBRANCH   5  29
BRANCH   4  31
HETATM   31  O5  UNL     1       4.404  17.732   2.121  1.00  0.00    -0.390 OA
ATOM     32  H5  UNL     1       5.204  18.044   2.526  1.00  0.00     0.210 HD
ENDBRANCH   4  31
TORSDOF 10
ENDMDL
MODEL 5
REMARK VINA RESULT: -6.301955492      1.548      1.669
REMARK  10 active torsions:
REMARK  status: ('A' for Active; 'I' for Inactive)
REMARK    1  A    between atoms: C2_2  and  O1_3 
REMARK    2  A    between atoms: C2_2  and  C10_25 
REMARK    3  A    between atoms: O1_3  and  C3_4 
REMARK    4  A    between atoms: C4_6  and  C5_7 
REMARK    5  A    between atoms: C5_7  and  O3_8 
REMARK    6  A    between atoms: O3_8  and  C6_9 
REMARK       I    between atoms: C6_9  and  N1_11 
REMARK    7  A    between atoms: N1_11  and  N2_13 
REMARK    8  A    between atoms: C7_16  and  O5_17 
REMARK    9  A    between atoms: C8_19  and  O6_20 
REMARK   10  A    between atoms: C9_22  and  O7_23 
ROOT
HETATM    1  C3  UNL     1       1.755  20.495   0.527  1.00  0.00     0.292 C 
HETATM    2  O2  UNL     1       2.307  19.194   0.678  1.00  0.00    -0.348 OA
HETATM    3  C4  UNL     1       2.023  18.801   1.981  1.00  0.00     0.180 C 
HETATM    4  C7  UNL     1       2.990  19.610   2.852  1.00  0.00     0.180 C 
HETATM    5  C8  UNL     1       2.437  21.012   2.832  1.00  0.00     0.183 C 
HETATM    6  C9  UNL     1       2.474  21.489   1.373  1.00  0.00     0.204 C 
ENDROOT
BRANCH   1   7
HETATM    7  O1  UNL     1       1.684  20.792  -0.832  1.00  0.00    -0.353 OA
BRANCH   7   8
HETATM    8  C2  UNL     1       0.424  20.835  -1.360  1.00  0.00     0.127 C 
HETATM    9  C1  UNL     1       0.229  19.549  -2.252  1.00  0.00     0.040 C 
BRANCH   8  10
HETATM   10  C10 UNL     1       0.229  21.951  -2.313  1.00  0.00     0.049 C 
HETATM   11  C11 UNL     1      -1.150  22.477  -2.501  1.00  0.00     0.018 C 
HETATM   12  C12 UNL     1      -1.146  23.117  -3.905  1.00  0.00     0.007 C 
HETATM   13  C16 UNL     1      -1.213  23.646  -1.543  1.00  0.00     0.173 C 
HETATM   14  C13 UNL     1       0.196  23.758  -4.165  1.00  0.00     0.003 C 
HETATM   15  C14 UNL     1       0.935  24.194  -2.953  1.00  0.00     0.032 C 
HETATM   16  C15 UNL     1       0.948  23.209  -1.813  1.00  0.00     0.128 C 
HETATM   17  O8  UNL     1       0.009  23.671  -0.878  1.00  0.00    -0.385 OA
ENDBRANCH   8  10
ENDBRANCH   7   8
ENDBRANCH   1   7
BRANCH   6  18
HETATM   18  O7  UNL     1       1.812  22.717   1.338  1.00  0.00    -0.388 OA
ATOM     19  H7  UNL     1       2.315  23.373   1.806  1.00  0.00     0.210 HD
ENDBRANCH   6  18
BRANCH   3  20
HETATM   20  C5  UNL     1       2.209  17.323   2.183  1.00  0.00     0.215 C 
BRANCH  20  21
HETATM   21  O3  UNL     1       2.881  16.957   3.339  1.00  0.00    -0.300 OA
BRANCH  21  22
HETATM   22  C6  UNL     1       3.153  15.640   3.653  1.00  0.00     0.379 C 
HETATM   23  O4  UNL     1       2.915  15.152   4.784  1.00  0.00    -0.237 OA
HETATM   24  N1  UNL     1       3.733  14.776   2.663  1.00  0.00    -0.252 N 
ATOM     25  H1  UNL     1       3.937  15.149   1.736  1.00  0.00     0.191 HD
BRANCH  24  26
HETATM   26  N2  UNL     1       4.024  13.446   2.935  1.00  0.00    -0.341 N 
ATOM     27  H22 UNL     1       3.870  13.104   3.884  1.00  0.00     0.177 HD
ATOM     28  H21 UNL     1       4.383  12.817   2.216  1.00  0.00     0.177 HD
ENDBRANCH  24  26
ENDBRANCH  21  22
ENDBRANCH  20  21
ENDBRANCH   3  20
BRANCH   5  29
HETATM   29  O6  UNL     1       3.157  21.874   3.646  1.00  0.00    -0.390 OA
ATOM     30  H6  UNL     1       3.859  22.310   3.178  1.00  0.00     0.210 HD
ENDBRANCH   5  29
BRANCH   4  31
HETATM   31  O5  UNL     1       4.205  19.628   2.161  1.00  0.00    -0.390 OA
ATOM     32  H5  UNL     1       4.133  20.331   1.526  1.00  0.00     0.210 HD
ENDBRANCH   4  31
TORSDOF 10
ENDMDL
