MODEL 1
REMARK VINA RESULT: -6.587108672      0.000      0.000
REMARK  4 active torsions:
REMARK  status: ('A' for Active; 'I' for Inactive)
REMARK    1  A    between atoms: S1_2  and  C2_3 
REMARK    2  A    between atoms: C2_3  and  N1_4 
REMARK    3  A    between atoms: C2_3  and  N3_13 
REMARK    4  A    between atoms: C10_16  and  O1_17 
ROOT
HETATM    1  C2  UNL     1      -2.290  16.538  -2.586  1.00  0.00     0.140 C 
ENDROOT
BRANCH   1   2
HETATM    2  S1  UNL     1      -3.483  15.412  -2.974  1.00  0.00    -0.099 SA
HETATM    3  C1  UNL     1      -3.580  13.711  -2.451  1.00  0.00     0.099 C 
ENDBRANCH   1   2
BRANCH   1   4
HETATM    4  N1  UNL     1      -2.073  16.976  -1.276  1.00  0.00    -0.360 N 
HETATM    5  C3  UNL     1      -2.575  18.188  -0.747  1.00  0.00     0.126 C 
HETATM    6  C4  UNL     1      -1.493  19.204  -0.463  1.00  0.00     0.047 C 
HETATM    7  C5  UNL     1      -1.067  19.084   0.991  1.00  0.00     0.234 C 
HETATM    8  N2  UNL     1      -1.192  17.696   1.412  1.00  0.00    -0.074 N 
HETATM    9  C6  UNL     1      -0.465  16.799   0.627  1.00  0.00     0.252 C 
ATOM     10  H22 UNL     1      -0.942  17.596   2.395  1.00  0.00     0.277 HD
ATOM     11  H21 UNL     1      -2.174  17.421   1.454  1.00  0.00     0.277 HD
HETATM   12  C7  UNL     1      -1.152  16.092  -0.512  1.00  0.00     0.152 C 
ENDBRANCH   1   4
BRANCH   1  13
HETATM   13  N3  UNL     1      -1.696  17.042  -3.767  1.00  0.00    -0.362 N 
HETATM   14  C8  UNL     1      -2.355  16.798  -5.059  1.00  0.00     0.127 C 
HETATM   15  C9  UNL     1      -1.557  15.825  -5.881  1.00  0.00     0.051 C 
HETATM   16  C10 UNL     1      -0.120  16.294  -5.997  1.00  0.00     0.121 C 
HETATM   17  C11 UNL     1       0.077  17.634  -5.361  1.00  0.00     0.051 C 
HETATM   18  C12 UNL     1      -0.471  17.726  -3.927  1.00  0.00     0.127 C 
BRANCH  16  19
HETATM   19  O1  UNL     1       0.662  15.380  -5.306  1.00  0.00    -0.395 OA
ATOM     20  H1  UNL     1       1.025  15.835  -4.556  1.00  0.00     0.210 HD
ENDBRANCH  16  19
ENDBRANCH   1  13
TORSDOF 4
ENDMDL
MODEL 2
REMARK VINA RESULT: -6.575778334      5.005      7.928
REMARK  4 active torsions:
REMARK  status: ('A' for Active; 'I' for Inactive)
REMARK    1  A    between atoms: S1_2  and  C2_3 
REMARK    2  A    between atoms: C2_3  and  N1_4 
REMARK    3  A    between atoms: C2_3  and  N3_13 
REMARK    4  A    between atoms: C10_16  and  O1_17 
ROOT
HETATM    1  C2  UNL     1       2.262  16.546   2.541  1.00  0.00     0.140 C 
ENDROOT
BRANCH   1   2
HETATM    2  S1  UNL     1       3.477  15.449   2.945  1.00  0.00    -0.099 SA
HETATM    3  C1  UNL     1       3.586  13.732   2.478  1.00  0.00     0.099 C 
ENDBRANCH   1   2
BRANCH   1   4
HETATM    4  N1  UNL     1       2.042  16.966   1.225  1.00  0.00    -0.360 N 
HETATM    5  C3  UNL     1       2.530  18.177   0.682  1.00  0.00     0.126 C 
HETATM    6  C4  UNL     1       1.437  19.177   0.385  1.00  0.00     0.047 C 
HETATM    7  C5  UNL     1       1.013  19.034  -1.068  1.00  0.00     0.234 C 
HETATM    8  N2  UNL     1       1.155  17.642  -1.472  1.00  0.00    -0.074 N 
HETATM    9  C6  UNL     1       0.438  16.747  -0.677  1.00  0.00     0.252 C 
ATOM     10  H22 UNL     1       0.907  17.527  -2.455  1.00  0.00     0.277 HD
ATOM     11  H21 UNL     1       2.140  17.379  -1.511  1.00  0.00     0.277 HD
HETATM   12  C7  UNL     1       1.132  16.062   0.472  1.00  0.00     0.152 C 
ENDBRANCH   1   4
BRANCH   1  13
HETATM   13  N3  UNL     1       1.655  17.051   3.714  1.00  0.00    -0.362 N 
HETATM   14  C8  UNL     1       2.329  16.860   5.007  1.00  0.00     0.127 C 
HETATM   15  C9  UNL     1       1.573  15.874   5.853  1.00  0.00     0.051 C 
HETATM   16  C10 UNL     1       0.119  16.289   5.967  1.00  0.00     0.121 C 
HETATM   17  C11 UNL     1      -0.133  17.607   5.305  1.00  0.00     0.051 C 
HETATM   18  C12 UNL     1       0.405  17.690   3.867  1.00  0.00     0.127 C 
BRANCH  16  19
HETATM   19  O1  UNL     1      -0.630  15.330   5.299  1.00  0.00    -0.395 OA
ATOM     20  H1  UNL     1      -0.309  14.481   5.580  1.00  0.00     0.210 HD
ENDBRANCH  16  19
ENDBRANCH   1  13
TORSDOF 4
ENDMDL
MODEL 3
REMARK VINA RESULT: -6.429297403      5.776      7.775
REMARK  4 active torsions:
REMARK  status: ('A' for Active; 'I' for Inactive)
REMARK    1  A    between atoms: S1_2  and  C2_3 
REMARK    2  A    between atoms: C2_3  and  N1_4 
REMARK    3  A    between atoms: C2_3  and  N3_13 
REMARK    4  A    between atoms: C10_16  and  O1_17 
ROOT
HETATM    1  C2  UNL     1       0.899  18.145   2.993  1.00  0.00     0.140 C 
ENDROOT
BRANCH   1   2
HETATM    2  S1  UNL     1      -0.444  17.898   2.005  1.00  0.00    -0.099 SA
HETATM    3  C1  UNL     1      -1.152  19.040   0.833  1.00  0.00     0.099 C 
ENDBRANCH   1   2
BRANCH   1   4
HETATM    4  N1  UNL     1       0.995  17.597   4.276  1.00  0.00    -0.360 N 
HETATM    5  C3  UNL     1       2.202  17.470   5.002  1.00  0.00     0.126 C 
HETATM    6  C4  UNL     1       2.643  16.036   5.175  1.00  0.00     0.047 C 
HETATM    7  C5  UNL     1       2.127  15.514   6.506  1.00  0.00     0.234 C 
HETATM    8  N2  UNL     1       0.855  16.153   6.809  1.00  0.00    -0.074 N 
HETATM    9  C6  UNL     1      -0.116  15.978   5.820  1.00  0.00     0.252 C 
ATOM     10  H22 UNL     1       0.504  15.843   7.714  1.00  0.00     0.277 HD
ATOM     11  H21 UNL     1       0.990  17.145   7.007  1.00  0.00     0.277 HD
HETATM   12  C7  UNL     1      -0.294  17.040   4.767  1.00  0.00     0.152 C 
ENDBRANCH   1   4
BRANCH   1  13
HETATM   13  N3  UNL     1       1.779  19.077   2.392  1.00  0.00    -0.362 N 
HETATM   14  C8  UNL     1       2.809  18.590   1.462  1.00  0.00     0.127 C 
HETATM   15  C9  UNL     1       4.175  18.720   2.075  1.00  0.00     0.051 C 
HETATM   16  C10 UNL     1       4.398  20.139   2.560  1.00  0.00     0.121 C 
HETATM   17  C11 UNL     1       3.253  21.033   2.200  1.00  0.00     0.051 C 
HETATM   18  C12 UNL     1       1.879  20.471   2.599  1.00  0.00     0.127 C 
BRANCH  16  19
HETATM   19  O1  UNL     1       4.474  20.087   3.945  1.00  0.00    -0.395 OA
ATOM     20  H1  UNL     1       4.800  20.930   4.237  1.00  0.00     0.210 HD
ENDBRANCH  16  19
ENDBRANCH   1  13
TORSDOF 4
ENDMDL
MODEL 4
REMARK VINA RESULT: -6.393170361      5.544      7.771
REMARK  4 active torsions:
REMARK  status: ('A' for Active; 'I' for Inactive)
REMARK    1  A    between atoms: S1_2  and  C2_3 
REMARK    2  A    between atoms: C2_3  and  N1_4 
REMARK    3  A    between atoms: C2_3  and  N3_13 
REMARK    4  A    between atoms: C10_16  and  O1_17 
ROOT
HETATM    1  C2  UNL     1       1.924  17.599   2.530  1.00  0.00     0.140 C 
ENDROOT
BRANCH   1   2
HETATM    2  S1  UNL     1       1.359  16.562   1.327  1.00  0.00    -0.099 SA
HETATM    3  C1  UNL     1      -0.276  16.513   0.618  1.00  0.00     0.099 C 
ENDBRANCH   1   2
BRANCH   1   4
HETATM    4  N1  UNL     1       1.680  17.371   3.888  1.00  0.00    -0.360 N 
HETATM    5  C3  UNL     1       2.688  17.140   4.853  1.00  0.00     0.126 C 
HETATM    6  C4  UNL     1       2.683  15.728   5.389  1.00  0.00     0.047 C 
HETATM    7  C5  UNL     1       1.858  15.683   6.666  1.00  0.00     0.234 C 
HETATM    8  N2  UNL     1       0.784  16.662   6.575  1.00  0.00    -0.074 N 
HETATM    9  C6  UNL     1      -0.046  16.489   5.465  1.00  0.00     0.252 C 
ATOM     10  H22 UNL     1       0.236  16.674   7.434  1.00  0.00     0.277 HD
ATOM     11  H21 UNL     1       1.161  17.610   6.597  1.00  0.00     0.277 HD
HETATM   12  C7  UNL     1       0.230  17.275   4.209  1.00  0.00     0.152 C 
ENDBRANCH   1   4
BRANCH   1  13
HETATM   13  N3  UNL     1       2.510  18.747   1.946  1.00  0.00    -0.362 N 
HETATM   14  C8  UNL     1       3.964  18.940   2.053  1.00  0.00     0.127 C 
HETATM   15  C9  UNL     1       4.276  20.082   2.979  1.00  0.00     0.051 C 
HETATM   16  C10 UNL     1       3.515  21.323   2.553  1.00  0.00     0.121 C 
HETATM   17  C11 UNL     1       2.758  21.099   1.282  1.00  0.00     0.051 C 
HETATM   18  C12 UNL     1       1.885  19.834   1.296  1.00  0.00     0.127 C 
BRANCH  16  19
HETATM   19  O1  UNL     1       2.591  21.594   3.552  1.00  0.00    -0.395 OA
ATOM     20  H1  UNL     1       1.756  21.747   3.125  1.00  0.00     0.210 HD
ENDBRANCH  16  19
ENDBRANCH   1  13
TORSDOF 4
ENDMDL
MODEL 5
REMARK VINA RESULT: -6.385707056      2.617      5.396
REMARK  4 active torsions:
REMARK  status: ('A' for Active; 'I' for Inactive)
REMARK    1  A    between atoms: S1_2  and  C2_3 
REMARK    2  A    between atoms: C2_3  and  N1_4 
REMARK    3  A    between atoms: C2_3  and  N3_13 
REMARK    4  A    between atoms: C10_16  and  O1_17 
ROOT
HETATM    1  C2  UNL     1      -1.941  17.612  -2.530  1.00  0.00     0.140 C 
ENDROOT
BRANCH   1   2
HETATM    2  S1  UNL     1      -1.391  16.576  -1.318  1.00  0.00    -0.099 SA
HETATM    3  C1  UNL     1       0.259  16.468  -0.652  1.00  0.00     0.099 C 
ENDBRANCH   1   2
BRANCH   1   4
HETATM    4  N1  UNL     1      -1.685  17.380  -3.884  1.00  0.00    -0.360 N 
HETATM    5  C3  UNL     1      -2.683  17.143  -4.857  1.00  0.00     0.126 C 
HETATM    6  C4  UNL     1      -2.671  15.728  -5.389  1.00  0.00     0.047 C 
HETATM    7  C5  UNL     1      -1.834  15.681  -6.657  1.00  0.00     0.234 C 
HETATM    8  N2  UNL     1      -0.764  16.663  -6.560  1.00  0.00    -0.074 N 
HETATM    9  C6  UNL     1       0.057  16.496  -5.443  1.00  0.00     0.252 C 
ATOM     10  H22 UNL     1      -0.208  16.673  -7.415  1.00  0.00     0.277 HD
ATOM     11  H21 UNL     1      -1.142  17.610  -6.589  1.00  0.00     0.277 HD
HETATM   12  C7  UNL     1      -0.232  17.286  -4.192  1.00  0.00     0.152 C 
ENDBRANCH   1   4
BRANCH   1  13
HETATM   13  N3  UNL     1      -2.530  18.763  -1.954  1.00  0.00    -0.362 N 
HETATM   14  C8  UNL     1      -3.979  18.970  -2.093  1.00  0.00     0.127 C 
HETATM   15  C9  UNL     1      -4.261  20.118  -3.020  1.00  0.00     0.051 C 
HETATM   16  C10 UNL     1      -3.498  21.350  -2.574  1.00  0.00     0.121 C 
HETATM   17  C11 UNL     1      -2.772  21.115  -1.287  1.00  0.00     0.051 C 
HETATM   18  C12 UNL     1      -1.910  19.842  -1.286  1.00  0.00     0.127 C 
BRANCH  16  19
HETATM   19  O1  UNL     1      -2.550  21.617  -3.551  1.00  0.00    -0.395 OA
ATOM     20  H1  UNL     1      -1.782  21.099  -3.342  1.00  0.00     0.210 HD
ENDBRANCH  16  19
ENDBRANCH   1  13
TORSDOF 4
ENDMDL
