MODEL 1
REMARK VINA RESULT: -6.806156070      0.000      0.000
REMARK  0 active torsions:
REMARK  status: ('A' for Active; 'I' for Inactive)
REMARK       I    between atoms: C1_4  and  N3_6 
REMARK       I    between atoms: N4_9  and  C4_10 
REMARK       I    between atoms: C4_10  and  N5_12 
ROOT
HETATM    1  N1  UNL     1       3.823  18.975   3.656  1.00  0.00    -0.374 N 
ATOM      2  H11 UNL     1       3.766  19.983   3.511  1.00  0.00     0.158 HD
ATOM      3  H12 UNL     1       4.721  18.534   3.850  1.00  0.00     0.158 HD
HETATM    4  C1  UNL     1       2.739  18.288   3.587  1.00  0.00     0.184 C 
HETATM    5  N2  UNL     1       2.818  16.893   3.787  1.00  0.00    -0.064 NA
HETATM    6  N3  UNL     1       1.510  18.893   3.321  1.00  0.00    -0.353 N 
HETATM    7  C2  UNL     1       1.386  20.266   2.885  1.00  0.00     0.145 C 
HETATM    8  C3  UNL     1      -0.044  20.576   2.501  1.00  0.00     0.147 C 
HETATM    9  N4  UNL     1      -0.625  19.528   1.684  1.00  0.00    -0.331 N 
HETATM   10  C4  UNL     1      -1.392  19.856   0.558  1.00  0.00     0.320 C 
HETATM   11  O1  UNL     1      -1.512  21.133   0.377  1.00  0.00    -0.247 OA
HETATM   12  N5  UNL     1      -2.032  19.037  -0.375  1.00  0.00    -0.333 N 
HETATM   13  C5  UNL     1      -2.790  19.748  -1.436  1.00  0.00     0.137 C 
HETATM   14  C6  UNL     1      -1.821  19.769  -2.636  1.00  0.00     0.093 C 
HETATM   15  S1  UNL     1      -1.799  18.015  -3.170  1.00  0.00    -0.166 SA
HETATM   16  C7  UNL     1      -2.511  17.058  -1.794  1.00  0.00     0.093 C 
HETATM   17  C8  UNL     1      -2.066  17.620  -0.459  1.00  0.00     0.137 C 
HETATM   18  C9  UNL     1      -0.391  18.176   2.077  1.00  0.00     0.147 C 
HETATM   19  C10 UNL     1       0.267  18.144   3.477  1.00  0.00     0.145 C 
ENDROOT
TORSDOF 0
ENDMDL
MODEL 2
REMARK VINA RESULT: -6.754235157      3.221      6.328
REMARK  0 active torsions:
REMARK  status: ('A' for Active; 'I' for Inactive)
REMARK       I    between atoms: C1_4  and  N3_6 
REMARK       I    between atoms: N4_9  and  C4_10 
REMARK       I    between atoms: C4_10  and  N5_12 
ROOT
HETATM    1  N1  UNL     1      -3.755  21.384  -2.662  1.00  0.00    -0.374 N 
ATOM      2  H11 UNL     1      -3.378  22.279  -2.349  1.00  0.00     0.158 HD
ATOM      3  H12 UNL     1      -4.757  21.272  -2.811  1.00  0.00     0.158 HD
HETATM    4  C1  UNL     1      -2.934  20.415  -2.860  1.00  0.00     0.184 C 
HETATM    5  N2  UNL     1      -3.455  19.176  -3.293  1.00  0.00    -0.064 NA
HETATM    6  N3  UNL     1      -1.563  20.569  -2.655  1.00  0.00    -0.353 N 
HETATM    7  C2  UNL     1      -0.989  21.725  -2.003  1.00  0.00     0.145 C 
HETATM    8  C3  UNL     1       0.491  21.520  -1.761  1.00  0.00     0.147 C 
HETATM    9  N4  UNL     1       0.776  20.203  -1.227  1.00  0.00    -0.331 N 
HETATM   10  C4  UNL     1       1.685  20.052  -0.172  1.00  0.00     0.320 C 
HETATM   11  O1  UNL     1       2.207  21.172   0.216  1.00  0.00    -0.247 OA
HETATM   12  N5  UNL     1       2.106  18.907   0.507  1.00  0.00    -0.333 N 
HETATM   13  C5  UNL     1       3.121  19.130   1.569  1.00  0.00     0.137 C 
HETATM   14  C6  UNL     1       2.295  19.179   2.871  1.00  0.00     0.093 C 
HETATM   15  S1  UNL     1       1.770  17.435   3.082  1.00  0.00    -0.166 SA
HETATM   16  C7  UNL     1       2.050  16.623   1.477  1.00  0.00     0.093 C 
HETATM   17  C8  UNL     1       1.706  17.555   0.333  1.00  0.00     0.137 C 
HETATM   18  C9  UNL     1       0.108  19.090  -1.820  1.00  0.00     0.147 C 
HETATM   19  C10 UNL     1      -0.627  19.543  -3.105  1.00  0.00     0.145 C 
ENDROOT
TORSDOF 0
ENDMDL
MODEL 3
REMARK VINA RESULT: -6.722695016      3.158      6.423
REMARK  0 active torsions:
REMARK  status: ('A' for Active; 'I' for Inactive)
REMARK       I    between atoms: C1_4  and  N3_6 
REMARK       I    between atoms: N4_9  and  C4_10 
REMARK       I    between atoms: C4_10  and  N5_12 
ROOT
HETATM    1  N1  UNL     1      -3.947  19.267  -3.456  1.00  0.00    -0.374 N 
ATOM      2  H11 UNL     1      -3.848  20.269  -3.294  1.00  0.00     0.158 HD
ATOM      3  H12 UNL     1      -4.867  18.863  -3.630  1.00  0.00     0.158 HD
HETATM    4  C1  UNL     1      -2.889  18.539  -3.433  1.00  0.00     0.184 C 
HETATM    5  N2  UNL     1      -3.027  17.152  -3.656  1.00  0.00    -0.064 NA
HETATM    6  N3  UNL     1      -1.630  19.092  -3.195  1.00  0.00    -0.353 N 
HETATM    7  C2  UNL     1      -1.440  20.450  -2.738  1.00  0.00     0.145 C 
HETATM    8  C3  UNL     1       0.011  20.699  -2.393  1.00  0.00     0.147 C 
HETATM    9  N4  UNL     1       0.576  19.615  -1.613  1.00  0.00    -0.331 N 
HETATM   10  C4  UNL     1       1.389  19.892  -0.506  1.00  0.00     0.320 C 
HETATM   11  O1  UNL     1       1.563  21.160  -0.306  1.00  0.00    -0.247 OA
HETATM   12  N5  UNL     1       2.026  19.032   0.391  1.00  0.00    -0.333 N 
HETATM   13  C5  UNL     1       2.841  19.694   1.441  1.00  0.00     0.137 C 
HETATM   14  C6  UNL     1       1.911  19.728   2.671  1.00  0.00     0.093 C 
HETATM   15  S1  UNL     1       1.838  17.966   3.173  1.00  0.00    -0.166 SA
HETATM   16  C7  UNL     1       2.472  17.010   1.759  1.00  0.00     0.093 C 
HETATM   17  C8  UNL     1       2.008  17.613   0.449  1.00  0.00     0.137 C 
HETATM   18  C9  UNL     1       0.279  18.280  -2.023  1.00  0.00     0.147 C 
HETATM   19  C10 UNL     1      -0.421  18.300  -3.403  1.00  0.00     0.145 C 
ENDROOT
TORSDOF 0
ENDMDL
MODEL 4
REMARK VINA RESULT: -6.718935790      1.159      1.336
REMARK  0 active torsions:
REMARK  status: ('A' for Active; 'I' for Inactive)
REMARK       I    between atoms: C1_4  and  N3_6 
REMARK       I    between atoms: N4_9  and  C4_10 
REMARK       I    between atoms: C4_10  and  N5_12 
ROOT
HETATM    1  N1  UNL     1       3.808  21.270   2.669  1.00  0.00    -0.374 N 
ATOM      2  H11 UNL     1       3.439  22.167   2.353  1.00  0.00     0.158 HD
ATOM      3  H12 UNL     1       4.810  21.148   2.815  1.00  0.00     0.158 HD
HETATM    4  C1  UNL     1       2.979  20.309   2.874  1.00  0.00     0.184 C 
HETATM    5  N2  UNL     1       3.490  19.068   3.311  1.00  0.00    -0.064 NA
HETATM    6  N3  UNL     1       1.609  20.476   2.674  1.00  0.00    -0.353 N 
HETATM    7  C2  UNL     1       1.043  21.634   2.019  1.00  0.00     0.145 C 
HETATM    8  C3  UNL     1      -0.439  21.443   1.784  1.00  0.00     0.147 C 
HETATM    9  N4  UNL     1      -0.739  20.127   1.257  1.00  0.00    -0.331 N 
HETATM   10  C4  UNL     1      -1.654  19.980   0.207  1.00  0.00     0.320 C 
HETATM   11  O1  UNL     1      -2.167  21.103  -0.185  1.00  0.00    -0.247 OA
HETATM   12  N5  UNL     1      -2.089  18.835  -0.466  1.00  0.00    -0.333 N 
HETATM   13  C5  UNL     1      -3.105  19.064  -1.525  1.00  0.00     0.137 C 
HETATM   14  C6  UNL     1      -2.285  19.098  -2.830  1.00  0.00     0.093 C 
HETATM   15  S1  UNL     1      -1.777  17.348  -3.036  1.00  0.00    -0.166 SA
HETATM   16  C7  UNL     1      -2.059  16.547  -1.426  1.00  0.00     0.093 C 
HETATM   17  C8  UNL     1      -1.701  17.481  -0.288  1.00  0.00     0.137 C 
HETATM   18  C9  UNL     1      -0.080  19.009   1.852  1.00  0.00     0.147 C 
HETATM   19  C10 UNL     1       0.664  19.461   3.132  1.00  0.00     0.145 C 
ENDROOT
TORSDOF 0
ENDMDL
MODEL 5
REMARK VINA RESULT: -6.559443703      3.617      6.642
REMARK  0 active torsions:
REMARK  status: ('A' for Active; 'I' for Inactive)
REMARK       I    between atoms: C1_4  and  N3_6 
REMARK       I    between atoms: N4_9  and  C4_10 
REMARK       I    between atoms: C4_10  and  N5_12 
ROOT
HETATM    1  N1  UNL     1      -0.860  15.477  -5.930  1.00  0.00    -0.374 N 
ATOM      2  H11 UNL     1      -1.786  15.258  -5.562  1.00  0.00     0.158 HD
ATOM      3  H12 UNL     1      -0.435  14.883  -6.642  1.00  0.00     0.158 HD
HETATM    4  C1  UNL     1      -0.253  16.514  -5.473  1.00  0.00     0.184 C 
HETATM    5  N2  UNL     1       1.028  16.818  -5.983  1.00  0.00    -0.064 NA
HETATM    6  N3  UNL     1      -0.835  17.326  -4.500  1.00  0.00    -0.353 N 
HETATM    7  C2  UNL     1      -2.030  16.956  -3.776  1.00  0.00     0.145 C 
HETATM    8  C3  UNL     1      -2.308  17.945  -2.665  1.00  0.00     0.147 C 
HETATM    9  N4  UNL     1      -1.111  18.269  -1.916  1.00  0.00    -0.331 N 
HETATM   10  C4  UNL     1      -1.151  18.336  -0.517  1.00  0.00     0.320 C 
HETATM   11  O1  UNL     1      -2.327  18.100  -0.028  1.00  0.00    -0.247 OA
HETATM   12  N5  UNL     1      -0.141  18.612   0.409  1.00  0.00    -0.333 N 
HETATM   13  C5  UNL     1      -0.566  18.624   1.832  1.00  0.00     0.137 C 
HETATM   14  C6  UNL     1      -0.180  17.223   2.349  1.00  0.00     0.093 C 
HETATM   15  S1  UNL     1       1.651  17.303   2.405  1.00  0.00    -0.166 SA
HETATM   16  C7  UNL     1       2.125  18.751   1.409  1.00  0.00     0.093 C 
HETATM   17  C8  UNL     1       1.235  18.883   0.190  1.00  0.00     0.137 C 
HETATM   18  C9  UNL     1       0.085  18.521  -2.654  1.00  0.00     0.147 C 
HETATM   19  C10 UNL     1      -0.244  18.619  -4.164  1.00  0.00     0.145 C 
ENDROOT
TORSDOF 0
ENDMDL
