MODEL 1
REMARK VINA RESULT: -8.200592937      0.000      0.000
REMARK  1 active torsions:
REMARK  status: ('A' for Active; 'I' for Inactive)
REMARK    1  A    between atoms: N4_17  and  O1_18 
ROOT
HETATM    1  N1  UNL     1       0.761  20.459  -1.565  1.00  0.00    -0.405 N 
ATOM      2  H11 UNL     1       0.249  19.669  -1.957  1.00  0.00     0.155 HD
ATOM      3  H12 UNL     1       0.665  21.283  -2.159  1.00  0.00     0.155 HD
HETATM    4  C1  UNL     1       1.441  20.445  -0.476  1.00  0.00    -0.014 C 
HETATM    5  C2  UNL     1       2.190  21.601   0.096  1.00  0.00     0.053 C 
HETATM    6  C3  UNL     1       2.389  21.133   1.532  1.00  0.00     0.013 C 
HETATM    7  C4  UNL     1       2.685  19.676   1.344  1.00  0.00     0.030 C 
HETATM    8  C5  UNL     1       1.578  19.251   0.383  1.00  0.00     0.065 C 
HETATM    9  C6  UNL     1       0.393  19.084   1.322  1.00  0.00     0.284 C 
HETATM   10  N2  UNL     1       0.970  18.496   2.466  1.00  0.00     0.097 N 
HETATM   11  C7  UNL     1       0.231  18.641   3.678  1.00  0.00     0.316 C 
HETATM   12  C8  UNL     1       0.752  17.803   4.787  1.00  0.00     0.212 C 
HETATM   13  N3  UNL     1       2.063  17.281   4.586  1.00  0.00    -0.373 N 
HETATM   14  C9  UNL     1       2.696  16.788   5.744  1.00  0.00     0.061 C 
HETATM   15  C10 UNL     1       1.720  15.954   6.545  1.00  0.00     0.061 C 
HETATM   16  C11 UNL     1       0.514  15.598   5.727  1.00  0.00     0.128 C 
HETATM   17  N4  UNL     1      -0.174  16.731   5.178  1.00  0.00    -0.174 NA
HETATM   18  C12 UNL     1       2.289  16.575   3.384  1.00  0.00     0.126 C 
HETATM   19  C13 UNL     1       3.117  17.518   2.493  1.00  0.00     0.056 C 
HETATM   20  C14 UNL     1       2.348  18.846   2.557  1.00  0.00     0.229 C 
ENDROOT
BRANCH  17  21
HETATM   21  O1  UNL     1      -0.916  16.358   4.122  1.00  0.00    -0.311 OA
ATOM     22  H1  UNL     1      -1.155  15.442   4.200  1.00  0.00     0.237 HD
ENDBRANCH  17  21
TORSDOF 1
ENDMDL
MODEL 2
REMARK VINA RESULT: -8.199042894      5.272      8.111
REMARK  1 active torsions:
REMARK  status: ('A' for Active; 'I' for Inactive)
REMARK    1  A    between atoms: N4_17  and  O1_18 
ROOT
HETATM    1  N1  UNL     1      -0.802  20.424   1.526  1.00  0.00    -0.405 N 
ATOM      2  H11 UNL     1      -0.308  19.625   1.925  1.00  0.00     0.155 HD
ATOM      3  H12 UNL     1      -0.702  21.246   2.122  1.00  0.00     0.155 HD
HETATM    4  C1  UNL     1      -1.466  20.421   0.427  1.00  0.00    -0.014 C 
HETATM    5  C2  UNL     1      -2.188  21.589  -0.155  1.00  0.00     0.053 C 
HETATM    6  C3  UNL     1      -2.372  21.126  -1.594  1.00  0.00     0.013 C 
HETATM    7  C4  UNL     1      -2.694  19.674  -1.412  1.00  0.00     0.030 C 
HETATM    8  C5  UNL     1      -1.609  19.230  -0.436  1.00  0.00     0.065 C 
HETATM    9  C6  UNL     1      -0.413  19.045  -1.357  1.00  0.00     0.284 C 
HETATM   10  N2  UNL     1      -0.982  18.467  -2.509  1.00  0.00     0.097 N 
HETATM   11  C7  UNL     1      -0.223  18.601  -3.710  1.00  0.00     0.316 C 
HETATM   12  C8  UNL     1      -0.740  17.772  -4.828  1.00  0.00     0.212 C 
HETATM   13  N3  UNL     1      -2.062  17.271  -4.648  1.00  0.00    -0.373 N 
HETATM   14  C9  UNL     1      -2.686  16.789  -5.815  1.00  0.00     0.061 C 
HETATM   15  C10 UNL     1      -1.712  15.940  -6.602  1.00  0.00     0.061 C 
HETATM   16  C11 UNL     1      -0.524  15.564  -5.766  1.00  0.00     0.128 C 
HETATM   17  N4  UNL     1       0.174  16.686  -5.206  1.00  0.00    -0.174 NA
HETATM   18  C12 UNL     1      -2.318  16.569  -3.449  1.00  0.00     0.126 C 
HETATM   19  C13 UNL     1      -3.144  17.524  -2.570  1.00  0.00     0.056 C 
HETATM   20  C14 UNL     1      -2.353  18.840  -2.621  1.00  0.00     0.229 C 
ENDROOT
BRANCH  17  21
HETATM   21  O1  UNL     1       0.894  16.301  -4.139  1.00  0.00    -0.311 OA
ATOM     22  H1  UNL     1       0.637  15.426  -3.873  1.00  0.00     0.237 HD
ENDBRANCH  17  21
TORSDOF 1
ENDMDL
MODEL 3
REMARK VINA RESULT: -7.694431977      4.450      7.366
REMARK  1 active torsions:
REMARK  status: ('A' for Active; 'I' for Inactive)
REMARK    1  A    between atoms: N4_17  and  O1_18 
ROOT
HETATM    1  N1  UNL     1       0.675  19.221   2.746  1.00  0.00    -0.405 N 
ATOM      2  H11 UNL     1       1.135  18.320   2.881  1.00  0.00     0.155 HD
ATOM      3  H12 UNL     1       0.967  19.888   3.460  1.00  0.00     0.155 HD
HETATM    4  C1  UNL     1      -0.161  19.502   1.812  1.00  0.00    -0.014 C 
HETATM    5  C2  UNL     1      -0.833  20.819   1.616  1.00  0.00     0.053 C 
HETATM    6  C3  UNL     1      -1.309  20.687   0.175  1.00  0.00     0.013 C 
HETATM    7  C4  UNL     1      -1.759  19.258   0.129  1.00  0.00     0.030 C 
HETATM    8  C5  UNL     1      -0.583  18.536   0.777  1.00  0.00     0.065 C 
HETATM    9  C6  UNL     1       0.412  18.459  -0.371  1.00  0.00     0.284 C 
HETATM   10  N2  UNL     1      -0.406  18.184  -1.485  1.00  0.00     0.097 N 
HETATM   11  C7  UNL     1       0.150  18.510  -2.759  1.00  0.00     0.316 C 
HETATM   12  C8  UNL     1      -0.640  17.980  -3.898  1.00  0.00     0.212 C 
HETATM   13  N3  UNL     1      -1.961  17.555  -3.573  1.00  0.00    -0.373 N 
HETATM   14  C9  UNL     1      -2.823  17.381  -4.672  1.00  0.00     0.061 C 
HETATM   15  C10 UNL     1      -2.099  16.646  -5.779  1.00  0.00     0.061 C 
HETATM   16  C11 UNL     1      -0.838  16.011  -5.272  1.00  0.00     0.128 C 
HETATM   17  N4  UNL     1       0.067  16.932  -4.646  1.00  0.00    -0.174 NA
HETATM   18  C12 UNL     1      -2.089  16.636  -2.508  1.00  0.00     0.126 C 
HETATM   19  C13 UNL     1      -2.640  17.444  -1.320  1.00  0.00     0.056 C 
HETATM   20  C14 UNL     1      -1.724  18.675  -1.262  1.00  0.00     0.229 C 
ENDROOT
BRANCH  17  21
HETATM   21  O1  UNL     1       0.909  16.275  -3.830  1.00  0.00    -0.311 OA
ATOM     22  H1  UNL     1       0.786  15.338  -3.924  1.00  0.00     0.237 HD
ENDBRANCH  17  21
TORSDOF 1
ENDMDL
MODEL 4
REMARK VINA RESULT: -7.683715349      1.243      1.521
REMARK  1 active torsions:
REMARK  status: ('A' for Active; 'I' for Inactive)
REMARK    1  A    between atoms: N4_17  and  O1_18 
ROOT
HETATM    1  N1  UNL     1      -0.817  19.115  -2.746  1.00  0.00    -0.405 N 
ATOM      2  H11 UNL     1      -1.294  18.218  -2.844  1.00  0.00     0.155 HD
ATOM      3  H12 UNL     1      -1.122  19.769  -3.467  1.00  0.00     0.155 HD
HETATM    4  C1  UNL     1       0.052  19.405  -1.846  1.00  0.00    -0.014 C 
HETATM    5  C2  UNL     1       0.749  20.716  -1.702  1.00  0.00     0.053 C 
HETATM    6  C3  UNL     1       1.268  20.611  -0.275  1.00  0.00     0.013 C 
HETATM    7  C4  UNL     1       1.699  19.177  -0.208  1.00  0.00     0.030 C 
HETATM    8  C5  UNL     1       0.492  18.457  -0.802  1.00  0.00     0.065 C 
HETATM    9  C6  UNL     1      -0.466  18.423   0.379  1.00  0.00     0.284 C 
HETATM   10  N2  UNL     1       0.383  18.161   1.473  1.00  0.00     0.097 N 
HETATM   11  C7  UNL     1      -0.128  18.527   2.755  1.00  0.00     0.316 C 
HETATM   12  C8  UNL     1       0.690  18.011   3.882  1.00  0.00     0.212 C 
HETATM   13  N3  UNL     1       1.994  17.559   3.525  1.00  0.00    -0.373 N 
HETATM   14  C9  UNL     1       2.889  17.398   4.601  1.00  0.00     0.061 C 
HETATM   15  C10 UNL     1       2.190  16.700   5.747  1.00  0.00     0.061 C 
HETATM   16  C11 UNL     1       0.904  16.073   5.295  1.00  0.00     0.128 C 
HETATM   17  N4  UNL     1      -0.008  16.992   4.676  1.00  0.00    -0.174 NA
HETATM   18  C12 UNL     1       2.075  16.613   2.479  1.00  0.00     0.126 C 
HETATM   19  C13 UNL     1       2.599  17.385   1.255  1.00  0.00     0.056 C 
HETATM   20  C14 UNL     1       1.700  18.628   1.196  1.00  0.00     0.229 C 
ENDROOT
BRANCH  17  21
HETATM   21  O1  UNL     1      -0.884  16.328   3.903  1.00  0.00    -0.311 OA
ATOM     22  H1  UNL     1      -0.708  15.396   3.940  1.00  0.00     0.237 HD
ENDBRANCH  17  21
TORSDOF 1
ENDMDL
MODEL 5
REMARK VINA RESULT: -7.506864108      2.975      4.568
REMARK  1 active torsions:
REMARK  status: ('A' for Active; 'I' for Inactive)
REMARK    1  A    between atoms: N4_17  and  O1_18 
ROOT
HETATM    1  N1  UNL     1      -3.228  21.564  -1.772  1.00  0.00    -0.405 N 
ATOM      2  H11 UNL     1      -3.178  22.511  -1.396  1.00  0.00     0.155 HD
ATOM      3  H12 UNL     1      -3.827  21.532  -2.596  1.00  0.00     0.155 HD
HETATM    4  C1  UNL     1      -2.628  20.536  -1.290  1.00  0.00    -0.014 C 
HETATM    5  C2  UNL     1      -2.702  19.151  -1.839  1.00  0.00     0.053 C 
HETATM    6  C3  UNL     1      -1.493  18.511  -1.169  1.00  0.00     0.013 C 
HETATM    7  C4  UNL     1      -1.554  19.102   0.207  1.00  0.00     0.030 C 
HETATM    8  C5  UNL     1      -1.760  20.583  -0.096  1.00  0.00     0.065 C 
HETATM    9  C6  UNL     1      -0.347  21.035  -0.435  1.00  0.00     0.284 C 
HETATM   10  N2  UNL     1       0.446  20.331   0.494  1.00  0.00     0.097 N 
HETATM   11  C7  UNL     1       1.820  20.175   0.143  1.00  0.00     0.316 C 
HETATM   12  C8  UNL     1       2.654  19.650   1.253  1.00  0.00     0.212 C 
HETATM   13  N3  UNL     1       1.927  19.070   2.333  1.00  0.00    -0.373 N 
HETATM   14  C9  UNL     1       2.689  18.273   3.210  1.00  0.00     0.061 C 
HETATM   15  C10 UNL     1       3.993  18.969   3.532  1.00  0.00     0.061 C 
HETATM   16  C11 UNL     1       3.946  20.416   3.137  1.00  0.00     0.128 C 
HETATM   17  N4  UNL     1       3.623  20.633   1.756  1.00  0.00    -0.174 NA
HETATM   18  C12 UNL     1       0.907  19.859   2.910  1.00  0.00     0.126 C 
HETATM   19  C13 UNL     1      -0.420  19.261   2.409  1.00  0.00     0.056 C 
HETATM   20  C14 UNL     1      -0.212  19.133   0.893  1.00  0.00     0.229 C 
ENDROOT
BRANCH  17  21
HETATM   21  O1  UNL     1       3.148  21.877   1.579  1.00  0.00    -0.311 OA
ATOM     22  H1  UNL     1       3.570  22.475   2.185  1.00  0.00     0.237 HD
ENDBRANCH  17  21
TORSDOF 1
ENDMDL
