MODEL 1
REMARK VINA RESULT: -6.198449101      0.000      0.000
REMARK  14 active torsions:
REMARK  status: ('A' for Active; 'I' for Inactive)
REMARK    1  A    between atoms: C2_2  and  C3_3 
REMARK    2  A    between atoms: C3_3  and  C4_4 
REMARK    3  A    between atoms: C4_4  and  C5_5 
REMARK    4  A    between atoms: C5_5  and  C6_6 
REMARK    5  A    between atoms: C8_11  and  C9_12 
REMARK    6  A    between atoms: C9_12  and  C10_13 
REMARK    7  A    between atoms: C13_18  and  O2_19 
REMARK    8  A    between atoms: C14_21  and  C15_22 
REMARK    9  A    between atoms: C18_27  and  O3_28 
REMARK   10  A    between atoms: C19_30  and  C20_31 
REMARK   11  A    between atoms: C20_31  and  C21_32 
REMARK   12  A    between atoms: C21_32  and  C22_33 
REMARK   13  A    between atoms: C22_33  and  C23_34 
REMARK   14  A    between atoms: C23_34  and  N4_35 
ROOT
HETATM    1  C6  UNL     1       3.463  25.282   1.048  1.00  0.00     0.176 C 
HETATM    2  N1  UNL     1       4.056  25.733   2.297  1.00  0.00    -0.346 N 
ATOM      3  H1  UNL     1       3.530  26.424   2.832  1.00  0.00     0.163 HD
HETATM    4  C7  UNL     1       5.275  25.315   2.840  1.00  0.00     0.241 C 
HETATM    5  O1  UNL     1       5.272  24.941   4.066  1.00  0.00    -0.271 OA
HETATM    6  C8  UNL     1       6.590  25.261   2.124  1.00  0.00     0.176 C 
HETATM    7  N2  UNL     1       7.570  24.627   2.936  1.00  0.00    -0.356 N 
ATOM      8  H2  UNL     1       7.401  23.622   2.998  1.00  0.00     0.162 HD
HETATM    9  C13 UNL     1       8.679  24.989   3.661  1.00  0.00     0.160 C 
HETATM   10  C14 UNL     1       8.891  25.718   4.931  1.00  0.00     0.065 C 
HETATM   11  N3  UNL     1       8.025  26.779   5.253  1.00  0.00    -0.338 N 
ATOM     12  H3  UNL     1       7.654  27.247   4.425  1.00  0.00     0.167 HD
HETATM   13  C18 UNL     1       7.554  27.342   6.447  1.00  0.00     0.139 C 
HETATM   14  C19 UNL     1       6.680  26.799   7.499  1.00  0.00     0.159 C 
HETATM   15  N5  UNL     1       5.672  27.842   7.787  1.00  0.00    -0.348 N 
ATOM     16  H5  UNL     1       6.009  28.795   7.924  1.00  0.00     0.163 HD
HETATM   17  C24 UNL     1       4.288  27.628   7.887  1.00  0.00     0.232 C 
HETATM   18  O4  UNL     1       3.678  28.016   8.945  1.00  0.00    -0.272 OA
HETATM   19  C25 UNL     1       3.436  26.981   6.858  1.00  0.00     0.149 C 
HETATM   20 BR1  UNL     1       2.816  28.377   5.681  1.00  0.00    -0.081 Br
HETATM   21  C26 UNL     1       2.339  26.167   7.448  1.00  0.00     0.025 C 
HETATM   22  C27 UNL     1       0.991  26.387   6.843  1.00  0.00     0.002 C 
HETATM   23  C28 UNL     1       0.554  25.200   5.977  1.00  0.00     0.000 C 
HETATM   24  C29 UNL     1      -0.510  25.559   4.991  1.00  0.00     0.002 C 
HETATM   25  C30 UNL     1      -0.288  24.993   3.608  1.00  0.00     0.020 C 
HETATM   26  C31 UNL     1       1.016  25.533   3.074  1.00  0.00     0.122 C 
HETATM   27  N6  UNL     1       1.007  25.643   1.629  1.00  0.00    -0.359 N 
ATOM     28  H6  UNL     1       0.118  25.513   1.146  1.00  0.00     0.162 HD
HETATM   29  C32 UNL     1       2.138  25.917   0.855  1.00  0.00     0.240 C 
HETATM   30  O5  UNL     1       2.044  26.773  -0.093  1.00  0.00    -0.271 OA
ENDROOT
BRANCH  14  31
HETATM   31  C20 UNL     1       7.325  26.543   8.828  1.00  0.00     0.034 C 
BRANCH  31  32
HETATM   32  C21 UNL     1       8.095  25.270   8.935  1.00  0.00     0.004 C 
BRANCH  32  33
HETATM   33  C22 UNL     1       9.398  25.534   9.664  1.00  0.00     0.027 C 
BRANCH  33  34
HETATM   34  C23 UNL     1       9.611  26.988   9.983  1.00  0.00     0.229 C 
BRANCH  34  35
HETATM   35  N4  UNL     1      10.928  27.396   9.508  1.00  0.00    -0.079 N 
ATOM     36  H43 UNL     1      11.672  26.799   9.869  1.00  0.00     0.274 HD
ATOM     37  H42 UNL     1      11.059  27.202   8.515  1.00  0.00     0.274 HD
ATOM     38  H41 UNL     1      11.077  28.379   9.733  1.00  0.00     0.274 HD
ENDBRANCH  34  35
ENDBRANCH  33  34
ENDBRANCH  32  33
ENDBRANCH  31  32
ENDBRANCH  14  31
BRANCH  13  39
HETATM   39  O3  UNL     1       7.919  28.565   6.732  1.00  0.00    -0.348 OA
ATOM     40  H3  UNL     1       7.507  29.274   6.254  1.00  0.00     0.219 HD
ENDBRANCH  13  39
BRANCH  10  41
HETATM   41  C15 UNL     1       9.230  24.751   6.054  1.00  0.00     0.032 C 
HETATM   42  C16 UNL     1       9.352  23.332   5.622  1.00  0.00     0.016 C 
HETATM   43  C17 UNL     1      10.596  25.169   6.616  1.00  0.00     0.016 C 
ENDBRANCH  10  41
BRANCH   9  44
HETATM   44  O2  UNL     1       9.811  24.611   3.126  1.00  0.00    -0.345 OA
ATOM     45  H2  UNL     1      10.580  24.950   3.568  1.00  0.00     0.219 HD
ENDBRANCH   9  44
BRANCH   6  46
HETATM   46  C9  UNL     1       6.885  26.560   1.498  1.00  0.00     0.038 C 
BRANCH  46  47
HETATM   47  C10 UNL     1       8.070  26.633   0.601  1.00  0.00    -0.020 C 
HETATM   48  C11 UNL     1       7.708  27.093  -0.797  1.00  0.00     0.009 C 
HETATM   49  C12 UNL     1       8.954  27.767   1.161  1.00  0.00     0.009 C 
ENDBRANCH  46  47
ENDBRANCH   6  46
BRANCH   1  50
HETATM   50  C5  UNL     1       3.284  23.760   1.017  1.00  0.00     0.035 C 
BRANCH  50  51
HETATM   51  C4  UNL     1       2.729  23.464  -0.376  1.00  0.00     0.002 C 
BRANCH  51  52
HETATM   52  C3  UNL     1       1.709  22.354  -0.329  1.00  0.00    -0.000 C 
BRANCH  52  53
HETATM   53  C2  UNL     1       2.107  21.424   0.793  1.00  0.00    -0.005 C 
HETATM   54  C1  UNL     1       2.097  19.985   0.384  1.00  0.00     0.005 C 
ENDBRANCH  52  53
ENDBRANCH  51  52
ENDBRANCH  50  51
ENDBRANCH   1  50
TORSDOF 14
ENDMDL
MODEL 2
REMARK VINA RESULT: -5.268911990      1.359      1.651
REMARK  14 active torsions:
REMARK  status: ('A' for Active; 'I' for Inactive)
REMARK    1  A    between atoms: C2_2  and  C3_3 
REMARK    2  A    between atoms: C3_3  and  C4_4 
REMARK    3  A    between atoms: C4_4  and  C5_5 
REMARK    4  A    between atoms: C5_5  and  C6_6 
REMARK    5  A    between atoms: C8_11  and  C9_12 
REMARK    6  A    between atoms: C9_12  and  C10_13 
REMARK    7  A    between atoms: C13_18  and  O2_19 
REMARK    8  A    between atoms: C14_21  and  C15_22 
REMARK    9  A    between atoms: C18_27  and  O3_28 
REMARK   10  A    between atoms: C19_30  and  C20_31 
REMARK   11  A    between atoms: C20_31  and  C21_32 
REMARK   12  A    between atoms: C21_32  and  C22_33 
REMARK   13  A    between atoms: C22_33  and  C23_34 
REMARK   14  A    between atoms: C23_34  and  N4_35 
ROOT
HETATM    1  C6  UNL     1       2.553  25.688   1.400  1.00  0.00     0.176 C 
HETATM    2  N1  UNL     1       3.632  25.914   2.349  1.00  0.00    -0.346 N 
ATOM      3  H1  UNL     1       3.492  26.656   3.035  1.00  0.00     0.163 HD
HETATM    4  C7  UNL     1       4.842  25.218   2.415  1.00  0.00     0.241 C 
HETATM    5  O1  UNL     1       5.192  24.761   3.561  1.00  0.00    -0.271 OA
HETATM    6  C8  UNL     1       5.774  24.951   1.273  1.00  0.00     0.176 C 
HETATM    7  N2  UNL     1       6.815  24.071   1.678  1.00  0.00    -0.356 N 
ATOM      8  H2  UNL     1       6.466  23.120   1.800  1.00  0.00     0.162 HD
HETATM    9  C13 UNL     1       8.160  24.145   1.951  1.00  0.00     0.160 C 
HETATM   10  C14 UNL     1       8.960  24.718   3.056  1.00  0.00     0.065 C 
HETATM   11  N3  UNL     1       8.516  25.906   3.665  1.00  0.00    -0.338 N 
ATOM     12  H3  UNL     1       7.987  26.500   3.026  1.00  0.00     0.167 HD
HETATM   13  C18 UNL     1       8.632  26.462   4.947  1.00  0.00     0.139 C 
HETATM   14  C19 UNL     1       8.091  26.031   6.245  1.00  0.00     0.159 C 
HETATM   15  N5  UNL     1       7.502  27.233   6.875  1.00  0.00    -0.348 N 
ATOM     16  H5  UNL     1       8.064  28.084   6.877  1.00  0.00     0.163 HD
HETATM   17  C24 UNL     1       6.232  27.298   7.469  1.00  0.00     0.232 C 
HETATM   18  O4  UNL     1       6.135  27.721   8.675  1.00  0.00    -0.272 OA
HETATM   19  C25 UNL     1       4.953  26.916   6.821  1.00  0.00     0.149 C 
HETATM   20 BR1  UNL     1       4.275  28.494   5.942  1.00  0.00    -0.081 Br
HETATM   21  C26 UNL     1       3.987  26.302   7.770  1.00  0.00     0.025 C 
HETATM   22  C27 UNL     1       2.594  26.836   7.693  1.00  0.00     0.002 C 
HETATM   23  C28 UNL     1       1.632  25.831   7.048  1.00  0.00     0.000 C 
HETATM   24  C29 UNL     1       0.393  26.471   6.512  1.00  0.00     0.002 C 
HETATM   25  C30 UNL     1      -0.017  25.978   5.145  1.00  0.00     0.020 C 
HETATM   26  C31 UNL     1       1.098  26.279   4.173  1.00  0.00     0.122 C 
HETATM   27  N6  UNL     1       0.602  26.498   2.829  1.00  0.00    -0.359 N 
ATOM     28  H6  UNL     1      -0.406  26.587   2.700  1.00  0.00     0.162 HD
HETATM   29  C32 UNL     1       1.416  26.593   1.697  1.00  0.00     0.240 C 
HETATM   30  O5  UNL     1       1.181  27.518   0.844  1.00  0.00    -0.271 OA
ENDROOT
BRANCH  14  31
HETATM   31  C20 UNL     1       9.093  25.550   7.253  1.00  0.00     0.034 C 
BRANCH  31  32
HETATM   32  C21 UNL     1       8.523  25.056   8.539  1.00  0.00     0.004 C 
BRANCH  32  33
HETATM   33  C22 UNL     1       9.377  25.557   9.689  1.00  0.00     0.027 C 
BRANCH  33  34
HETATM   34  C23 UNL     1      10.008  26.893   9.414  1.00  0.00     0.229 C 
BRANCH  34  35
HETATM   35  N4  UNL     1       9.133  27.949   9.913  1.00  0.00    -0.079 N 
ATOM     36  H43 UNL     1       9.097  28.751   9.285  1.00  0.00     0.274 HD
ATOM     37  H42 UNL     1       8.148  27.688   9.870  1.00  0.00     0.274 HD
ATOM     38  H41 UNL     1       9.424  28.208  10.856  1.00  0.00     0.274 HD
ENDBRANCH  34  35
ENDBRANCH  33  34
ENDBRANCH  32  33
ENDBRANCH  31  32
ENDBRANCH  14  31
BRANCH  13  39
HETATM   39  O3  UNL     1       9.330  27.560   5.076  1.00  0.00    -0.348 OA
ATOM     40  H3  UNL     1       9.792  27.885   4.313  1.00  0.00     0.219 HD
ENDBRANCH  13  39
BRANCH  10  41
HETATM   41  C15 UNL     1       9.456  23.621   3.984  1.00  0.00     0.032 C 
HETATM   42  C16 UNL     1       9.452  22.261   3.379  1.00  0.00     0.016 C 
HETATM   43  C17 UNL     1      10.912  23.951   4.340  1.00  0.00     0.016 C 
ENDBRANCH  10  41
BRANCH   9  44
HETATM   44  O2  UNL     1       8.918  23.586   1.045  1.00  0.00    -0.345 OA
ATOM     45  H2  UNL     1       9.577  23.000   1.399  1.00  0.00     0.219 HD
ENDBRANCH   9  44
BRANCH   6  46
HETATM   46  C9  UNL     1       6.103  26.206   0.577  1.00  0.00     0.038 C 
BRANCH  46  47
HETATM   47  C10 UNL     1       7.491  26.358   0.063  1.00  0.00    -0.020 C 
HETATM   48  C11 UNL     1       7.529  26.979  -1.320  1.00  0.00     0.009 C 
HETATM   49  C12 UNL     1       8.165  27.407   0.973  1.00  0.00     0.009 C 
ENDBRANCH  46  47
ENDBRANCH   6  46
BRANCH   1  50
HETATM   50  C5  UNL     1       2.049  24.241   1.442  1.00  0.00     0.035 C 
BRANCH  50  51
HETATM   51  C4  UNL     1       2.424  23.661   0.078  1.00  0.00     0.002 C 
BRANCH  51  52
HETATM   52  C3  UNL     1       2.240  22.165   0.056  1.00  0.00    -0.000 C 
BRANCH  52  53
HETATM   53  C2  UNL     1       2.348  21.677   1.482  1.00  0.00    -0.005 C 
HETATM   54  C1  UNL     1       2.362  20.184   1.584  1.00  0.00     0.005 C 
ENDBRANCH  52  53
ENDBRANCH  51  52
ENDBRANCH  50  51
ENDBRANCH   1  50
TORSDOF 14
ENDMDL
MODEL 3
REMARK VINA RESULT: -5.163130934      1.489      1.979
REMARK  14 active torsions:
REMARK  status: ('A' for Active; 'I' for Inactive)
REMARK    1  A    between atoms: C2_2  and  C3_3 
REMARK    2  A    between atoms: C3_3  and  C4_4 
REMARK    3  A    between atoms: C4_4  and  C5_5 
REMARK    4  A    between atoms: C5_5  and  C6_6 
REMARK    5  A    between atoms: C8_11  and  C9_12 
REMARK    6  A    between atoms: C9_12  and  C10_13 
REMARK    7  A    between atoms: C13_18  and  O2_19 
REMARK    8  A    between atoms: C14_21  and  C15_22 
REMARK    9  A    between atoms: C18_27  and  O3_28 
REMARK   10  A    between atoms: C19_30  and  C20_31 
REMARK   11  A    between atoms: C20_31  and  C21_32 
REMARK   12  A    between atoms: C21_32  and  C22_33 
REMARK   13  A    between atoms: C22_33  and  C23_34 
REMARK   14  A    between atoms: C23_34  and  N4_35 
ROOT
HETATM    1  C6  UNL     1       2.546  25.641   1.245  1.00  0.00     0.176 C 
HETATM    2  N1  UNL     1       3.595  25.886   2.222  1.00  0.00    -0.346 N 
ATOM      3  H1  UNL     1       3.424  26.626   2.903  1.00  0.00     0.163 HD
HETATM    4  C7  UNL     1       4.814  25.209   2.323  1.00  0.00     0.241 C 
HETATM    5  O1  UNL     1       5.140  24.761   3.479  1.00  0.00    -0.271 OA
HETATM    6  C8  UNL     1       5.781  24.957   1.207  1.00  0.00     0.176 C 
HETATM    7  N2  UNL     1       6.825  24.095   1.642  1.00  0.00    -0.356 N 
ATOM      8  H2  UNL     1       6.488  23.138   1.756  1.00  0.00     0.162 HD
HETATM    9  C13 UNL     1       8.160  24.191   1.951  1.00  0.00     0.160 C 
HETATM   10  C14 UNL     1       8.920  24.779   3.077  1.00  0.00     0.065 C 
HETATM   11  N3  UNL     1       8.440  25.960   3.671  1.00  0.00    -0.338 N 
ATOM     12  H3  UNL     1       7.919  26.545   3.017  1.00  0.00     0.167 HD
HETATM   13  C18 UNL     1       8.512  26.520   4.955  1.00  0.00     0.139 C 
HETATM   14  C19 UNL     1       7.942  26.081   6.239  1.00  0.00     0.159 C 
HETATM   15  N5  UNL     1       7.316  27.274   6.850  1.00  0.00    -0.348 N 
ATOM     16  H5  UNL     1       7.864  28.135   6.866  1.00  0.00     0.163 HD
HETATM   17  C24 UNL     1       6.030  27.319   7.409  1.00  0.00     0.232 C 
HETATM   18  O4  UNL     1       5.894  27.742   8.611  1.00  0.00    -0.272 OA
HETATM   19  C25 UNL     1       4.775  26.915   6.727  1.00  0.00     0.149 C 
HETATM   20 BR1  UNL     1       4.096  28.481   5.827  1.00  0.00    -0.081 Br
HETATM   21  C26 UNL     1       3.794  26.286   7.650  1.00  0.00     0.025 C 
HETATM   22  C27 UNL     1       2.395  26.797   7.534  1.00  0.00     0.002 C 
HETATM   23  C28 UNL     1       1.468  25.775   6.865  1.00  0.00     0.000 C 
HETATM   24  C29 UNL     1       0.234  26.395   6.294  1.00  0.00     0.002 C 
HETATM   25  C30 UNL     1      -0.130  25.893   4.917  1.00  0.00     0.020 C 
HETATM   26  C31 UNL     1       1.005  26.211   3.976  1.00  0.00     0.122 C 
HETATM   27  N6  UNL     1       0.543  26.419   2.618  1.00  0.00    -0.359 N 
ATOM     28  H6  UNL     1      -0.462  26.492   2.462  1.00  0.00     0.162 HD
HETATM   29  C32 UNL     1       1.387  26.527   1.509  1.00  0.00     0.240 C 
HETATM   30  O5  UNL     1       1.159  27.447   0.648  1.00  0.00    -0.271 OA
ENDROOT
BRANCH  14  31
HETATM   31  C20 UNL     1       8.924  25.618   7.274  1.00  0.00     0.034 C 
BRANCH  31  32
HETATM   32  C21 UNL     1       8.334  25.201   8.578  1.00  0.00     0.004 C 
BRANCH  32  33
HETATM   33  C22 UNL     1       9.247  25.645   9.705  1.00  0.00     0.027 C 
BRANCH  33  34
HETATM   34  C23 UNL     1       9.638  27.093   9.610  1.00  0.00     0.229 C 
BRANCH  34  35
HETATM   35  N4  UNL     1       8.526  27.921  10.063  1.00  0.00    -0.079 N 
ATOM     36  H43 UNL     1       8.242  28.605   9.361  1.00  0.00     0.274 HD
ATOM     37  H42 UNL     1       7.652  27.399  10.118  1.00  0.00     0.274 HD
ATOM     38  H41 UNL     1       8.773  28.358  10.951  1.00  0.00     0.274 HD
ENDBRANCH  34  35
ENDBRANCH  33  34
ENDBRANCH  32  33
ENDBRANCH  31  32
ENDBRANCH  14  31
BRANCH  13  39
HETATM   39  O3  UNL     1       9.187  27.629   5.101  1.00  0.00    -0.348 OA
ATOM     40  H3  UNL     1       9.907  27.633   5.721  1.00  0.00     0.219 HD
ENDBRANCH  13  39
BRANCH  10  41
HETATM   41  C15 UNL     1       9.408  23.692   4.020  1.00  0.00     0.032 C 
HETATM   42  C16 UNL     1       9.445  22.331   3.417  1.00  0.00     0.016 C 
HETATM   43  C17 UNL     1      10.848  24.047   4.416  1.00  0.00     0.016 C 
ENDBRANCH  10  41
BRANCH   9  44
HETATM   44  O2  UNL     1       8.952  23.643   1.067  1.00  0.00    -0.345 OA
ATOM     45  H2  UNL     1       9.730  24.153   0.877  1.00  0.00     0.219 HD
ENDBRANCH   9  44
BRANCH   6  46
HETATM   46  C9  UNL     1       6.108  26.216   0.518  1.00  0.00     0.038 C 
BRANCH  46  47
HETATM   47  C10 UNL     1       7.480  26.353  -0.040  1.00  0.00    -0.020 C 
HETATM   48  C11 UNL     1       7.483  26.988  -1.417  1.00  0.00     0.009 C 
HETATM   49  C12 UNL     1       8.200  27.381   0.858  1.00  0.00     0.009 C 
ENDBRANCH  46  47
ENDBRANCH   6  46
BRANCH   1  50
HETATM   50  C5  UNL     1       2.065  24.186   1.275  1.00  0.00     0.035 C 
BRANCH  50  51
HETATM   51  C4  UNL     1       1.834  23.823  -0.192  1.00  0.00     0.002 C 
BRANCH  51  52
HETATM   52  C3  UNL     1       2.899  24.425  -1.074  1.00  0.00    -0.000 C 
BRANCH  52  53
HETATM   53  C2  UNL     1       2.264  24.710  -2.415  1.00  0.00    -0.005 C 
HETATM   54  C1  UNL     1       0.950  25.415  -2.297  1.00  0.00     0.005 C 
ENDBRANCH  52  53
ENDBRANCH  51  52
ENDBRANCH  50  51
ENDBRANCH   1  50
TORSDOF 14
ENDMDL
MODEL 4
REMARK VINA RESULT: -5.112621203      7.428     12.451
REMARK  14 active torsions:
REMARK  status: ('A' for Active; 'I' for Inactive)
REMARK    1  A    between atoms: C2_2  and  C3_3 
REMARK    2  A    between atoms: C3_3  and  C4_4 
REMARK    3  A    between atoms: C4_4  and  C5_5 
REMARK    4  A    between atoms: C5_5  and  C6_6 
REMARK    5  A    between atoms: C8_11  and  C9_12 
REMARK    6  A    between atoms: C9_12  and  C10_13 
REMARK    7  A    between atoms: C13_18  and  O2_19 
REMARK    8  A    between atoms: C14_21  and  C15_22 
REMARK    9  A    between atoms: C18_27  and  O3_28 
REMARK   10  A    between atoms: C19_30  and  C20_31 
REMARK   11  A    between atoms: C20_31  and  C21_32 
REMARK   12  A    between atoms: C21_32  and  C22_33 
REMARK   13  A    between atoms: C22_33  and  C23_34 
REMARK   14  A    between atoms: C23_34  and  N4_35 
ROOT
HETATM    1  C6  UNL     1       2.794  16.289   3.326  1.00  0.00     0.176 C 
HETATM    2  N1  UNL     1       2.344  16.832   2.055  1.00  0.00    -0.346 N 
ATOM      3  H1  UNL     1       1.679  17.605   2.095  1.00  0.00     0.163 HD
HETATM    4  C7  UNL     1       2.730  16.402   0.782  1.00  0.00     0.241 C 
HETATM    5  O1  UNL     1       3.123  17.300  -0.045  1.00  0.00    -0.271 OA
HETATM    6  C8  UNL     1       2.729  14.988   0.287  1.00  0.00     0.176 C 
HETATM    7  N2  UNL     1       3.343  14.911  -0.993  1.00  0.00    -0.356 N 
ATOM      8  H2  UNL     1       4.354  15.035  -0.923  1.00  0.00     0.162 HD
HETATM    9  C13 UNL     1       2.956  14.715  -2.296  1.00  0.00     0.160 C 
HETATM   10  C14 UNL     1       2.241  15.539  -3.296  1.00  0.00     0.065 C 
HETATM   11  N3  UNL     1       1.214  16.394  -2.856  1.00  0.00    -0.338 N 
ATOM     12  H3  UNL     1       0.746  16.046  -2.019  1.00  0.00     0.167 HD
HETATM   13  C18 UNL     1       0.686  17.614  -3.302  1.00  0.00     0.139 C 
HETATM   14  C19 UNL     1       1.275  18.961  -3.368  1.00  0.00     0.159 C 
HETATM   15  N5  UNL     1       0.270  19.887  -2.800  1.00  0.00    -0.348 N 
ATOM     16  H5  UNL     1      -0.691  19.794  -3.129  1.00  0.00     0.163 HD
HETATM   17  C24 UNL     1       0.531  20.882  -1.845  1.00  0.00     0.232 C 
HETATM   18  O4  UNL     1       0.181  22.088  -2.099  1.00  0.00    -0.272 OA
HETATM   19  C25 UNL     1       1.190  20.669  -0.532  1.00  0.00     0.149 C 
HETATM   20 BR1  UNL     1      -0.204  20.260   0.737  1.00  0.00    -0.081 Br
HETATM   21  C26 UNL     1       2.049  21.814  -0.127  1.00  0.00     0.025 C 
HETATM   22  C27 UNL     1       1.864  22.278   1.281  1.00  0.00     0.002 C 
HETATM   23  C28 UNL     1       3.051  21.889   2.170  1.00  0.00     0.000 C 
HETATM   24  C29 UNL     1       2.712  21.885   3.625  1.00  0.00     0.002 C 
HETATM   25  C30 UNL     1       3.248  20.693   4.382  1.00  0.00     0.020 C 
HETATM   26  C31 UNL     1       2.657  19.441   3.782  1.00  0.00     0.122 C 
HETATM   27  N6  UNL     1       2.524  18.380   4.761  1.00  0.00    -0.359 N 
ATOM     28  H6  UNL     1       2.676  18.614   5.742  1.00  0.00     0.162 HD
HETATM   29  C32 UNL     1       2.200  17.057   4.447  1.00  0.00     0.240 C 
HETATM   30  O5  UNL     1       1.333  16.447   5.165  1.00  0.00    -0.271 OA
ENDROOT
BRANCH  14  31
HETATM   31  C20 UNL     1       1.531  19.505  -4.742  1.00  0.00     0.034 C 
BRANCH  31  32
HETATM   32  C21 UNL     1       2.571  20.569  -4.829  1.00  0.00     0.004 C 
BRANCH  32  33
HETATM   33  C22 UNL     1       1.926  21.862  -5.288  1.00  0.00     0.027 C 
BRANCH  33  34
HETATM   34  C23 UNL     1       2.729  23.081  -4.928  1.00  0.00     0.229 C 
BRANCH  34  35
HETATM   35  N4  UNL     1       2.722  23.248  -3.478  1.00  0.00    -0.079 N 
ATOM     36  H43 UNL     1       2.421  22.403  -2.992  1.00  0.00     0.274 HD
ATOM     37  H42 UNL     1       3.664  23.309  -3.091  1.00  0.00     0.274 HD
ATOM     38  H41 UNL     1       2.151  24.058  -3.237  1.00  0.00     0.274 HD
ENDBRANCH  34  35
ENDBRANCH  33  34
ENDBRANCH  32  33
ENDBRANCH  31  32
ENDBRANCH  14  31
BRANCH  13  39
HETATM   39  O3  UNL     1      -0.543  17.622  -3.746  1.00  0.00    -0.348 OA
ATOM     40  H3  UNL     1      -1.245  17.683  -3.110  1.00  0.00     0.219 HD
ENDBRANCH  13  39
BRANCH  10  41
HETATM   41  C15 UNL     1       3.214  16.110  -4.315  1.00  0.00     0.032 C 
HETATM   42  C16 UNL     1       4.648  15.917  -3.966  1.00  0.00     0.016 C 
HETATM   43  C17 UNL     1       2.970  15.373  -5.639  1.00  0.00     0.016 C 
ENDBRANCH  10  41
BRANCH   9  44
HETATM   44  O2  UNL     1       3.288  13.547  -2.781  1.00  0.00    -0.345 OA
ATOM     45  H2  UNL     1       3.830  13.591  -3.560  1.00  0.00     0.219 HD
ENDBRANCH   9  44
BRANCH   6  46
HETATM   46  C9  UNL     1       1.411  14.370   0.507  1.00  0.00     0.038 C 
BRANCH  46  47
HETATM   47  C10 UNL     1       1.381  13.047   1.185  1.00  0.00    -0.020 C 
HETATM   48  C11 UNL     1       1.215  11.900   0.207  1.00  0.00     0.009 C 
HETATM   49  C12 UNL     1       2.793  12.844   1.776  1.00  0.00     0.009 C 
ENDBRANCH  46  47
ENDBRANCH   6  46
BRANCH   1  50
HETATM   50  C5  UNL     1       4.321  16.335   3.459  1.00  0.00     0.035 C 
BRANCH  50  51
HETATM   51  C4  UNL     1       4.615  15.637   4.787  1.00  0.00     0.002 C 
BRANCH  51  52
HETATM   52  C3  UNL     1       4.252  14.175   4.724  1.00  0.00    -0.000 C 
BRANCH  52  53
HETATM   53  C2  UNL     1       5.521  13.386   4.948  1.00  0.00    -0.005 C 
HETATM   54  C1  UNL     1       5.940  12.607   3.740  1.00  0.00     0.005 C 
ENDBRANCH  52  53
ENDBRANCH  51  52
ENDBRANCH  50  51
ENDBRANCH   1  50
TORSDOF 14
ENDMDL
MODEL 5
REMARK VINA RESULT: -5.081430516      3.684      5.737
REMARK  14 active torsions:
REMARK  status: ('A' for Active; 'I' for Inactive)
REMARK    1  A    between atoms: C2_2  and  C3_3 
REMARK    2  A    between atoms: C3_3  and  C4_4 
REMARK    3  A    between atoms: C4_4  and  C5_5 
REMARK    4  A    between atoms: C5_5  and  C6_6 
REMARK    5  A    between atoms: C8_11  and  C9_12 
REMARK    6  A    between atoms: C9_12  and  C10_13 
REMARK    7  A    between atoms: C13_18  and  O2_19 
REMARK    8  A    between atoms: C14_21  and  C15_22 
REMARK    9  A    between atoms: C18_27  and  O3_28 
REMARK   10  A    between atoms: C19_30  and  C20_31 
REMARK   11  A    between atoms: C20_31  and  C21_32 
REMARK   12  A    between atoms: C21_32  and  C22_33 
REMARK   13  A    between atoms: C22_33  and  C23_34 
REMARK   14  A    between atoms: C23_34  and  N4_35 
ROOT
HETATM    1  C6  UNL     1       7.769  25.654   2.510  1.00  0.00     0.176 C 
HETATM    2  N1  UNL     1       8.714  25.415   3.588  1.00  0.00    -0.346 N 
ATOM      3  H1  UNL     1       8.769  26.126   4.317  1.00  0.00     0.163 HD
HETATM    4  C7  UNL     1       9.556  24.307   3.728  1.00  0.00     0.241 C 
HETATM    5  O1  UNL     1       9.550  23.708   4.862  1.00  0.00    -0.271 OA
HETATM    6  C8  UNL     1      10.467  23.750   2.677  1.00  0.00     0.176 C 
HETATM    7  N2  UNL     1      11.039  22.525   3.118  1.00  0.00    -0.356 N 
ATOM      8  H2  UNL     1      10.347  21.775   3.116  1.00  0.00     0.162 HD
HETATM    9  C13 UNL     1      12.263  22.070   3.544  1.00  0.00     0.160 C 
HETATM   10  C14 UNL     1      13.061  22.252   4.778  1.00  0.00     0.065 C 
HETATM   11  N3  UNL     1      13.014  23.494   5.435  1.00  0.00    -0.338 N 
ATOM     12  H3  UNL     1      12.837  24.270   4.796  1.00  0.00     0.167 HD
HETATM   13  C18 UNL     1      13.153  23.914   6.765  1.00  0.00     0.139 C 
HETATM   14  C19 UNL     1      12.318  23.671   7.953  1.00  0.00     0.159 C 
HETATM   15  N5  UNL     1      12.140  24.982   8.616  1.00  0.00    -0.348 N 
ATOM     16  H5  UNL     1      12.973  25.553   8.755  1.00  0.00     0.163 HD
HETATM   17  C24 UNL     1      10.918  25.503   9.068  1.00  0.00     0.232 C 
HETATM   18  O4  UNL     1      10.823  25.883  10.288  1.00  0.00    -0.272 OA
HETATM   19  C25 UNL     1       9.690  25.663   8.250  1.00  0.00     0.149 C 
HETATM   20 BR1  UNL     1       9.776  27.413   7.443  1.00  0.00    -0.081 Br
HETATM   21  C26 UNL     1       8.445  25.426   9.028  1.00  0.00     0.025 C 
HETATM   22  C27 UNL     1       7.376  26.454   8.843  1.00  0.00     0.002 C 
HETATM   23  C28 UNL     1       6.206  25.917   8.009  1.00  0.00     0.000 C 
HETATM   24  C29 UNL     1       5.382  27.002   7.397  1.00  0.00     0.002 C 
HETATM   25  C30 UNL     1       5.007  26.755   5.955  1.00  0.00     0.020 C 
HETATM   26  C31 UNL     1       6.275  26.647   5.144  1.00  0.00     0.122 C 
HETATM   27  N6  UNL     1       6.085  27.090   3.777  1.00  0.00    -0.359 N 
ATOM     28  H6  UNL     1       5.211  27.561   3.545  1.00  0.00     0.162 HD
HETATM   29  C32 UNL     1       7.022  26.911   2.756  1.00  0.00     0.240 C 
HETATM   30  O5  UNL     1       7.268  27.889   1.966  1.00  0.00    -0.271 OA
ENDROOT
BRANCH  14  31
HETATM   31  C20 UNL     1      12.921  22.806   9.019  1.00  0.00     0.034 C 
BRANCH  31  32
HETATM   32  C21 UNL     1      13.696  21.630   8.531  1.00  0.00     0.004 C 
BRANCH  32  33
HETATM   33  C22 UNL     1      15.151  21.791   8.928  1.00  0.00     0.027 C 
BRANCH  33  34
HETATM   34  C23 UNL     1      16.100  21.594   7.780  1.00  0.00     0.229 C 
BRANCH  34  35
HETATM   35  N4  UNL     1      16.372  22.883   7.155  1.00  0.00    -0.079 N 
ATOM     36  H43 UNL     1      15.567  23.509   7.192  1.00  0.00     0.274 HD
ATOM     37  H42 UNL     1      17.020  23.450   7.701  1.00  0.00     0.274 HD
ATOM     38  H41 UNL     1      16.699  22.732   6.201  1.00  0.00     0.274 HD
ENDBRANCH  34  35
ENDBRANCH  33  34
ENDBRANCH  32  33
ENDBRANCH  31  32
ENDBRANCH  14  31
BRANCH  13  39
HETATM   39  O3  UNL     1      14.185  24.657   7.067  1.00  0.00    -0.348 OA
ATOM     40  H3  UNL     1      14.345  24.843   7.985  1.00  0.00     0.219 HD
ENDBRANCH  13  39
BRANCH  10  41
HETATM   41  C15 UNL     1      12.980  21.013   5.655  1.00  0.00     0.032 C 
HETATM   42  C16 UNL     1      11.595  20.525   5.899  1.00  0.00     0.016 C 
HETATM   43  C17 UNL     1      13.730  19.890   4.925  1.00  0.00     0.016 C 
ENDBRANCH  10  41
BRANCH   9  44
HETATM   44  O2  UNL     1      12.875  21.299   2.683  1.00  0.00    -0.345 OA
ATOM     45  H2  UNL     1      12.782  20.371   2.860  1.00  0.00     0.219 HD
ENDBRANCH   9  44
BRANCH   6  46
HETATM   46  C9  UNL     1      11.332  24.811   2.136  1.00  0.00     0.038 C 
BRANCH  46  47
HETATM   47  C10 UNL     1      11.053  25.279   0.751  1.00  0.00    -0.020 C 
HETATM   48  C11 UNL     1      12.165  24.918  -0.215  1.00  0.00     0.009 C 
HETATM   49  C12 UNL     1       9.841  24.457   0.265  1.00  0.00     0.009 C 
ENDBRANCH  46  47
ENDBRANCH   6  46
BRANCH   1  50
HETATM   50  C5  UNL     1       6.761  24.508   2.368  1.00  0.00     0.035 C 
BRANCH  50  51
HETATM   51  C4  UNL     1       6.046  24.782   1.044  1.00  0.00     0.002 C 
BRANCH  51  52
HETATM   52  C3  UNL     1       4.551  24.673   1.202  1.00  0.00    -0.000 C 
BRANCH  52  53
HETATM   53  C2  UNL     1       4.282  24.174   2.603  1.00  0.00    -0.005 C 
HETATM   54  C1  UNL     1       2.982  23.442   2.718  1.00  0.00     0.005 C 
ENDBRANCH  52  53
ENDBRANCH  51  52
ENDBRANCH  50  51
ENDBRANCH   1  50
TORSDOF 14
ENDMDL
