MODEL 1
REMARK VINA RESULT: -7.566794605      0.000      0.000
REMARK  2 active torsions:
REMARK  status: ('A' for Active; 'I' for Inactive)
REMARK    1  A    between atoms: N1_1  and  N2_4 
REMARK       I    between atoms: N2_4  and  C1_6 
REMARK    2  A    between atoms: C1_6  and  C2_8 
ROOT
HETATM    1  C2  UNL     1     117.485  41.348  62.275  1.00  0.00     0.191 A 
HETATM    2  N3  UNL     1     117.156  40.832  63.471  1.00  0.00    -0.279 N 
ATOM      3  H3  UNL     1     116.576  41.382  64.105  1.00  0.00     0.189 HD
HETATM    4  N4  UNL     1     117.560  39.638  63.851  1.00  0.00    -0.281 N 
ATOM      5  H4  UNL     1     117.300  39.264  64.763  1.00  0.00     0.188 HD
HETATM    6  C3  UNL     1     118.328  38.920  63.000  1.00  0.00     0.168 A 
HETATM    7  N5  UNL     1     118.893  37.696  63.078  1.00  0.00    -0.280 N 
ATOM      8  H5  UNL     1     118.815  37.067  63.877  1.00  0.00     0.189 HD
HETATM    9  N6  UNL     1     119.564  37.429  61.970  1.00  0.00    -0.263 N 
ATOM     10  H6  UNL     1     120.077  36.566  61.790  1.00  0.00     0.190 HD
HETATM   11  C4  UNL     1     119.471  38.464  61.116  1.00  0.00     0.290 A 
HETATM   12  O2  UNL     1     119.978  38.562  59.975  1.00  0.00    -0.264 OA
HETATM   13  C5  UNL     1     118.689  39.413  61.759  1.00  0.00     0.151 A 
HETATM   14  N7  UNL     1     118.251  40.625  61.433  1.00  0.00    -0.329 N 
ATOM     15  H7  UNL     1     118.500  41.017  60.525  1.00  0.00     0.168 HD
ENDROOT
BRANCH   1  16
HETATM   16  C1  UNL     1     117.015  42.683  61.889  1.00  0.00     0.304 C 
HETATM   17  N2  UNL     1     116.667  42.925  60.544  1.00  0.00    -0.270 N 
ATOM     18  H2  UNL     1     116.755  42.157  59.878  1.00  0.00     0.189 HD
HETATM   19  O1  UNL     1     116.946  43.554  62.787  1.00  0.00    -0.263 OA
BRANCH  17  20
HETATM   20  N1  UNL     1     116.210  44.154  60.075  1.00  0.00    -0.342 N 
ATOM     21  H12 UNL     1     116.802  44.646  59.406  1.00  0.00     0.176 HD
ATOM     22  H11 UNL     1     115.328  44.576  60.364  1.00  0.00     0.176 HD
ENDBRANCH  17  20
ENDBRANCH   1  16
TORSDOF 2
ENDMDL
MODEL 2
REMARK VINA RESULT: -7.455199699      2.698      3.774
REMARK  2 active torsions:
REMARK  status: ('A' for Active; 'I' for Inactive)
REMARK    1  A    between atoms: N1_1  and  N2_4 
REMARK       I    between atoms: N2_4  and  C1_6 
REMARK    2  A    between atoms: C1_6  and  C2_8 
ROOT
HETATM    1  C2  UNL     1     118.731  40.502  64.023  1.00  0.00     0.191 A 
HETATM    2  N3  UNL     1     119.454  41.254  63.175  1.00  0.00    -0.279 N 
ATOM      3  H3  UNL     1     119.669  42.218  63.429  1.00  0.00     0.189 HD
HETATM    4  N4  UNL     1     119.893  40.783  62.027  1.00  0.00    -0.281 N 
ATOM      5  H4  UNL     1     120.440  41.369  61.397  1.00  0.00     0.188 HD
HETATM    6  C3  UNL     1     119.601  39.503  61.704  1.00  0.00     0.168 A 
HETATM    7  N5  UNL     1     119.891  38.732  60.634  1.00  0.00    -0.280 N 
ATOM      8  H5  UNL     1     120.432  39.038  59.824  1.00  0.00     0.189 HD
HETATM    9  N6  UNL     1     119.375  37.525  60.784  1.00  0.00    -0.263 N 
ATOM     10  H6  UNL     1     119.459  36.764  60.109  1.00  0.00     0.190 HD
HETATM   11  C4  UNL     1     118.722  37.446  61.957  1.00  0.00     0.290 A 
HETATM   12  O2  UNL     1     118.114  36.459  62.431  1.00  0.00    -0.264 OA
HETATM   13  C5  UNL     1     118.861  38.695  62.549  1.00  0.00     0.151 A 
HETATM   14  N7  UNL     1     118.445  39.227  63.694  1.00  0.00    -0.329 N 
ATOM     15  H7  UNL     1     117.897  38.656  64.338  1.00  0.00     0.168 HD
ENDROOT
BRANCH   1  16
HETATM   16  C1  UNL     1     118.260  41.064  65.293  1.00  0.00     0.304 C 
HETATM   17  N2  UNL     1     118.130  40.215  66.412  1.00  0.00    -0.270 N 
ATOM     18  H2  UNL     1     118.369  39.230  66.300  1.00  0.00     0.189 HD
HETATM   19  O1  UNL     1     117.993  42.288  65.321  1.00  0.00    -0.263 OA
BRANCH  17  20
HETATM   20  N1  UNL     1     117.692  40.647  67.662  1.00  0.00    -0.342 N 
ATOM     21  H12 UNL     1     117.393  41.619  67.739  1.00  0.00     0.176 HD
ATOM     22  H11 UNL     1     117.658  40.049  68.487  1.00  0.00     0.176 HD
ENDBRANCH  17  20
ENDBRANCH   1  16
TORSDOF 2
ENDMDL
MODEL 3
REMARK VINA RESULT: -7.161799455      4.089      5.975
REMARK  2 active torsions:
REMARK  status: ('A' for Active; 'I' for Inactive)
REMARK    1  A    between atoms: N1_1  and  N2_4 
REMARK       I    between atoms: N2_4  and  C1_6 
REMARK    2  A    between atoms: C1_6  and  C2_8 
ROOT
HETATM    1  C2  UNL     1     118.042  40.712  64.848  1.00  0.00     0.191 A 
HETATM    2  N3  UNL     1     117.638  41.984  64.684  1.00  0.00    -0.279 N 
ATOM      3  H3  UNL     1     117.494  42.339  63.739  1.00  0.00     0.189 HD
HETATM    4  N4  UNL     1     117.425  42.785  65.706  1.00  0.00    -0.281 N 
ATOM      5  H4  UNL     1     117.119  43.747  65.562  1.00  0.00     0.188 HD
HETATM    6  C3  UNL     1     117.621  42.300  66.954  1.00  0.00     0.168 A 
HETATM    7  N5  UNL     1     117.496  42.842  68.185  1.00  0.00    -0.280 N 
ATOM      8  H5  UNL     1     117.204  43.802  68.372  1.00  0.00     0.189 HD
HETATM    9  N6  UNL     1     117.806  41.953  69.112  1.00  0.00    -0.263 N 
ATOM     10  H6  UNL     1     117.788  42.125  70.117  1.00  0.00     0.190 HD
HETATM   11  C4  UNL     1     118.150  40.788  68.535  1.00  0.00     0.290 A 
HETATM   12  O2  UNL     1     118.501  39.727  69.101  1.00  0.00    -0.264 OA
HETATM   13  C5  UNL     1     118.035  40.997  67.167  1.00  0.00     0.151 A 
HETATM   14  N7  UNL     1     118.234  40.237  66.095  1.00  0.00    -0.329 N 
ATOM     15  H7  UNL     1     118.539  39.271  66.219  1.00  0.00     0.168 HD
ENDROOT
BRANCH   1  16
HETATM   16  C1  UNL     1     118.269  39.851  63.683  1.00  0.00     0.304 C 
HETATM   17  N2  UNL     1     118.556  38.485  63.886  1.00  0.00    -0.270 N 
ATOM     18  H2  UNL     1     118.598  38.138  64.844  1.00  0.00     0.189 HD
HETATM   19  O1  UNL     1     118.195  40.380  62.549  1.00  0.00    -0.263 OA
BRANCH  17  20
HETATM   20  N1  UNL     1     118.786  37.583  62.849  1.00  0.00    -0.342 N 
ATOM     21  H12 UNL     1     118.028  37.436  62.184  1.00  0.00     0.176 HD
ATOM     22  H11 UNL     1     119.662  37.074  62.727  1.00  0.00     0.176 HD
ENDBRANCH  17  20
ENDBRANCH   1  16
TORSDOF 2
ENDMDL
MODEL 4
REMARK VINA RESULT: -7.158309599      1.527      1.721
REMARK  2 active torsions:
REMARK  status: ('A' for Active; 'I' for Inactive)
REMARK    1  A    between atoms: N1_1  and  N2_4 
REMARK       I    between atoms: N2_4  and  C1_6 
REMARK    2  A    between atoms: C1_6  and  C2_8 
ROOT
HETATM    1  C2  UNL     1     117.780  41.441  61.640  1.00  0.00     0.191 A 
HETATM    2  N3  UNL     1     118.880  41.993  62.182  1.00  0.00    -0.279 N 
ATOM      3  H3  UNL     1     118.872  42.985  62.415  1.00  0.00     0.189 HD
HETATM    4  N4  UNL     1     119.967  41.290  62.419  1.00  0.00    -0.281 N 
ATOM      5  H4  UNL     1     120.792  41.726  62.831  1.00  0.00     0.188 HD
HETATM    6  C3  UNL     1     119.963  39.975  62.105  1.00  0.00     0.168 A 
HETATM    7  N5  UNL     1     120.888  38.997  62.216  1.00  0.00    -0.280 N 
ATOM      8  H5  UNL     1     121.827  39.123  62.595  1.00  0.00     0.189 HD
HETATM    9  N6  UNL     1     120.404  37.853  61.764  1.00  0.00    -0.263 N 
ATOM     10  H6  UNL     1     120.913  36.969  61.744  1.00  0.00     0.190 HD
HETATM   11  C4  UNL     1     119.142  38.026  61.334  1.00  0.00     0.290 A 
HETATM   12  O2  UNL     1     118.374  37.165  60.844  1.00  0.00    -0.264 OA
HETATM   13  C5  UNL     1     118.853  39.368  61.547  1.00  0.00     0.151 A 
HETATM   14  N7  UNL     1     117.785  40.129  61.330  1.00  0.00    -0.329 N 
ATOM     15  H7  UNL     1     116.950  39.710  60.920  1.00  0.00     0.168 HD
ENDROOT
BRANCH   1  16
HETATM   16  C1  UNL     1     116.588  42.258  61.391  1.00  0.00     0.304 C 
HETATM   17  N2  UNL     1     116.672  43.335  60.484  1.00  0.00    -0.270 N 
ATOM     18  H2  UNL     1     117.567  43.512  60.028  1.00  0.00     0.189 HD
HETATM   19  O1  UNL     1     115.539  41.954  62.005  1.00  0.00    -0.263 OA
BRANCH  17  20
HETATM   20  N1  UNL     1     115.601  44.170  60.177  1.00  0.00    -0.342 N 
ATOM     21  H12 UNL     1     115.005  44.465  60.950  1.00  0.00     0.176 HD
ATOM     22  H11 UNL     1     115.389  44.494  59.233  1.00  0.00     0.176 HD
ENDBRANCH  17  20
ENDBRANCH   1  16
TORSDOF 2
ENDMDL
MODEL 5
REMARK VINA RESULT: -7.064816768      4.742      6.694
REMARK  2 active torsions:
REMARK  status: ('A' for Active; 'I' for Inactive)
REMARK    1  A    between atoms: N1_1  and  N2_4 
REMARK       I    between atoms: N2_4  and  C1_6 
REMARK    2  A    between atoms: C1_6  and  C2_8 
ROOT
HETATM    1  C2  UNL     1     118.298  41.062  66.155  1.00  0.00     0.191 A 
HETATM    2  N3  UNL     1     118.076  40.272  67.219  1.00  0.00    -0.279 N 
ATOM      3  H3  UNL     1     117.901  39.278  67.071  1.00  0.00     0.189 HD
HETATM    4  N4  UNL     1     118.076  40.743  68.449  1.00  0.00    -0.281 N 
ATOM      5  H4  UNL     1     117.905  40.128  69.244  1.00  0.00     0.188 HD
HETATM    6  C3  UNL     1     118.308  42.062  68.631  1.00  0.00     0.168 A 
HETATM    7  N5  UNL     1     118.376  42.844  69.730  1.00  0.00    -0.280 N 
ATOM      8  H5  UNL     1     118.246  42.517  70.687  1.00  0.00     0.189 HD
HETATM    9  N6  UNL     1     118.634  44.095  69.388  1.00  0.00    -0.263 N 
ATOM     10  H6  UNL     1     118.732  44.872  70.043  1.00  0.00     0.190 HD
HETATM   11  C4  UNL     1     118.746  44.193  68.052  1.00  0.00     0.290 A 
HETATM   12  O2  UNL     1     118.987  45.221  67.377  1.00  0.00    -0.264 OA
HETATM   13  C5  UNL     1     118.543  42.910  67.563  1.00  0.00     0.151 A 
HETATM   14  N7  UNL     1     118.530  42.376  66.346  1.00  0.00    -0.329 N 
ATOM     15  H7  UNL     1     118.700  42.974  65.537  1.00  0.00     0.168 HD
ENDROOT
BRANCH   1  16
HETATM   16  C1  UNL     1     118.290  40.498  64.801  1.00  0.00     0.304 C 
HETATM   17  N2  UNL     1     118.810  39.203  64.594  1.00  0.00    -0.270 N 
ATOM     18  H2  UNL     1     119.178  38.698  65.399  1.00  0.00     0.189 HD
HETATM   19  O1  UNL     1     117.815  41.206  63.882  1.00  0.00    -0.263 OA
BRANCH  17  20
HETATM   20  N1  UNL     1     118.849  38.578  63.350  1.00  0.00    -0.342 N 
ATOM     21  H12 UNL     1     119.683  38.036  63.128  1.00  0.00     0.176 HD
ATOM     22  H11 UNL     1     118.095  38.635  62.665  1.00  0.00     0.176 HD
ENDBRANCH  17  20
ENDBRANCH   1  16
TORSDOF 2
ENDMDL
