MODEL 1
REMARK VINA RESULT: -6.322438535      0.000      0.000
REMARK  4 active torsions:
REMARK  status: ('A' for Active; 'I' for Inactive)
REMARK    1  A    between atoms: C3_4  and  C4_5 
REMARK    2  A    between atoms: C4_5  and  O1_6 
REMARK    3  A    between atoms: C4_5  and  N2_8 
REMARK    4  A    between atoms: N2_8  and  N3_10 
ROOT
HETATM    1  N1  UNL     1     118.127  40.760  67.047  1.00  0.00    -0.191 NA
HETATM    2  C1  UNL     1     117.873  40.964  65.944  1.00  0.00     0.106 C 
HETATM    3  C2  UNL     1     117.528  41.264  64.596  1.00  0.00     0.129 A 
HETATM    4  C3  UNL     1     117.960  40.506  63.555  1.00  0.00     0.070 A 
HETATM    5  C5  UNL     1     117.544  40.914  62.266  1.00  0.00     0.103 A 
HETATM    6  N4  UNL     1     117.945  40.182  61.113  1.00  0.00    -0.098 NA
HETATM    7  C6  UNL     1     116.754  42.005  62.051  1.00  0.00     0.144 A 
HETATM    8  N5  UNL     1     116.350  42.392  60.717  1.00  0.00    -0.081 NA
HETATM    9  N6  UNL     1     116.345  42.734  63.101  1.00  0.00    -0.309 N 
ATOM     10  H6  UNL     1     115.752  43.553  62.961  1.00  0.00     0.170 HD
HETATM   11  C7  UNL     1     116.720  42.376  64.332  1.00  0.00     0.268 A 
HETATM   12  O2  UNL     1     116.336  43.058  65.308  1.00  0.00    -0.266 OA
ENDROOT
BRANCH   4  13
HETATM   13  C4  UNL     1     118.787  39.347  63.666  1.00  0.00     0.168 C 
BRANCH  13  14
HETATM   14  O1  UNL     1     120.069  39.627  63.570  1.00  0.00    -0.344 OA
ATOM     15  H1  UNL     1     120.623  38.917  63.873  1.00  0.00     0.219 HD
ENDBRANCH  13  14
BRANCH  13  16
HETATM   16  N2  UNL     1     118.552  37.995  63.855  1.00  0.00    -0.286 N 
ATOM     17  H2  UNL     1     118.389  37.610  64.785  1.00  0.00     0.188 HD
BRANCH  16  18
HETATM   18  N3  UNL     1     118.547  37.147  62.681  1.00  0.00    -0.343 N 
ATOM     19  H32 UNL     1     117.888  37.322  61.923  1.00  0.00     0.176 HD
ATOM     20  H31 UNL     1     119.221  36.383  62.650  1.00  0.00     0.176 HD
ENDBRANCH  16  18
ENDBRANCH  13  16
ENDBRANCH   4  13
TORSDOF 4
ENDMDL
MODEL 2
REMARK VINA RESULT: -6.132980087      2.884      5.263
REMARK  4 active torsions:
REMARK  status: ('A' for Active; 'I' for Inactive)
REMARK    1  A    between atoms: C3_4  and  C4_5 
REMARK    2  A    between atoms: C4_5  and  O1_6 
REMARK    3  A    between atoms: C4_5  and  N2_8 
REMARK    4  A    between atoms: N2_8  and  N3_10 
ROOT
HETATM    1  N1  UNL     1     116.453  43.466  64.040  1.00  0.00    -0.191 NA
HETATM    2  C1  UNL     1     116.946  43.415  65.078  1.00  0.00     0.106 C 
HETATM    3  C2  UNL     1     117.554  43.410  66.365  1.00  0.00     0.129 A 
HETATM    4  C3  UNL     1     117.897  42.258  66.996  1.00  0.00     0.070 A 
HETATM    5  C5  UNL     1     118.496  42.394  68.271  1.00  0.00     0.103 A 
HETATM    6  N4  UNL     1     118.890  41.243  69.010  1.00  0.00    -0.098 NA
HETATM    7  C6  UNL     1     118.725  43.604  68.858  1.00  0.00     0.144 A 
HETATM    8  N5  UNL     1     119.338  43.703  70.164  1.00  0.00    -0.081 NA
HETATM    9  N6  UNL     1     118.373  44.724  68.208  1.00  0.00    -0.309 N 
ATOM     10  H6  UNL     1     118.538  45.638  68.630  1.00  0.00     0.170 HD
HETATM   11  C7  UNL     1     117.807  44.630  67.002  1.00  0.00     0.268 A 
HETATM   12  O2  UNL     1     117.480  45.677  66.400  1.00  0.00    -0.266 OA
ENDROOT
BRANCH   4  13
HETATM   13  C4  UNL     1     117.704  40.943  66.474  1.00  0.00     0.168 C 
BRANCH  13  14
HETATM   14  O1  UNL     1     116.518  40.451  66.763  1.00  0.00    -0.344 OA
ATOM     15  H1  UNL     1     116.424  39.542  66.503  1.00  0.00     0.219 HD
ENDBRANCH  13  14
BRANCH  13  16
HETATM   16  N2  UNL     1     118.476  40.064  65.731  1.00  0.00    -0.286 N 
ATOM     17  H2  UNL     1     119.310  39.629  66.125  1.00  0.00     0.188 HD
BRANCH  16  18
HETATM   18  N3  UNL     1     118.053  39.785  64.375  1.00  0.00    -0.343 N 
ATOM     19  H32 UNL     1     117.840  38.830  64.088  1.00  0.00     0.176 HD
ATOM     20  H31 UNL     1     117.980  40.574  63.733  1.00  0.00     0.176 HD
ENDBRANCH  16  18
ENDBRANCH  13  16
ENDBRANCH   4  13
TORSDOF 4
ENDMDL
MODEL 3
REMARK VINA RESULT: -6.103983205      2.626      3.890
REMARK  4 active torsions:
REMARK  status: ('A' for Active; 'I' for Inactive)
REMARK    1  A    between atoms: C3_4  and  C4_5 
REMARK    2  A    between atoms: C4_5  and  O1_6 
REMARK    3  A    between atoms: C4_5  and  N2_8 
REMARK    4  A    between atoms: N2_8  and  N3_10 
ROOT
HETATM    1  N1  UNL     1     118.508  39.898  68.994  1.00  0.00    -0.191 NA
HETATM    2  C1  UNL     1     118.188  40.816  68.379  1.00  0.00     0.106 C 
HETATM    3  C2  UNL     1     117.794  41.984  67.668  1.00  0.00     0.129 A 
HETATM    4  C3  UNL     1     117.573  41.973  66.328  1.00  0.00     0.070 A 
HETATM    5  C5  UNL     1     117.185  43.202  65.745  1.00  0.00     0.103 A 
HETATM    6  N4  UNL     1     116.931  43.288  64.347  1.00  0.00    -0.098 NA
HETATM    7  C6  UNL     1     117.034  44.350  66.464  1.00  0.00     0.144 A 
HETATM    8  N5  UNL     1     116.636  45.589  65.831  1.00  0.00    -0.081 NA
HETATM    9  N6  UNL     1     117.260  44.329  67.787  1.00  0.00    -0.309 N 
ATOM     10  H6  UNL     1     117.151  45.177  68.343  1.00  0.00     0.170 HD
HETATM   11  C7  UNL     1     117.628  43.184  68.369  1.00  0.00     0.268 A 
HETATM   12  O2  UNL     1     117.838  43.169  69.602  1.00  0.00    -0.266 OA
ENDROOT
BRANCH   4  13
HETATM   13  C4  UNL     1     117.701  40.830  65.482  1.00  0.00     0.168 C 
BRANCH  13  14
HETATM   14  O1  UNL     1     116.585  40.542  64.846  1.00  0.00    -0.344 OA
ATOM     15  H1  UNL     1     115.835  41.013  65.188  1.00  0.00     0.219 HD
ENDBRANCH  13  14
BRANCH  13  16
HETATM   16  N2  UNL     1     118.728  39.953  65.172  1.00  0.00    -0.286 N 
ATOM     17  H2  UNL     1     119.613  39.974  65.680  1.00  0.00     0.188 HD
BRANCH  16  18
HETATM   18  N3  UNL     1     118.500  39.006  64.101  1.00  0.00    -0.343 N 
ATOM     19  H32 UNL     1     118.252  39.335  63.168  1.00  0.00     0.176 HD
ATOM     20  H31 UNL     1     118.598  38.015  64.320  1.00  0.00     0.176 HD
ENDBRANCH  16  18
ENDBRANCH  13  16
ENDBRANCH   4  13
TORSDOF 4
ENDMDL
MODEL 4
REMARK VINA RESULT: -6.076638036      4.987      7.758
REMARK  4 active torsions:
REMARK  status: ('A' for Active; 'I' for Inactive)
REMARK    1  A    between atoms: C3_4  and  C4_5 
REMARK    2  A    between atoms: C4_5  and  O1_6 
REMARK    3  A    between atoms: C4_5  and  N2_8 
REMARK    4  A    between atoms: N2_8  and  N3_10 
ROOT
HETATM    1  N1  UNL     1     114.718  47.623  57.612  1.00  0.00    -0.191 NA
HETATM    2  C1  UNL     1     115.022  46.740  58.283  1.00  0.00     0.106 C 
HETATM    3  C2  UNL     1     115.413  45.617  59.066  1.00  0.00     0.129 A 
HETATM    4  C3  UNL     1     115.348  45.626  60.422  1.00  0.00     0.070 A 
HETATM    5  C5  UNL     1     115.766  44.444  61.079  1.00  0.00     0.103 A 
HETATM    6  N4  UNL     1     115.734  44.359  62.499  1.00  0.00    -0.098 NA
HETATM    7  C6  UNL     1     116.214  43.343  60.411  1.00  0.00     0.144 A 
HETATM    8  N5  UNL     1     116.634  42.153  61.118  1.00  0.00    -0.081 NA
HETATM    9  N6  UNL     1     116.266  43.366  59.070  1.00  0.00    -0.309 N 
ATOM     10  H6  UNL     1     116.598  42.552  58.553  1.00  0.00     0.170 HD
HETATM   11  C7  UNL     1     115.879  44.467  58.420  1.00  0.00     0.268 A 
HETATM   12  O2  UNL     1     115.930  44.484  57.170  1.00  0.00    -0.266 OA
ENDROOT
BRANCH   4  13
HETATM   13  C4  UNL     1     114.896  46.721  61.219  1.00  0.00     0.168 C 
BRANCH  13  14
HETATM   14  O1  UNL     1     115.862  47.561  61.524  1.00  0.00    -0.344 OA
ATOM     15  H1  UNL     1     116.340  47.303  62.303  1.00  0.00     0.219 HD
ENDBRANCH  13  14
BRANCH  13  16
HETATM   16  N2  UNL     1     113.673  47.107  61.744  1.00  0.00    -0.286 N 
ATOM     17  H2  UNL     1     113.109  47.831  61.298  1.00  0.00     0.188 HD
BRANCH  16  18
HETATM   18  N3  UNL     1     113.225  46.445  62.951  1.00  0.00    -0.343 N 
ATOM     19  H32 UNL     1     113.214  45.426  63.006  1.00  0.00     0.176 HD
ATOM     20  H31 UNL     1     112.928  47.033  63.729  1.00  0.00     0.176 HD
ENDBRANCH  16  18
ENDBRANCH  13  16
ENDBRANCH   4  13
TORSDOF 4
ENDMDL
MODEL 5
REMARK VINA RESULT: -6.038027161      4.155      6.317
REMARK  4 active torsions:
REMARK  status: ('A' for Active; 'I' for Inactive)
REMARK    1  A    between atoms: C3_4  and  C4_5 
REMARK    2  A    between atoms: C4_5  and  O1_6 
REMARK    3  A    between atoms: C4_5  and  N2_8 
REMARK    4  A    between atoms: N2_8  and  N3_10 
ROOT
HETATM    1  N1  UNL     1     116.007  44.523  57.396  1.00  0.00    -0.191 NA
HETATM    2  C1  UNL     1     115.674  44.789  58.464  1.00  0.00     0.106 C 
HETATM    3  C2  UNL     1     115.229  45.161  59.764  1.00  0.00     0.129 A 
HETATM    4  C3  UNL     1     115.636  44.504  60.881  1.00  0.00     0.070 A 
HETATM    5  C5  UNL     1     115.119  44.976  62.111  1.00  0.00     0.103 A 
HETATM    6  N4  UNL     1     115.489  44.352  63.336  1.00  0.00    -0.098 NA
HETATM    7  C6  UNL     1     114.257  46.029  62.198  1.00  0.00     0.144 A 
HETATM    8  N5  UNL     1     113.749  46.482  63.475  1.00  0.00    -0.081 NA
HETATM    9  N6  UNL     1     113.874  46.657  61.076  1.00  0.00    -0.309 N 
ATOM     10  H6  UNL     1     113.230  47.447  61.121  1.00  0.00     0.170 HD
HETATM   11  C7  UNL     1     114.344  46.236  59.898  1.00  0.00     0.268 A 
HETATM   12  O2  UNL     1     113.983  46.824  58.855  1.00  0.00    -0.266 OA
ENDROOT
BRANCH   4  13
HETATM   13  C4  UNL     1     116.534  43.394  60.903  1.00  0.00     0.168 C 
BRANCH  13  14
HETATM   14  O1  UNL     1     117.726  43.714  61.360  1.00  0.00    -0.344 OA
ATOM     15  H1  UNL     1     117.912  43.325  62.206  1.00  0.00     0.219 HD
ENDBRANCH  13  14
BRANCH  13  16
HETATM   16  N2  UNL     1     116.440  42.055  60.558  1.00  0.00    -0.286 N 
ATOM     17  H2  UNL     1     115.750  41.730  59.880  1.00  0.00     0.188 HD
BRANCH  16  18
HETATM   18  N3  UNL     1     117.358  41.135  61.195  1.00  0.00    -0.343 N 
ATOM     19  H32 UNL     1     117.058  40.188  61.428  1.00  0.00     0.176 HD
ATOM     20  H31 UNL     1     118.300  41.471  61.395  1.00  0.00     0.176 HD
ENDBRANCH  16  18
ENDBRANCH  13  16
ENDBRANCH   4  13
TORSDOF 4
ENDMDL
