MODEL 1
REMARK VINA RESULT: -7.476960002      0.000      0.000
REMARK  2 active torsions:
REMARK  status: ('A' for Active; 'I' for Inactive)
REMARK       I    between atoms: C2_2  and  N1_4 
REMARK    1  A    between atoms: N1_4  and  N2_6 
REMARK    2  A    between atoms: N3_8  and  C3_10 
ROOT
HETATM    1  C3  UNL     1     118.668  39.085  63.780  1.00  0.00     0.205 A 
HETATM    2  N4  UNL     1     118.476  37.763  63.737  1.00  0.00    -0.276 N 
ATOM      3  H4  UNL     1     118.195  37.274  64.588  1.00  0.00     0.189 HD
HETATM    4  N5  UNL     1     118.640  37.070  62.622  1.00  0.00    -0.250 N 
ATOM      5  H5  UNL     1     118.484  36.063  62.636  1.00  0.00     0.192 HD
HETATM    6  C4  UNL     1     119.008  37.657  61.472  1.00  0.00     0.341 A 
HETATM    7  O2  UNL     1     119.168  37.006  60.401  1.00  0.00    -0.245 OA
HETATM    8  N6  UNL     1     119.207  38.970  61.477  1.00  0.00    -0.271 N 
ATOM      9  H6  UNL     1     119.486  39.438  60.614  1.00  0.00     0.174 HD
HETATM   10  C5  UNL     1     119.043  39.703  62.612  1.00  0.00     0.296 A 
HETATM   11  O3  UNL     1     119.250  40.959  62.539  1.00  0.00    -0.264 OA
ENDROOT
BRANCH   1  12
HETATM   12  N3  UNL     1     118.516  39.877  64.933  1.00  0.00    -0.265 N 
HETATM   13  N2  UNL     1     117.521  40.612  65.116  1.00  0.00    -0.238 N 
ATOM     14  H2  UNL     1     117.517  41.142  65.988  1.00  0.00     0.208 HD
ATOM     15  H3  UNL     1     119.245  39.852  65.646  1.00  0.00     0.190 HD
BRANCH  13  16
HETATM   16  N1  UNL     1     116.433  40.798  64.299  1.00  0.00    -0.256 N 
HETATM   17  C2  UNL     1     116.171  41.999  63.609  1.00  0.00     0.233 C 
HETATM   18  C1  UNL     1     114.941  42.070  62.745  1.00  0.00     0.119 C 
HETATM   19  O1  UNL     1     116.872  43.019  63.648  1.00  0.00    -0.272 OA
ATOM     20  H1  UNL     1     115.779  40.025  64.184  1.00  0.00     0.191 HD
ENDBRANCH  13  16
ENDBRANCH   1  12
TORSDOF 2
ENDMDL
MODEL 2
REMARK VINA RESULT: -7.176884370      2.398      2.867
REMARK  2 active torsions:
REMARK  status: ('A' for Active; 'I' for Inactive)
REMARK       I    between atoms: C2_2  and  N1_4 
REMARK    1  A    between atoms: N1_4  and  N2_6 
REMARK    2  A    between atoms: N3_8  and  C3_10 
ROOT
HETATM    1  C3  UNL     1     118.386  40.204  63.344  1.00  0.00     0.205 A 
HETATM    2  N4  UNL     1     119.304  39.236  63.429  1.00  0.00    -0.276 N 
ATOM      3  H4  UNL     1     119.090  38.394  63.964  1.00  0.00     0.189 HD
HETATM    4  N5  UNL     1     120.483  39.340  62.837  1.00  0.00    -0.250 N 
ATOM      5  H5  UNL     1     121.153  38.577  62.929  1.00  0.00     0.192 HD
HETATM    6  C4  UNL     1     120.821  40.422  62.118  1.00  0.00     0.341 A 
HETATM    7  O2  UNL     1     121.944  40.532  61.547  1.00  0.00    -0.245 OA
HETATM    8  N6  UNL     1     119.933  41.403  62.011  1.00  0.00    -0.271 N 
ATOM      9  H6  UNL     1     120.168  42.236  61.470  1.00  0.00     0.174 HD
HETATM   10  C5  UNL     1     118.715  41.318  62.611  1.00  0.00     0.296 A 
HETATM   11  O3  UNL     1     117.913  42.300  62.463  1.00  0.00    -0.264 OA
ENDROOT
BRANCH   1  12
HETATM   12  N3  UNL     1     117.119  40.158  63.954  1.00  0.00    -0.265 N 
HETATM   13  N2  UNL     1     116.900  40.645  65.085  1.00  0.00    -0.238 N 
ATOM     14  H2  UNL     1     115.944  40.553  65.429  1.00  0.00     0.208 HD
ATOM     15  H3  UNL     1     116.350  39.711  63.455  1.00  0.00     0.190 HD
BRANCH  13  16
HETATM   16  N1  UNL     1     117.778  41.286  65.924  1.00  0.00    -0.256 N 
HETATM   17  C2  UNL     1     117.824  42.685  66.086  1.00  0.00     0.233 C 
HETATM   18  C1  UNL     1     118.837  43.259  67.039  1.00  0.00     0.119 C 
HETATM   19  O1  UNL     1     117.094  43.500  65.506  1.00  0.00    -0.272 OA
ATOM     20  H1  UNL     1     118.433  40.718  66.461  1.00  0.00     0.191 HD
ENDBRANCH  13  16
ENDBRANCH   1  12
TORSDOF 2
ENDMDL
MODEL 3
REMARK VINA RESULT: -7.101142144      2.571      3.423
REMARK  2 active torsions:
REMARK  status: ('A' for Active; 'I' for Inactive)
REMARK       I    between atoms: C2_2  and  N1_4 
REMARK    1  A    between atoms: N1_4  and  N2_6 
REMARK    2  A    between atoms: N3_8  and  C3_10 
ROOT
HETATM    1  C3  UNL     1     118.366  40.625  62.855  1.00  0.00     0.205 A 
HETATM    2  N4  UNL     1     119.032  41.666  62.343  1.00  0.00    -0.276 N 
ATOM      3  H4  UNL     1     118.543  42.551  62.212  1.00  0.00     0.189 HD
HETATM    4  N5  UNL     1     120.307  41.579  62.003  1.00  0.00    -0.250 N 
ATOM      5  H5  UNL     1     120.774  42.398  61.615  1.00  0.00     0.192 HD
HETATM    6  C4  UNL     1     121.003  40.441  62.153  1.00  0.00     0.341 A 
HETATM    7  O2  UNL     1     122.222  40.346  61.832  1.00  0.00    -0.245 OA
HETATM    8  N6  UNL     1     120.375  39.386  62.659  1.00  0.00    -0.271 N 
ATOM      9  H6  UNL     1     120.885  38.511  62.783  1.00  0.00     0.174 HD
HETATM   10  C5  UNL     1     119.064  39.453  63.017  1.00  0.00     0.296 A 
HETATM   11  O3  UNL     1     118.528  38.400  63.498  1.00  0.00    -0.264 OA
ENDROOT
BRANCH   1  12
HETATM   12  N3  UNL     1     117.011  40.650  63.231  1.00  0.00    -0.265 N 
HETATM   13  N2  UNL     1     116.644  40.605  64.425  1.00  0.00    -0.238 N 
ATOM     14  H2  UNL     1     115.636  40.630  64.580  1.00  0.00     0.208 HD
ATOM     15  H3  UNL     1     116.300  40.708  62.501  1.00  0.00     0.190 HD
BRANCH  13  16
HETATM   16  N1  UNL     1     117.421  40.528  65.555  1.00  0.00    -0.256 N 
HETATM   17  C2  UNL     1     117.028  41.036  66.810  1.00  0.00     0.233 C 
HETATM   18  C1  UNL     1     117.976  40.885  67.968  1.00  0.00     0.119 C 
HETATM   19  O1  UNL     1     115.954  41.604  67.051  1.00  0.00    -0.272 OA
ATOM     20  H1  UNL     1     118.333  40.078  65.483  1.00  0.00     0.191 HD
ENDBRANCH  13  16
ENDBRANCH   1  12
TORSDOF 2
ENDMDL
MODEL 4
REMARK VINA RESULT: -6.948285420      1.974      2.369
REMARK  2 active torsions:
REMARK  status: ('A' for Active; 'I' for Inactive)
REMARK       I    between atoms: C2_2  and  N1_4 
REMARK    1  A    between atoms: N1_4  and  N2_6 
REMARK    2  A    between atoms: N3_8  and  C3_10 
ROOT
HETATM    1  C3  UNL     1     119.643  39.756  62.428  1.00  0.00     0.205 A 
HETATM    2  N4  UNL     1     119.210  39.357  63.628  1.00  0.00    -0.276 N 
ATOM      3  H4  UNL     1     119.344  39.970  64.433  1.00  0.00     0.189 HD
HETATM    4  N5  UNL     1     118.613  38.189  63.801  1.00  0.00    -0.250 N 
ATOM      5  H5  UNL     1     118.300  37.925  64.735  1.00  0.00     0.192 HD
HETATM    6  C4  UNL     1     118.408  37.341  62.781  1.00  0.00     0.341 A 
HETATM    7  O2  UNL     1     117.839  36.223  62.933  1.00  0.00    -0.245 OA
HETATM    8  N6  UNL     1     118.824  37.704  61.573  1.00  0.00    -0.271 N 
ATOM      9  H6  UNL     1     118.679  37.076  60.782  1.00  0.00     0.174 HD
HETATM   10  C5  UNL     1     119.441  38.901  61.372  1.00  0.00     0.296 A 
HETATM   11  O3  UNL     1     119.812  39.182  60.184  1.00  0.00    -0.264 OA
ENDROOT
BRANCH   1  12
HETATM   12  N3  UNL     1     120.290  40.980  62.179  1.00  0.00    -0.265 N 
HETATM   13  N2  UNL     1     119.663  42.032  61.927  1.00  0.00    -0.238 N 
ATOM     14  H2  UNL     1     120.234  42.860  61.762  1.00  0.00     0.208 HD
ATOM     15  H3  UNL     1     121.309  41.011  62.204  1.00  0.00     0.190 HD
BRANCH  13  16
HETATM   16  N1  UNL     1     118.304  42.218  61.844  1.00  0.00    -0.256 N 
HETATM   17  C2  UNL     1     117.450  42.252  62.964  1.00  0.00     0.233 C 
HETATM   18  C1  UNL     1     115.978  42.462  62.732  1.00  0.00     0.119 C 
HETATM   19  O1  UNL     1     117.805  42.122  64.143  1.00  0.00    -0.272 OA
ATOM     20  H1  UNL     1     117.890  42.339  60.920  1.00  0.00     0.191 HD
ENDBRANCH  13  16
ENDBRANCH   1  12
TORSDOF 2
ENDMDL
MODEL 5
REMARK VINA RESULT: -6.940483022      1.825      2.287
REMARK  2 active torsions:
REMARK  status: ('A' for Active; 'I' for Inactive)
REMARK       I    between atoms: C2_2  and  N1_4 
REMARK    1  A    between atoms: N1_4  and  N2_6 
REMARK    2  A    between atoms: N3_8  and  C3_10 
ROOT
HETATM    1  C3  UNL     1     119.258  40.197  62.250  1.00  0.00     0.205 A 
HETATM    2  N4  UNL     1     119.182  39.359  61.210  1.00  0.00    -0.276 N 
ATOM      3  H4  UNL     1     119.426  39.699  60.280  1.00  0.00     0.189 HD
HETATM    4  N5  UNL     1     118.797  38.102  61.355  1.00  0.00    -0.250 N 
ATOM      5  H5  UNL     1     118.752  37.499  60.534  1.00  0.00     0.192 HD
HETATM    6  C4  UNL     1     118.463  37.598  62.554  1.00  0.00     0.341 A 
HETATM    7  O2  UNL     1     118.095  36.398  62.705  1.00  0.00    -0.245 OA
HETATM    8  N6  UNL     1     118.528  38.400  63.610  1.00  0.00    -0.271 N 
ATOM      9  H6  UNL     1     118.280  38.039  64.531  1.00  0.00     0.174 HD
HETATM   10  C5  UNL     1     118.922  39.697  63.484  1.00  0.00     0.296 A 
HETATM   11  O3  UNL     1     118.961  40.408  64.543  1.00  0.00    -0.264 OA
ENDROOT
BRANCH   1  12
HETATM   12  N3  UNL     1     119.653  41.544  62.162  1.00  0.00    -0.265 N 
HETATM   13  N2  UNL     1     118.838  42.471  61.962  1.00  0.00    -0.238 N 
ATOM     14  H2  UNL     1     119.236  43.409  61.916  1.00  0.00     0.208 HD
ATOM     15  H3  UNL     1     120.641  41.774  62.264  1.00  0.00     0.190 HD
BRANCH  13  16
HETATM   16  N1  UNL     1     117.476  42.392  61.798  1.00  0.00    -0.256 N 
HETATM   17  C2  UNL     1     116.548  42.650  62.826  1.00  0.00     0.233 C 
HETATM   18  C1  UNL     1     115.082  42.525  62.510  1.00  0.00     0.119 C 
HETATM   19  O1  UNL     1     116.833  42.975  63.986  1.00  0.00    -0.272 OA
ATOM     20  H1  UNL     1     117.117  42.132  60.879  1.00  0.00     0.191 HD
ENDBRANCH  13  16
ENDBRANCH   1  12
TORSDOF 2
ENDMDL
