MODEL 1
REMARK VINA RESULT: -6.097756339      0.000      0.000
REMARK  3 active torsions:
REMARK  status: ('A' for Active; 'I' for Inactive)
REMARK    1  A    between atoms: N1_1  and  C1_4 
REMARK    2  A    between atoms: C2_8  and  S2_9 
REMARK    3  A    between atoms: S2_9  and  N3_10 
ROOT
HETATM    1  C1  UNL     1     117.251  40.789  63.643  1.00  0.00     0.112 A 
HETATM    2  S1  UNL     1     116.850  41.481  62.141  1.00  0.00     0.006 SA
HETATM    3  N2  UNL     1     117.974  40.682  61.179  1.00  0.00    -0.312 N 
ATOM      4  H2  UNL     1     118.112  40.781  60.173  1.00  0.00     0.175 HD
HETATM    5  C2  UNL     1     118.648  39.891  62.017  1.00  0.00     0.182 A 
HETATM    6  C3  UNL     1     118.274  39.937  63.328  1.00  0.00     0.121 A 
HETATM    7  N4  UNL     1     118.927  39.122  64.352  1.00  0.00    -0.096 NA
ENDROOT
BRANCH   5   8
HETATM    8  S2  UNL     1     119.962  38.847  61.386  1.00  0.00     0.274 S 
HETATM    9  O1  UNL     1     119.949  38.828  59.905  1.00  0.00    -0.199 OA
HETATM   10  O2  UNL     1     121.258  39.277  61.950  1.00  0.00    -0.199 OA
BRANCH   8  11
HETATM   11  N3  UNL     1     119.675  37.216  61.954  1.00  0.00    -0.323 N 
ATOM     12  H32 UNL     1     119.042  36.545  61.519  1.00  0.00     0.169 HD
ATOM     13  H31 UNL     1     120.247  37.068  62.785  1.00  0.00     0.169 HD
ENDBRANCH   8  11
ENDBRANCH   5   8
BRANCH   1  14
HETATM   14  N1  UNL     1     116.729  40.993  64.837  1.00  0.00    -0.391 N 
ATOM     15  H12 UNL     1     116.573  41.893  65.292  1.00  0.00     0.157 HD
ATOM     16  H11 UNL     1     116.390  40.323  65.527  1.00  0.00     0.157 HD
ENDBRANCH   1  14
TORSDOF 3
ENDMDL
MODEL 2
REMARK VINA RESULT: -5.809311698      1.080      1.316
REMARK  3 active torsions:
REMARK  status: ('A' for Active; 'I' for Inactive)
REMARK    1  A    between atoms: N1_1  and  C1_4 
REMARK    2  A    between atoms: C2_8  and  S2_9 
REMARK    3  A    between atoms: S2_9  and  N3_10 
ROOT
HETATM    1  C1  UNL     1     117.358  41.250  63.588  1.00  0.00     0.112 A 
HETATM    2  S1  UNL     1     116.890  41.766  62.036  1.00  0.00     0.006 SA
HETATM    3  N2  UNL     1     117.770  40.663  61.121  1.00  0.00    -0.312 N 
ATOM      4  H2  UNL     1     117.804  40.587  60.104  1.00  0.00     0.175 HD
HETATM    5  C2  UNL     1     118.415  39.909  62.012  1.00  0.00     0.182 A 
HETATM    6  C3  UNL     1     118.205  40.208  63.327  1.00  0.00     0.121 A 
HETATM    7  N4  UNL     1     118.848  39.461  64.407  1.00  0.00    -0.096 NA
ENDROOT
BRANCH   5   8
HETATM    8  S2  UNL     1     119.485  38.585  61.446  1.00  0.00     0.274 S 
HETATM    9  O1  UNL     1     118.901  37.264  61.778  1.00  0.00    -0.199 OA
HETATM   10  O2  UNL     1     119.766  38.750  60.006  1.00  0.00    -0.199 OA
BRANCH   8  11
HETATM   11  N3  UNL     1     121.014  38.731  62.286  1.00  0.00    -0.323 N 
ATOM     12  H32 UNL     1     121.125  39.010  63.261  1.00  0.00     0.169 HD
ATOM     13  H31 UNL     1     121.757  38.491  61.629  1.00  0.00     0.169 HD
ENDBRANCH   8  11
ENDBRANCH   5   8
BRANCH   1  14
HETATM   14  N1  UNL     1     117.012  41.711  64.775  1.00  0.00    -0.391 N 
ATOM     15  H12 UNL     1     116.643  41.171  65.558  1.00  0.00     0.157 HD
ATOM     16  H11 UNL     1     117.037  42.662  65.141  1.00  0.00     0.157 HD
ENDBRANCH   1  14
TORSDOF 3
ENDMDL
MODEL 3
REMARK VINA RESULT: -5.206567058      1.280      1.325
REMARK  3 active torsions:
REMARK  status: ('A' for Active; 'I' for Inactive)
REMARK    1  A    between atoms: N1_1  and  C1_4 
REMARK    2  A    between atoms: C2_8  and  S2_9 
REMARK    3  A    between atoms: S2_9  and  N3_10 
ROOT
HETATM    1  C1  UNL     1     117.353  42.123  63.684  1.00  0.00     0.112 A 
HETATM    2  S1  UNL     1     116.970  42.373  62.045  1.00  0.00     0.006 SA
HETATM    3  N2  UNL     1     117.667  40.985  61.402  1.00  0.00    -0.312 N 
ATOM      4  H2  UNL     1     117.688  40.697  60.423  1.00  0.00     0.175 HD
HETATM    5  C2  UNL     1     118.187  40.341  62.448  1.00  0.00     0.182 A 
HETATM    6  C3  UNL     1     118.028  40.933  63.666  1.00  0.00     0.121 A 
HETATM    7  N4  UNL     1     118.547  40.336  64.896  1.00  0.00    -0.096 NA
ENDROOT
BRANCH   5   8
HETATM    8  S2  UNL     1     119.039  38.782  62.197  1.00  0.00     0.274 S 
HETATM    9  O1  UNL     1     118.670  38.191  60.889  1.00  0.00    -0.199 OA
HETATM   10  O2  UNL     1     120.494  38.975  62.358  1.00  0.00    -0.199 OA
BRANCH   8  11
HETATM   11  N3  UNL     1     118.527  37.680  63.456  1.00  0.00    -0.323 N 
ATOM     12  H32 UNL     1     117.579  37.322  63.575  1.00  0.00     0.169 HD
ATOM     13  H31 UNL     1     119.338  37.467  64.036  1.00  0.00     0.169 HD
ENDBRANCH   8  11
ENDBRANCH   5   8
BRANCH   1  14
HETATM   14  N1  UNL     1     117.083  42.865  64.741  1.00  0.00    -0.391 N 
ATOM     15  H12 UNL     1     117.602  43.681  65.065  1.00  0.00     0.157 HD
ATOM     16  H11 UNL     1     116.332  42.781  65.426  1.00  0.00     0.157 HD
ENDBRANCH   1  14
TORSDOF 3
ENDMDL
MODEL 4
REMARK VINA RESULT: -5.186756621      2.314      3.024
REMARK  3 active torsions:
REMARK  status: ('A' for Active; 'I' for Inactive)
REMARK    1  A    between atoms: N1_1  and  C1_4 
REMARK    2  A    between atoms: C2_8  and  S2_9 
REMARK    3  A    between atoms: S2_9  and  N3_10 
ROOT
HETATM    1  C1  UNL     1     119.643  41.211  62.377  1.00  0.00     0.112 A 
HETATM    2  S1  UNL     1     118.306  41.221  63.430  1.00  0.00     0.006 SA
HETATM    3  N2  UNL     1     117.847  39.611  63.280  1.00  0.00    -0.312 N 
ATOM      4  H2  UNL     1     117.068  39.142  63.743  1.00  0.00     0.175 HD
HETATM    5  C2  UNL     1     118.721  39.079  62.424  1.00  0.00     0.182 A 
HETATM    6  C3  UNL     1     119.681  39.917  61.937  1.00  0.00     0.121 A 
HETATM    7  N4  UNL     1     120.702  39.465  60.993  1.00  0.00    -0.096 NA
ENDROOT
BRANCH   5   8
HETATM    8  S2  UNL     1     118.587  37.346  61.981  1.00  0.00     0.274 S 
HETATM    9  O1  UNL     1     117.906  36.584  63.053  1.00  0.00    -0.199 OA
HETATM   10  O2  UNL     1     117.927  37.215  60.666  1.00  0.00    -0.199 OA
BRANCH   8  11
HETATM   11  N3  UNL     1     120.207  36.707  61.805  1.00  0.00    -0.323 N 
ATOM     12  H32 UNL     1     120.865  36.965  61.068  1.00  0.00     0.169 HD
ATOM     13  H31 UNL     1     120.367  36.042  62.561  1.00  0.00     0.169 HD
ENDBRANCH   8  11
ENDBRANCH   5   8
BRANCH   1  14
HETATM   14  N1  UNL     1     120.465  42.187  62.042  1.00  0.00    -0.391 N 
ATOM     15  H12 UNL     1     121.282  42.118  61.435  1.00  0.00     0.157 HD
ATOM     16  H11 UNL     1     120.458  43.171  62.310  1.00  0.00     0.157 HD
ENDBRANCH   1  14
TORSDOF 3
ENDMDL
MODEL 5
REMARK VINA RESULT: -5.003596834      1.536      2.281
REMARK  3 active torsions:
REMARK  status: ('A' for Active; 'I' for Inactive)
REMARK    1  A    between atoms: N1_1  and  C1_4 
REMARK    2  A    between atoms: C2_8  and  S2_9 
REMARK    3  A    between atoms: S2_9  and  N3_10 
ROOT
HETATM    1  C1  UNL     1     117.738  41.188  63.577  1.00  0.00     0.112 A 
HETATM    2  S1  UNL     1     118.595  40.341  64.779  1.00  0.00     0.006 SA
HETATM    3  N2  UNL     1     119.178  39.076  63.837  1.00  0.00    -0.312 N 
ATOM      4  H2  UNL     1     119.762  38.296  64.138  1.00  0.00     0.175 HD
HETATM    5  C2  UNL     1     118.712  39.314  62.609  1.00  0.00     0.182 A 
HETATM    6  C3  UNL     1     117.946  40.432  62.456  1.00  0.00     0.121 A 
HETATM    7  N4  UNL     1     117.373  40.813  61.166  1.00  0.00    -0.096 NA
ENDROOT
BRANCH   5   8
HETATM    8  S2  UNL     1     119.110  38.183  61.275  1.00  0.00     0.274 S 
HETATM    9  O1  UNL     1     117.901  37.446  60.838  1.00  0.00    -0.199 OA
HETATM   10  O2  UNL     1     119.771  38.917  60.177  1.00  0.00    -0.199 OA
BRANCH   8  11
HETATM   11  N3  UNL     1     120.267  37.019  61.881  1.00  0.00    -0.323 N 
ATOM     12  H32 UNL     1     120.177  36.499  62.755  1.00  0.00     0.169 HD
ATOM     13  H31 UNL     1     121.034  36.960  61.212  1.00  0.00     0.169 HD
ENDBRANCH   8  11
ENDBRANCH   5   8
BRANCH   1  14
HETATM   14  N1  UNL     1     117.036  42.302  63.662  1.00  0.00    -0.391 N 
ATOM     15  H12 UNL     1     116.291  42.607  63.036  1.00  0.00     0.157 HD
ATOM     16  H11 UNL     1     117.092  43.061  64.342  1.00  0.00     0.157 HD
ENDBRANCH   1  14
TORSDOF 3
ENDMDL
