MODEL 1
REMARK VINA RESULT: -7.512634071      0.000      0.000
REMARK  1 active torsions:
REMARK  status: ('A' for Active; 'I' for Inactive)
REMARK       I    between atoms: C2_2  and  N1_4 
REMARK    1  A    between atoms: N1_4  and  N2_6 
ROOT
HETATM    1  N2  UNL     1     118.277  39.967  65.178  1.00  0.00    -0.277 N 
ATOM      2  H2  UNL     1     117.654  39.334  65.681  1.00  0.00     0.189 HD
HETATM    3  C3  UNL     1     118.738  39.539  64.084  1.00  0.00     0.206 C 
HETATM    4  N3  UNL     1     118.332  38.234  63.696  1.00  0.00    -0.260 N 
ATOM      5  H3  UNL     1     117.538  37.879  64.228  1.00  0.00     0.190 HD
HETATM    6  N4  UNL     1     118.798  37.350  62.741  1.00  0.00    -0.197 N 
ATOM      7  H4  UNL     1     118.860  36.348  62.919  1.00  0.00     0.216 HD
HETATM    8  O2  UNL     1     119.169  37.892  61.556  1.00  0.00    -0.186 OA
HETATM    9  C4  UNL     1     119.905  39.002  61.175  1.00  0.00     0.245 C 
HETATM   10  N5  UNL     1     120.387  39.044  59.976  1.00  0.00    -0.364 N 
ATOM     11  H51 UNL     1     120.929  39.862  59.696  1.00  0.00     0.159 HD
ATOM     12  H52 UNL     1     120.182  38.235  59.390  1.00  0.00     0.159 HD
HETATM   13  N6  UNL     1     120.192  40.133  61.995  1.00  0.00    -0.285 N 
ATOM     14  H6  UNL     1     120.847  40.822  61.624  1.00  0.00     0.172 HD
HETATM   15  C5  UNL     1     119.636  40.391  63.311  1.00  0.00     0.295 C 
HETATM   16  O3  UNL     1     119.940  41.458  63.876  1.00  0.00    -0.264 OA
ENDROOT
BRANCH   1  17
HETATM   17  N1  UNL     1     118.512  41.182  65.772  1.00  0.00    -0.269 N 
HETATM   18  C2  UNL     1     118.242  41.493  67.132  1.00  0.00     0.232 C 
HETATM   19  C1  UNL     1     118.496  42.788  67.753  1.00  0.00     0.119 C 
HETATM   20  O1  UNL     1     117.744  40.556  67.829  1.00  0.00    -0.272 OA
ATOM     21  H1  UNL     1     118.911  41.919  65.192  1.00  0.00     0.190 HD
ENDBRANCH   1  17
TORSDOF 1
ENDMDL
MODEL 2
REMARK VINA RESULT: -7.076828263      2.111      5.335
REMARK  1 active torsions:
REMARK  status: ('A' for Active; 'I' for Inactive)
REMARK       I    between atoms: C2_2  and  N1_4 
REMARK    1  A    between atoms: N1_4  and  N2_6 
ROOT
HETATM    1  N2  UNL     1     118.848  39.153  64.318  1.00  0.00    -0.277 N 
ATOM      2  H2  UNL     1     119.068  38.470  65.043  1.00  0.00     0.189 HD
HETATM    3  C3  UNL     1     118.241  40.191  64.701  1.00  0.00     0.206 C 
HETATM    4  N3  UNL     1     117.944  40.273  66.088  1.00  0.00    -0.260 N 
ATOM      5  H3  UNL     1     118.452  39.595  66.654  1.00  0.00     0.190 HD
HETATM    6  N4  UNL     1     117.105  41.090  66.822  1.00  0.00    -0.197 N 
ATOM      7  H4  UNL     1     116.550  40.733  67.599  1.00  0.00     0.216 HD
HETATM    8  O2  UNL     1     117.061  42.392  66.448  1.00  0.00    -0.186 OA
HETATM    9  C4  UNL     1     116.979  43.060  65.238  1.00  0.00     0.245 C 
HETATM   10  N5  UNL     1     116.590  44.293  65.236  1.00  0.00    -0.364 N 
ATOM     11  H51 UNL     1     116.530  44.786  64.345  1.00  0.00     0.159 HD
ATOM     12  H52 UNL     1     116.368  44.687  66.151  1.00  0.00     0.159 HD
HETATM   13  N6  UNL     1     117.290  42.510  63.959  1.00  0.00    -0.285 N 
ATOM     14  H6  UNL     1     117.069  43.079  63.142  1.00  0.00     0.172 HD
HETATM   15  C5  UNL     1     117.893  41.212  63.717  1.00  0.00     0.295 C 
HETATM   16  O3  UNL     1     118.158  40.900  62.542  1.00  0.00    -0.264 OA
ENDROOT
BRANCH   1  17
HETATM   17  N1  UNL     1     119.247  38.832  63.045  1.00  0.00    -0.269 N 
HETATM   18  C2  UNL     1     118.861  37.662  62.336  1.00  0.00     0.232 C 
HETATM   19  C1  UNL     1     119.292  37.332  60.983  1.00  0.00     0.119 C 
HETATM   20  O1  UNL     1     118.087  36.868  62.953  1.00  0.00    -0.272 OA
ATOM     21  H1  UNL     1     119.870  39.485  62.569  1.00  0.00     0.190 HD
ENDBRANCH   1  17
TORSDOF 1
ENDMDL
MODEL 3
REMARK VINA RESULT: -6.984790167      6.444      7.164
REMARK  1 active torsions:
REMARK  status: ('A' for Active; 'I' for Inactive)
REMARK       I    between atoms: C2_2  and  N1_4 
REMARK    1  A    between atoms: N1_4  and  N2_6 
ROOT
HETATM    1  N2  UNL     1     116.619  42.499  60.515  1.00  0.00    -0.277 N 
ATOM      2  H2  UNL     1     117.238  41.802  60.099  1.00  0.00     0.189 HD
HETATM    3  C3  UNL     1     116.233  43.425  59.750  1.00  0.00     0.206 C 
HETATM    4  N3  UNL     1     116.709  43.379  58.413  1.00  0.00    -0.260 N 
ATOM      5  H3  UNL     1     117.125  42.483  58.159  1.00  0.00     0.190 HD
HETATM    6  N4  UNL     1     116.722  44.306  57.388  1.00  0.00    -0.197 N 
ATOM      7  H4  UNL     1     117.520  44.406  56.761  1.00  0.00     0.216 HD
HETATM    8  O2  UNL     1     115.612  45.074  57.264  1.00  0.00    -0.186 OA
HETATM    9  C4  UNL     1     114.796  45.763  58.144  1.00  0.00     0.245 C 
HETATM   10  N5  UNL     1     114.031  46.697  57.680  1.00  0.00    -0.364 N 
ATOM     11  H51 UNL     1     113.430  47.205  58.328  1.00  0.00     0.159 HD
ATOM     12  H52 UNL     1     114.092  46.856  56.674  1.00  0.00     0.159 HD
HETATM   13  N6  UNL     1     114.712  45.541  59.551  1.00  0.00    -0.285 N 
ATOM     14  H6  UNL     1     114.158  46.204  60.094  1.00  0.00     0.172 HD
HETATM   15  C5  UNL     1     115.345  44.456  60.278  1.00  0.00     0.295 C 
HETATM   16  O3  UNL     1     115.125  44.364  61.500  1.00  0.00    -0.264 OA
ENDROOT
BRANCH   1  17
HETATM   17  N1  UNL     1     116.306  42.314  61.839  1.00  0.00    -0.269 N 
HETATM   18  C2  UNL     1     116.918  41.364  62.700  1.00  0.00     0.232 C 
HETATM   19  C1  UNL     1     116.577  41.177  64.105  1.00  0.00     0.119 C 
HETATM   20  O1  UNL     1     117.821  40.641  62.178  1.00  0.00    -0.272 OA
ATOM     21  H1  UNL     1     115.577  42.907  62.236  1.00  0.00     0.190 HD
ENDBRANCH   1  17
TORSDOF 1
ENDMDL
MODEL 4
REMARK VINA RESULT: -6.756123414      3.759      6.396
REMARK  1 active torsions:
REMARK  status: ('A' for Active; 'I' for Inactive)
REMARK       I    between atoms: C2_2  and  N1_4 
REMARK    1  A    between atoms: N1_4  and  N2_6 
ROOT
HETATM    1  N2  UNL     1     117.021  40.542  66.178  1.00  0.00    -0.277 N 
ATOM      2  H2  UNL     1     117.273  39.574  65.976  1.00  0.00     0.189 HD
HETATM    3  C3  UNL     1     117.519  41.039  67.225  1.00  0.00     0.206 C 
HETATM    4  N3  UNL     1     118.365  40.188  67.986  1.00  0.00    -0.260 N 
ATOM      5  H3  UNL     1     118.656  39.348  67.486  1.00  0.00     0.190 HD
HETATM    6  N4  UNL     1     118.871  40.271  69.269  1.00  0.00    -0.197 N 
ATOM      7  H4  UNL     1     118.938  39.453  69.876  1.00  0.00     0.216 HD
HETATM    8  O2  UNL     1     119.273  41.499  69.675  1.00  0.00    -0.186 OA
HETATM    9  C4  UNL     1     118.751  42.778  69.585  1.00  0.00     0.245 C 
HETATM   10  N5  UNL     1     119.197  43.688  70.388  1.00  0.00    -0.364 N 
ATOM     11  H51 UNL     1     118.812  44.631  70.322  1.00  0.00     0.159 HD
ATOM     12  H52 UNL     1     119.918  43.383  71.042  1.00  0.00     0.159 HD
HETATM   13  N6  UNL     1     117.742  43.205  68.671  1.00  0.00    -0.285 N 
ATOM     14  H6  UNL     1     117.367  44.145  68.798  1.00  0.00     0.172 HD
HETATM   15  C5  UNL     1     117.202  42.419  67.576  1.00  0.00     0.295 C 
HETATM   16  O3  UNL     1     116.367  42.957  66.827  1.00  0.00    -0.264 OA
ENDROOT
BRANCH   1  17
HETATM   17  N1  UNL     1     116.181  41.147  65.277  1.00  0.00    -0.269 N 
HETATM   18  C2  UNL     1     116.291  41.053  63.863  1.00  0.00     0.232 C 
HETATM   19  C1  UNL     1     115.392  41.701  62.916  1.00  0.00     0.119 C 
HETATM   20  O1  UNL     1     117.251  40.348  63.426  1.00  0.00    -0.272 OA
ATOM     21  H1  UNL     1     115.416  41.710  65.652  1.00  0.00     0.190 HD
ENDBRANCH   1  17
TORSDOF 1
ENDMDL
MODEL 5
REMARK VINA RESULT: -6.682644502      2.164      2.434
REMARK  1 active torsions:
REMARK  status: ('A' for Active; 'I' for Inactive)
REMARK       I    between atoms: C2_2  and  N1_4 
REMARK    1  A    between atoms: N1_4  and  N2_6 
ROOT
HETATM    1  N2  UNL     1     118.095  40.397  66.495  1.00  0.00    -0.277 N 
ATOM      2  H2  UNL     1     118.573  39.616  66.946  1.00  0.00     0.189 HD
HETATM    3  C3  UNL     1     118.140  40.421  65.234  1.00  0.00     0.206 C 
HETATM    4  N3  UNL     1     118.848  39.361  64.608  1.00  0.00    -0.260 N 
ATOM      5  H3  UNL     1     119.047  38.579  65.231  1.00  0.00     0.190 HD
HETATM    6  N4  UNL     1     119.322  39.179  63.322  1.00  0.00    -0.197 N 
ATOM      7  H4  UNL     1     120.228  38.748  63.137  1.00  0.00     0.216 HD
HETATM    8  O2  UNL     1     118.513  39.605  62.322  1.00  0.00    -0.186 OA
HETATM    9  C4  UNL     1     117.753  40.739  62.095  1.00  0.00     0.245 C 
HETATM   10  N5  UNL     1     117.383  41.005  60.884  1.00  0.00    -0.364 N 
ATOM     11  H51 UNL     1     116.823  41.841  60.717  1.00  0.00     0.159 HD
ATOM     12  H52 UNL     1     117.688  40.339  60.174  1.00  0.00     0.159 HD
HETATM   13  N6  UNL     1     117.326  41.670  63.088  1.00  0.00    -0.285 N 
ATOM     14  H6  UNL     1     116.875  42.524  62.761  1.00  0.00     0.172 HD
HETATM   15  C5  UNL     1     117.478  41.510  64.522  1.00  0.00     0.295 C 
HETATM   16  O3  UNL     1     116.997  42.386  65.263  1.00  0.00    -0.264 OA
ENDROOT
BRANCH   1  17
HETATM   17  N1  UNL     1     117.481  41.294  67.333  1.00  0.00    -0.269 N 
HETATM   18  C2  UNL     1     117.545  41.265  68.753  1.00  0.00     0.232 C 
HETATM   19  C1  UNL     1     116.887  42.224  69.632  1.00  0.00     0.119 C 
HETATM   20  O1  UNL     1     118.229  40.324  69.259  1.00  0.00    -0.272 OA
ATOM     21  H1  UNL     1     116.936  42.041  66.903  1.00  0.00     0.190 HD
ENDBRANCH   1  17
TORSDOF 1
ENDMDL
