MODEL 1
REMARK VINA RESULT: -8.105752880      0.000      0.000
REMARK  5 active torsions:
REMARK  status: ('A' for Active; 'I' for Inactive)
REMARK    1  A    between atoms: C4_4  and  C5_5 
REMARK       I    between atoms: C5_5  and  N1_7 
REMARK    2  A    between atoms: N1_7  and  N2_9 
REMARK    3  A    between atoms: C6_11  and  C7_12 
REMARK    4  A    between atoms: C9_19  and  C10_20 
REMARK       I    between atoms: C10_20  and  N5_22 
REMARK    5  A    between atoms: N5_22  and  N6_24 
ROOT
HETATM    1  C7  UNL     1      61.936 -65.966   1.006  1.00  0.00     0.086 A 
HETATM    2  N3  UNL     1      62.550 -65.038   0.239  1.00  0.00    -0.305 N 
ATOM      3  H3  UNL     1      63.501 -64.704   0.395  1.00  0.00     0.171 HD
HETATM    4  C8  UNL     1      61.765 -64.616  -0.745  1.00  0.00     0.325 A 
HETATM    5  O2  UNL     1      62.017 -63.768  -1.630  1.00  0.00    -0.247 OA
HETATM    6  N4  UNL     1      60.629 -65.278  -0.611  1.00  0.00    -0.302 N 
ATOM      7  H4  UNL     1      59.820 -65.170  -1.224  1.00  0.00     0.171 HD
HETATM    8  C9  UNL     1      60.686 -66.137   0.473  1.00  0.00     0.134 A 
ENDROOT
BRANCH   1   9
HETATM    9  C6  UNL     1      62.543 -66.600   2.141  1.00  0.00     0.139 C 
HETATM   10  N2  UNL     1      62.682 -67.858   2.362  1.00  0.00    -0.307 N 
ATOM     11  H2  UNL     1      62.335 -68.527   1.676  1.00  0.00     0.186 HD
BRANCH  10  12
HETATM   12  N1  UNL     1      63.296 -68.322   3.515  1.00  0.00    -0.266 N 
HETATM   13  C5  UNL     1      62.516 -68.846   4.562  1.00  0.00     0.270 C 
HETATM   14  O1  UNL     1      61.256 -68.877   4.411  1.00  0.00    -0.266 OA
ATOM     15  H1  UNL     1      64.310 -68.283   3.604  1.00  0.00     0.190 HD
BRANCH  13  16
HETATM   16  C4  UNL     1      63.132 -69.358   5.823  1.00  0.00     0.041 A 
HETATM   17  C3  UNL     1      62.466 -70.091   6.725  1.00  0.00     0.031 A 
HETATM   18  C2  UNL     1      63.143 -70.497   7.836  1.00  0.00    -0.021 A 
HETATM   19  C1  UNL     1      62.616 -71.323   8.983  1.00  0.00     0.056 C 
HETATM   20  S1  UNL     1      64.697 -69.846   7.597  1.00  0.00    -0.106 SA
HETATM   21  C11 UNL     1      64.447 -69.078   6.096  1.00  0.00     0.067 A 
ENDBRANCH  13  16
ENDBRANCH  10  12
ENDBRANCH   1   9
BRANCH   8  22
HETATM   22  C10 UNL     1      59.583 -66.998   0.869  1.00  0.00     0.288 C 
HETATM   23  O3  UNL     1      58.647 -66.657   1.602  1.00  0.00    -0.264 OA
HETATM   24  N5  UNL     1      59.554 -68.334   0.392  1.00  0.00    -0.271 N 
ATOM     25  H5  UNL     1      60.294 -68.682  -0.217  1.00  0.00     0.189 HD
BRANCH  24  26
HETATM   26  N6  UNL     1      58.504 -69.163   0.766  1.00  0.00    -0.342 N 
ATOM     27  H62 UNL     1      57.894 -68.884   1.533  1.00  0.00     0.176 HD
ATOM     28  H61 UNL     1      58.361 -70.040   0.265  1.00  0.00     0.176 HD
ENDBRANCH  24  26
ENDBRANCH   8  22
TORSDOF 5
ENDMDL
MODEL 2
REMARK VINA RESULT: -8.078904050      1.977      2.284
REMARK  5 active torsions:
REMARK  status: ('A' for Active; 'I' for Inactive)
REMARK    1  A    between atoms: C4_4  and  C5_5 
REMARK       I    between atoms: C5_5  and  N1_7 
REMARK    2  A    between atoms: N1_7  and  N2_9 
REMARK    3  A    between atoms: C6_11  and  C7_12 
REMARK    4  A    between atoms: C9_19  and  C10_20 
REMARK       I    between atoms: C10_20  and  N5_22 
REMARK    5  A    between atoms: N5_22  and  N6_24 
ROOT
HETATM    1  C7  UNL     1      61.432 -68.195   1.144  1.00  0.00     0.086 A 
HETATM    2  N3  UNL     1      62.115 -67.589   0.148  1.00  0.00    -0.305 N 
ATOM      3  H3  UNL     1      63.132 -67.546   0.095  1.00  0.00     0.171 HD
HETATM    4  C8  UNL     1      61.300 -67.056  -0.754  1.00  0.00     0.325 A 
HETATM    5  O2  UNL     1      61.597 -66.428  -1.794  1.00  0.00    -0.247 OA
HETATM    6  N4  UNL     1      60.074 -67.320  -0.335  1.00  0.00    -0.302 N 
ATOM      7  H4  UNL     1      59.222 -67.037  -0.821  1.00  0.00     0.171 HD
HETATM    8  C9  UNL     1      60.104 -68.032   0.852  1.00  0.00     0.134 A 
ENDROOT
BRANCH   1   9
HETATM    9  C6  UNL     1      62.051 -68.856   2.257  1.00  0.00     0.139 C 
HETATM   10  N2  UNL     1      62.896 -68.370   3.094  1.00  0.00    -0.307 N 
ATOM     11  H2  UNL     1      63.194 -67.400   2.997  1.00  0.00     0.186 HD
BRANCH  10  12
HETATM   12  N1  UNL     1      63.410 -69.139   4.126  1.00  0.00    -0.266 N 
HETATM   13  C5  UNL     1      63.011 -68.891   5.452  1.00  0.00     0.270 C 
HETATM   14  O1  UNL     1      62.179 -67.955   5.661  1.00  0.00    -0.266 OA
ATOM     15  H1  UNL     1      64.076 -69.884   3.924  1.00  0.00     0.190 HD
BRANCH  13  16
HETATM   16  C4  UNL     1      63.538 -69.693   6.597  1.00  0.00     0.041 A 
HETATM   17  C3  UNL     1      64.845 -69.847   6.850  1.00  0.00     0.031 A 
HETATM   18  C2  UNL     1      65.196 -70.604   7.927  1.00  0.00    -0.021 A 
HETATM   19  C1  UNL     1      66.588 -70.921   8.413  1.00  0.00     0.056 C 
HETATM   20  S1  UNL     1      63.694 -71.086   8.564  1.00  0.00    -0.106 SA
HETATM   21  C11 UNL     1      62.661 -70.315   7.448  1.00  0.00     0.067 A 
ENDBRANCH  13  16
ENDBRANCH  10  12
ENDBRANCH   1   9
BRANCH   8  22
HETATM   22  C10 UNL     1      58.906 -68.465   1.553  1.00  0.00     0.288 C 
HETATM   23  O3  UNL     1      58.108 -69.314   1.136  1.00  0.00    -0.264 OA
HETATM   24  N5  UNL     1      58.605 -67.887   2.814  1.00  0.00    -0.271 N 
ATOM     25  H5  UNL     1      59.220 -67.181   3.218  1.00  0.00     0.189 HD
BRANCH  24  26
HETATM   26  N6  UNL     1      57.462 -68.294   3.490  1.00  0.00    -0.342 N 
ATOM     27  H62 UNL     1      57.287 -69.290   3.623  1.00  0.00     0.176 HD
ATOM     28  H61 UNL     1      56.815 -67.589   3.843  1.00  0.00     0.176 HD
ENDBRANCH  24  26
ENDBRANCH   8  22
TORSDOF 5
ENDMDL
MODEL 3
REMARK VINA RESULT: -8.032015234      4.917      6.690
REMARK  5 active torsions:
REMARK  status: ('A' for Active; 'I' for Inactive)
REMARK    1  A    between atoms: C4_4  and  C5_5 
REMARK       I    between atoms: C5_5  and  N1_7 
REMARK    2  A    between atoms: N1_7  and  N2_9 
REMARK    3  A    between atoms: C6_11  and  C7_12 
REMARK    4  A    between atoms: C9_19  and  C10_20 
REMARK       I    between atoms: C10_20  and  N5_22 
REMARK    5  A    between atoms: N5_22  and  N6_24 
ROOT
HETATM    1  C7  UNL     1      62.421 -68.014   4.653  1.00  0.00     0.086 A 
HETATM    2  N3  UNL     1      61.984 -67.873   3.382  1.00  0.00    -0.305 N 
ATOM      3  H3  UNL     1      61.456 -67.068   3.044  1.00  0.00     0.171 HD
HETATM    4  C8  UNL     1      62.325 -68.911   2.627  1.00  0.00     0.325 A 
HETATM    5  O2  UNL     1      62.082 -69.102   1.415  1.00  0.00    -0.247 OA
HETATM    6  N4  UNL     1      62.990 -69.732   3.421  1.00  0.00    -0.302 N 
ATOM      7  H4  UNL     1      63.386 -70.626   3.128  1.00  0.00     0.171 HD
HETATM    8  C9  UNL     1      63.077 -69.215   4.702  1.00  0.00     0.134 A 
ENDROOT
BRANCH   1   9
HETATM    9  C6  UNL     1      62.199 -67.048   5.690  1.00  0.00     0.139 C 
HETATM   10  N2  UNL     1      62.345 -67.203   6.958  1.00  0.00    -0.307 N 
ATOM     11  H2  UNL     1      62.656 -68.105   7.319  1.00  0.00     0.186 HD
BRANCH  10  12
HETATM   12  N1  UNL     1      62.090 -66.168   7.843  1.00  0.00    -0.266 N 
HETATM   13  C5  UNL     1      63.145 -65.597   8.578  1.00  0.00     0.270 C 
HETATM   14  O1  UNL     1      64.314 -66.057   8.401  1.00  0.00    -0.266 OA
ATOM     15  H1  UNL     1      61.139 -65.821   7.962  1.00  0.00     0.190 HD
BRANCH  13  16
HETATM   16  C4  UNL     1      62.918 -64.480   9.545  1.00  0.00     0.041 A 
HETATM   17  C3  UNL     1      62.203 -63.385   9.252  1.00  0.00     0.031 A 
HETATM   18  C2  UNL     1      62.070 -62.438  10.223  1.00  0.00    -0.021 A 
HETATM   19  C1  UNL     1      61.321 -61.132  10.135  1.00  0.00     0.056 C 
HETATM   20  S1  UNL     1      62.946 -63.096  11.524  1.00  0.00    -0.106 SA
HETATM   21  C11 UNL     1      63.457 -64.554  10.803  1.00  0.00     0.067 A 
ENDBRANCH  13  16
ENDBRANCH  10  12
ENDBRANCH   1   9
BRANCH   8  22
HETATM   22  C10 UNL     1      63.752 -69.896   5.794  1.00  0.00     0.288 C 
HETATM   23  O3  UNL     1      63.191 -70.363   6.793  1.00  0.00    -0.264 OA
HETATM   24  N5  UNL     1      65.162 -70.052   5.735  1.00  0.00    -0.271 N 
ATOM     25  H5  UNL     1      65.689 -69.692   4.939  1.00  0.00     0.189 HD
BRANCH  24  26
HETATM   26  N6  UNL     1      65.816 -70.702   6.775  1.00  0.00    -0.342 N 
ATOM     27  H62 UNL     1      65.832 -70.274   7.700  1.00  0.00     0.176 HD
ATOM     28  H61 UNL     1      66.269 -71.597   6.595  1.00  0.00     0.176 HD
ENDBRANCH  24  26
ENDBRANCH   8  22
TORSDOF 5
ENDMDL
MODEL 4
REMARK VINA RESULT: -8.014522582      5.491      7.639
REMARK  5 active torsions:
REMARK  status: ('A' for Active; 'I' for Inactive)
REMARK    1  A    between atoms: C4_4  and  C5_5 
REMARK       I    between atoms: C5_5  and  N1_7 
REMARK    2  A    between atoms: N1_7  and  N2_9 
REMARK    3  A    between atoms: C6_11  and  C7_12 
REMARK    4  A    between atoms: C9_19  and  C10_20 
REMARK       I    between atoms: C10_20  and  N5_22 
REMARK    5  A    between atoms: N5_22  and  N6_24 
ROOT
HETATM    1  C7  UNL     1      64.086 -68.732   6.988  1.00  0.00     0.086 A 
HETATM    2  N3  UNL     1      65.243 -69.204   7.503  1.00  0.00    -0.305 N 
ATOM      3  H3  UNL     1      65.656 -68.878   8.377  1.00  0.00     0.171 HD
HETATM    4  C8  UNL     1      65.776 -70.145   6.733  1.00  0.00     0.325 A 
HETATM    5  O2  UNL     1      66.834 -70.787   6.912  1.00  0.00    -0.247 OA
HETATM    6  N4  UNL     1      64.954 -70.282   5.707  1.00  0.00    -0.302 N 
ATOM      7  H4  UNL     1      65.093 -70.936   4.937  1.00  0.00     0.171 HD
HETATM    8  C9  UNL     1      63.879 -69.417   5.821  1.00  0.00     0.134 A 
ENDROOT
BRANCH   1   9
HETATM    9  C6  UNL     1      63.290 -67.709   7.605  1.00  0.00     0.139 C 
HETATM   10  N2  UNL     1      63.692 -66.720   8.320  1.00  0.00    -0.307 N 
ATOM     11  H2  UNL     1      64.689 -66.606   8.501  1.00  0.00     0.186 HD
BRANCH  10  12
HETATM   12  N1  UNL     1      62.795 -65.807   8.852  1.00  0.00    -0.266 N 
HETATM   13  C5  UNL     1      62.601 -64.565   8.221  1.00  0.00     0.270 C 
HETATM   14  O1  UNL     1      63.265 -64.320   7.166  1.00  0.00    -0.266 OA
ATOM     15  H1  UNL     1      62.277 -66.035   9.700  1.00  0.00     0.190 HD
BRANCH  13  16
HETATM   16  C4  UNL     1      61.646 -63.549   8.757  1.00  0.00     0.041 A 
HETATM   17  C3  UNL     1      61.947 -62.710   9.757  1.00  0.00     0.031 A 
HETATM   18  C2  UNL     1      60.986 -61.829  10.154  1.00  0.00    -0.021 A 
HETATM   19  C1  UNL     1      61.084 -60.794  11.248  1.00  0.00     0.056 C 
HETATM   20  S1  UNL     1      59.684 -62.189   9.121  1.00  0.00    -0.106 SA
HETATM   21  C11 UNL     1      60.391 -63.447   8.214  1.00  0.00     0.067 A 
ENDBRANCH  13  16
ENDBRANCH  10  12
ENDBRANCH   1   9
BRANCH   8  22
HETATM   22  C10 UNL     1      62.808 -69.341   4.840  1.00  0.00     0.288 C 
HETATM   23  O3  UNL     1      61.601 -69.369   5.105  1.00  0.00    -0.264 OA
HETATM   24  N5  UNL     1      63.147 -69.225   3.466  1.00  0.00    -0.271 N 
ATOM     25  H5  UNL     1      64.125 -69.195   3.176  1.00  0.00     0.189 HD
BRANCH  24  26
HETATM   26  N6  UNL     1      62.131 -69.152   2.522  1.00  0.00    -0.342 N 
ATOM     27  H62 UNL     1      61.218 -68.788   2.795  1.00  0.00     0.176 HD
ATOM     28  H61 UNL     1      62.315 -69.465   1.569  1.00  0.00     0.176 HD
ENDBRANCH  24  26
ENDBRANCH   8  22
TORSDOF 5
ENDMDL
MODEL 5
REMARK VINA RESULT: -8.007711302      5.985      8.117
REMARK  5 active torsions:
REMARK  status: ('A' for Active; 'I' for Inactive)
REMARK    1  A    between atoms: C4_4  and  C5_5 
REMARK       I    between atoms: C5_5  and  N1_7 
REMARK    2  A    between atoms: N1_7  and  N2_9 
REMARK    3  A    between atoms: C6_11  and  C7_12 
REMARK    4  A    between atoms: C9_19  and  C10_20 
REMARK       I    between atoms: C10_20  and  N5_22 
REMARK    5  A    between atoms: N5_22  and  N6_24 
ROOT
HETATM    1  C7  UNL     1      63.746 -68.529   7.259  1.00  0.00     0.086 A 
HETATM    2  N3  UNL     1      64.668 -69.072   8.084  1.00  0.00    -0.305 N 
ATOM      3  H3  UNL     1      64.992 -68.636   8.947  1.00  0.00     0.171 HD
HETATM    4  C8  UNL     1      65.101 -70.244   7.634  1.00  0.00     0.325 A 
HETATM    5  O2  UNL     1      65.948 -71.008   8.148  1.00  0.00    -0.247 OA
HETATM    6  N4  UNL     1      64.451 -70.460   6.504  1.00  0.00    -0.302 N 
ATOM      7  H4  UNL     1      64.569 -71.287   5.917  1.00  0.00     0.171 HD
HETATM    8  C9  UNL     1      63.589 -69.413   6.225  1.00  0.00     0.134 A 
ENDROOT
BRANCH   1   9
HETATM    9  C6  UNL     1      63.104 -67.268   7.491  1.00  0.00     0.139 C 
HETATM   10  N2  UNL     1      63.431 -66.359   8.339  1.00  0.00    -0.307 N 
ATOM     11  H2  UNL     1      64.240 -66.507   8.943  1.00  0.00     0.186 HD
BRANCH  10  12
HETATM   12  N1  UNL     1      62.708 -65.182   8.447  1.00  0.00    -0.266 N 
HETATM   13  C5  UNL     1      62.783 -64.419   9.626  1.00  0.00     0.270 C 
HETATM   14  O1  UNL     1      63.524 -64.841  10.566  1.00  0.00    -0.266 OA
ATOM     15  H1  UNL     1      62.121 -64.870   7.674  1.00  0.00     0.190 HD
BRANCH  13  16
HETATM   16  C4  UNL     1      62.020 -63.144   9.790  1.00  0.00     0.041 A 
HETATM   17  C3  UNL     1      62.087 -62.380  10.888  1.00  0.00     0.031 A 
HETATM   18  C2  UNL     1      61.342 -61.240  10.913  1.00  0.00    -0.021 A 
HETATM   19  C1  UNL     1      61.250 -60.225  12.026  1.00  0.00     0.056 C 
HETATM   20  S1  UNL     1      60.563 -61.258   9.401  1.00  0.00    -0.106 SA
HETATM   21  C11 UNL     1      61.203 -62.710   8.778  1.00  0.00     0.067 A 
ENDBRANCH  13  16
ENDBRANCH  10  12
ENDBRANCH   1   9
BRANCH   8  22
HETATM   22  C10 UNL     1      62.740 -69.371   5.045  1.00  0.00     0.288 C 
HETATM   23  O3  UNL     1      61.510 -69.242   5.062  1.00  0.00    -0.264 OA
HETATM   24  N5  UNL     1      63.342 -69.484   3.765  1.00  0.00    -0.271 N 
ATOM     25  H5  UNL     1      64.352 -69.593   3.677  1.00  0.00     0.189 HD
BRANCH  24  26
HETATM   26  N6  UNL     1      62.538 -69.446   2.633  1.00  0.00    -0.342 N 
ATOM     27  H62 UNL     1      61.544 -69.241   2.731  1.00  0.00     0.176 HD
ATOM     28  H61 UNL     1      62.956 -69.623   1.720  1.00  0.00     0.176 HD
ENDBRANCH  24  26
ENDBRANCH   8  22
TORSDOF 5
ENDMDL
