MODEL 1
REMARK VINA RESULT: -6.790923646      0.000      0.000
REMARK  8 active torsions:
REMARK  status: ('A' for Active; 'I' for Inactive)
REMARK    1  A    between atoms: C3_5  and  N2_6 
REMARK    2  A    between atoms: N2_6  and  O1_8 
REMARK    3  A    between atoms: C5_14  and  N4_15 
REMARK    4  A    between atoms: N4_15  and  N5_16 
REMARK       I    between atoms: N4_15  and  C10_22 
REMARK    5  A    between atoms: N5_16  and  C6_18 
REMARK    6  A    between atoms: C10_22  and  O4_24 
REMARK    7  A    between atoms: O4_24  and  C11_25 
REMARK    8  A    between atoms: C11_25  and  C12_26 
ROOT
HETATM    1  C1  UNL     1      59.222 -67.628   3.650  1.00  0.00     0.071 C 
HETATM    2  C2  UNL     1      60.665 -67.905   3.440  1.00  0.00     0.057 A 
HETATM    3  N1  UNL     1      60.965 -69.003   2.696  1.00  0.00    -0.192 N 
ATOM      4  H1  UNL     1      60.216 -69.584   2.322  1.00  0.00     0.184 HD
HETATM    5  C3  UNL     1      62.262 -69.325   2.452  1.00  0.00     0.705 A 
HETATM    6  N3  UNL     1      63.266 -68.581   2.929  1.00  0.00    -0.152 N 
ATOM      7  H3  UNL     1      64.237 -68.829   2.741  1.00  0.00     0.187 HD
HETATM    8  C4  UNL     1      62.962 -67.508   3.656  1.00  0.00     0.290 A 
HETATM    9  O2  UNL     1      63.958 -66.832   4.087  1.00  0.00    -0.265 OA
HETATM   10  C5  UNL     1      61.673 -67.145   3.927  1.00  0.00     0.152 A 
ENDROOT
BRANCH  10  11
HETATM   11  N4  UNL     1      61.447 -65.977   4.682  1.00  0.00    -0.196 N 
HETATM   12  C10 UNL     1      61.334 -64.808   3.809  1.00  0.00     0.387 C 
HETATM   13  O3  UNL     1      61.463 -64.863   2.574  1.00  0.00    -0.236 OA
BRANCH  11  14
HETATM   14  N5  UNL     1      61.326 -65.763   5.987  1.00  0.00    -0.316 N 
ATOM     15  H5  UNL     1      60.382 -65.544   6.303  1.00  0.00     0.181 HD
BRANCH  14  16
HETATM   16  C6  UNL     1      62.273 -65.792   6.972  1.00  0.00     0.035 C 
HETATM   17  C7  UNL     1      62.798 -67.119   7.463  1.00  0.00     0.039 C 
HETATM   18  C8  UNL     1      61.637 -65.177   8.245  1.00  0.00     0.039 C 
HETATM   19  C9  UNL     1      63.493 -64.899   6.769  1.00  0.00     0.039 C 
ENDBRANCH  14  16
ENDBRANCH  11  14
BRANCH  12  20
HETATM   20  O4  UNL     1      61.068 -63.558   4.346  1.00  0.00    -0.296 OA
BRANCH  20  21
HETATM   21  C11 UNL     1      59.759 -62.986   4.200  1.00  0.00     0.249 C 
BRANCH  21  22
HETATM   22  C12 UNL     1      59.066 -63.139   5.503  1.00  0.00     0.257 C 
HETATM   23  O5  UNL     1      58.523 -64.214   5.766  1.00  0.00    -0.305 OA
ENDBRANCH  21  22
ENDBRANCH  20  21
ENDBRANCH  12  20
ENDBRANCH  10  11
BRANCH   5  24
HETATM   24  N2  UNL     1      62.537 -70.382   1.730  1.00  0.00    -0.098 N 
ATOM     25  H2  UNL     1      63.344 -70.963   1.953  1.00  0.00     0.213 HD
BRANCH  24  26
HETATM   26  O1  UNL     1      61.717 -70.701   0.662  1.00  0.00    -0.276 OA
ATOM     27  H1  UNL     1      61.299 -71.553   0.637  1.00  0.00     0.245 HD
ENDBRANCH  24  26
ENDBRANCH   5  24
TORSDOF 8
ENDMDL
MODEL 2
REMARK VINA RESULT: -6.783200694      2.569      4.547
REMARK  8 active torsions:
REMARK  status: ('A' for Active; 'I' for Inactive)
REMARK    1  A    between atoms: C3_5  and  N2_6 
REMARK    2  A    between atoms: N2_6  and  O1_8 
REMARK    3  A    between atoms: C5_14  and  N4_15 
REMARK    4  A    between atoms: N4_15  and  N5_16 
REMARK       I    between atoms: N4_15  and  C10_22 
REMARK    5  A    between atoms: N5_16  and  C6_18 
REMARK    6  A    between atoms: C10_22  and  O4_24 
REMARK    7  A    between atoms: O4_24  and  C11_25 
REMARK    8  A    between atoms: C11_25  and  C12_26 
ROOT
HETATM    1  C1  UNL     1      61.708 -66.212   5.775  1.00  0.00     0.071 C 
HETATM    2  C2  UNL     1      62.227 -67.443   5.128  1.00  0.00     0.057 A 
HETATM    3  N1  UNL     1      62.994 -68.254   5.903  1.00  0.00    -0.192 N 
ATOM      4  H1  UNL     1      63.186 -68.000   6.872  1.00  0.00     0.184 HD
HETATM    5  C3  UNL     1      63.504 -69.404   5.388  1.00  0.00     0.705 A 
HETATM    6  N3  UNL     1      63.268 -69.764   4.122  1.00  0.00    -0.152 N 
ATOM      7  H3  UNL     1      63.654 -70.628   3.743  1.00  0.00     0.187 HD
HETATM    8  C4  UNL     1      62.516 -68.962   3.371  1.00  0.00     0.290 A 
HETATM    9  O2  UNL     1      62.321 -69.354   2.170  1.00  0.00    -0.265 OA
HETATM   10  C5  UNL     1      61.982 -67.798   3.845  1.00  0.00     0.152 A 
ENDROOT
BRANCH  10  11
HETATM   11  N4  UNL     1      61.175 -67.028   2.985  1.00  0.00    -0.196 N 
HETATM   12  C10 UNL     1      59.768 -67.415   3.108  1.00  0.00     0.387 C 
HETATM   13  O3  UNL     1      59.374 -68.329   3.851  1.00  0.00    -0.236 OA
BRANCH  11  14
HETATM   14  N5  UNL     1      61.456 -66.059   2.121  1.00  0.00    -0.316 N 
ATOM     15  H5  UNL     1      61.561 -66.362   1.153  1.00  0.00     0.181 HD
BRANCH  14  16
HETATM   16  C6  UNL     1      61.626 -64.720   2.330  1.00  0.00     0.035 C 
HETATM   17  C7  UNL     1      60.544 -63.931   3.026  1.00  0.00     0.039 C 
HETATM   18  C8  UNL     1      61.711 -64.041   0.939  1.00  0.00     0.039 C 
HETATM   19  C9  UNL     1      62.944 -64.292   2.968  1.00  0.00     0.039 C 
ENDBRANCH  14  16
ENDBRANCH  11  14
BRANCH  12  20
HETATM   20  O4  UNL     1      58.795 -66.751   2.377  1.00  0.00    -0.296 OA
BRANCH  20  21
HETATM   21  C11 UNL     1      57.909 -67.500   1.529  1.00  0.00     0.249 C 
BRANCH  21  22
HETATM   22  C12 UNL     1      58.721 -68.551   0.868  1.00  0.00     0.257 C 
HETATM   23  O5  UNL     1      58.328 -69.719   0.905  1.00  0.00    -0.305 OA
ENDBRANCH  21  22
ENDBRANCH  20  21
ENDBRANCH  12  20
ENDBRANCH  10  11
BRANCH   5  24
HETATM   24  N2  UNL     1      64.237 -70.178   6.148  1.00  0.00    -0.098 N 
ATOM     25  H2  UNL     1      63.851 -70.576   7.003  1.00  0.00     0.213 HD
BRANCH  24  26
HETATM   26  O1  UNL     1      65.542 -70.449   5.775  1.00  0.00    -0.276 OA
ATOM     27  H1  UNL     1      65.949 -71.255   6.069  1.00  0.00     0.245 HD
ENDBRANCH  24  26
ENDBRANCH   5  24
TORSDOF 8
ENDMDL
MODEL 3
REMARK VINA RESULT: -6.695708421      2.700      4.981
REMARK  8 active torsions:
REMARK  status: ('A' for Active; 'I' for Inactive)
REMARK    1  A    between atoms: C3_5  and  N2_6 
REMARK    2  A    between atoms: N2_6  and  O1_8 
REMARK    3  A    between atoms: C5_14  and  N4_15 
REMARK    4  A    between atoms: N4_15  and  N5_16 
REMARK       I    between atoms: N4_15  and  C10_22 
REMARK    5  A    between atoms: N5_16  and  C6_18 
REMARK    6  A    between atoms: C10_22  and  O4_24 
REMARK    7  A    between atoms: O4_24  and  C11_25 
REMARK    8  A    between atoms: C11_25  and  C12_26 
ROOT
HETATM    1  C1  UNL     1      61.043 -66.063   4.892  1.00  0.00     0.071 C 
HETATM    2  C2  UNL     1      61.716 -67.284   4.384  1.00  0.00     0.057 A 
HETATM    3  N1  UNL     1      62.346 -68.053   5.309  1.00  0.00    -0.192 N 
ATOM      4  H1  UNL     1      62.342 -67.777   6.291  1.00  0.00     0.184 HD
HETATM    5  C3  UNL     1      62.984 -69.192   4.927  1.00  0.00     0.705 A 
HETATM    6  N3  UNL     1      63.006 -69.581   3.648  1.00  0.00    -0.152 N 
ATOM      7  H3  UNL     1      63.486 -70.437   3.369  1.00  0.00     0.187 HD
HETATM    8  C4  UNL     1      62.385 -68.820   2.749  1.00  0.00     0.290 A 
HETATM    9  O2  UNL     1      62.436 -69.238   1.542  1.00  0.00    -0.265 OA
HETATM   10  C5  UNL     1      61.732 -67.669   3.086  1.00  0.00     0.152 A 
ENDROOT
BRANCH  10  11
HETATM   11  N4  UNL     1      61.079 -66.942   2.071  1.00  0.00    -0.196 N 
HETATM   12  C10 UNL     1      61.952 -65.894   1.540  1.00  0.00     0.387 C 
HETATM   13  O3  UNL     1      63.096 -65.674   1.972  1.00  0.00    -0.236 OA
BRANCH  11  14
HETATM   14  N5  UNL     1      59.866 -67.037   1.539  1.00  0.00    -0.316 N 
ATOM     15  H5  UNL     1      59.648 -66.334   0.833  1.00  0.00     0.181 HD
BRANCH  14  16
HETATM   16  C6  UNL     1      58.865 -67.932   1.793  1.00  0.00     0.035 C 
HETATM   17  C7  UNL     1      59.053 -69.384   1.424  1.00  0.00     0.039 C 
HETATM   18  C8  UNL     1      57.641 -67.512   0.941  1.00  0.00     0.039 C 
HETATM   19  C9  UNL     1      58.284 -67.921   3.203  1.00  0.00     0.039 C 
ENDBRANCH  14  16
ENDBRANCH  11  14
BRANCH  12  20
HETATM   20  O4  UNL     1      61.519 -65.085   0.500  1.00  0.00    -0.296 OA
BRANCH  20  21
HETATM   21  C11 UNL     1      62.231 -65.089  -0.747  1.00  0.00     0.249 C 
BRANCH  21  22
HETATM   22  C12 UNL     1      61.997 -66.410  -1.381  1.00  0.00     0.257 C 
HETATM   23  O5  UNL     1      60.842 -66.836  -1.460  1.00  0.00    -0.305 OA
ENDBRANCH  21  22
ENDBRANCH  20  21
ENDBRANCH  12  20
ENDBRANCH  10  11
BRANCH   5  24
HETATM   24  N2  UNL     1      63.583 -69.926   5.830  1.00  0.00    -0.098 N 
ATOM     25  H2  UNL     1      63.120 -70.138   6.713  1.00  0.00     0.213 HD
BRANCH  24  26
HETATM   26  O1  UNL     1      64.852 -70.412   5.570  1.00  0.00    -0.276 OA
ATOM     27  H1  UNL     1      65.172 -71.159   6.062  1.00  0.00     0.245 HD
ENDBRANCH  24  26
ENDBRANCH   5  24
TORSDOF 8
ENDMDL
MODEL 4
REMARK VINA RESULT: -6.692381719      2.563      4.251
REMARK  8 active torsions:
REMARK  status: ('A' for Active; 'I' for Inactive)
REMARK    1  A    between atoms: C3_5  and  N2_6 
REMARK    2  A    between atoms: N2_6  and  O1_8 
REMARK    3  A    between atoms: C5_14  and  N4_15 
REMARK    4  A    between atoms: N4_15  and  N5_16 
REMARK       I    between atoms: N4_15  and  C10_22 
REMARK    5  A    between atoms: N5_16  and  C6_18 
REMARK    6  A    between atoms: C10_22  and  O4_24 
REMARK    7  A    between atoms: O4_24  and  C11_25 
REMARK    8  A    between atoms: C11_25  and  C12_26 
ROOT
HETATM    1  C1  UNL     1      62.319 -69.511   2.052  1.00  0.00     0.071 C 
HETATM    2  C2  UNL     1      62.523 -69.061   3.452  1.00  0.00     0.057 A 
HETATM    3  N1  UNL     1      63.313 -69.848   4.227  1.00  0.00    -0.192 N 
ATOM      4  H1  UNL     1      63.725 -70.696   3.839  1.00  0.00     0.184 HD
HETATM    5  C3  UNL     1      63.555 -69.506   5.520  1.00  0.00     0.705 A 
HETATM    6  N3  UNL     1      63.029 -68.399   6.057  1.00  0.00    -0.152 N 
ATOM      7  H3  UNL     1      63.215 -68.148   7.027  1.00  0.00     0.187 HD
HETATM    8  C4  UNL     1      62.256 -67.635   5.288  1.00  0.00     0.290 A 
HETATM    9  O2  UNL     1      61.780 -66.590   5.849  1.00  0.00    -0.265 OA
HETATM   10  C5  UNL     1      61.985 -67.939   3.984  1.00  0.00     0.152 A 
ENDROOT
BRANCH  10  11
HETATM   11  N4  UNL     1      61.179 -67.056   3.239  1.00  0.00    -0.196 N 
HETATM   12  C10 UNL     1      59.780 -67.486   3.262  1.00  0.00     0.387 C 
HETATM   13  O3  UNL     1      59.392 -68.517   3.838  1.00  0.00    -0.236 OA
BRANCH  11  14
HETATM   14  N5  UNL     1      61.456 -65.955   2.550  1.00  0.00    -0.316 N 
ATOM     15  H5  UNL     1      61.535 -66.085   1.542  1.00  0.00     0.181 HD
BRANCH  14  16
HETATM   16  C6  UNL     1      61.651 -64.674   2.984  1.00  0.00     0.035 C 
HETATM   17  C7  UNL     1      60.621 -64.026   3.877  1.00  0.00     0.039 C 
HETATM   18  C8  UNL     1      61.655 -63.757   1.735  1.00  0.00     0.039 C 
HETATM   19  C9  UNL     1      63.010 -64.365   3.604  1.00  0.00     0.039 C 
ENDBRANCH  14  16
ENDBRANCH  11  14
BRANCH  12  20
HETATM   20  O4  UNL     1      58.807 -66.733   2.623  1.00  0.00    -0.296 OA
BRANCH  20  21
HETATM   21  C11 UNL     1      58.159 -67.256   1.452  1.00  0.00     0.249 C 
BRANCH  21  22
HETATM   22  C12 UNL     1      59.045 -66.971   0.297  1.00  0.00     0.257 C 
HETATM   23  O5  UNL     1      59.437 -65.816   0.118  1.00  0.00    -0.305 OA
ENDBRANCH  21  22
ENDBRANCH  20  21
ENDBRANCH  12  20
ENDBRANCH  10  11
BRANCH   5  24
HETATM   24  N2  UNL     1      64.322 -70.270   6.255  1.00  0.00    -0.098 N 
ATOM     25  H2  UNL     1      63.921 -70.840   7.000  1.00  0.00     0.213 HD
BRANCH  24  26
HETATM   26  O1  UNL     1      65.683 -70.297   6.008  1.00  0.00    -0.276 OA
ATOM     27  H1  UNL     1      66.172 -71.090   6.194  1.00  0.00     0.245 HD
ENDBRANCH  24  26
ENDBRANCH   5  24
TORSDOF 8
ENDMDL
MODEL 5
REMARK VINA RESULT: -6.658976016      2.735      4.548
REMARK  8 active torsions:
REMARK  status: ('A' for Active; 'I' for Inactive)
REMARK    1  A    between atoms: C3_5  and  N2_6 
REMARK    2  A    between atoms: N2_6  and  O1_8 
REMARK    3  A    between atoms: C5_14  and  N4_15 
REMARK    4  A    between atoms: N4_15  and  N5_16 
REMARK       I    between atoms: N4_15  and  C10_22 
REMARK    5  A    between atoms: N5_16  and  C6_18 
REMARK    6  A    between atoms: C10_22  and  O4_24 
REMARK    7  A    between atoms: O4_24  and  C11_25 
REMARK    8  A    between atoms: C11_25  and  C12_26 
ROOT
HETATM    1  C1  UNL     1      62.475 -66.844   7.824  1.00  0.00     0.071 C 
HETATM    2  C2  UNL     1      62.827 -68.093   7.103  1.00  0.00     0.057 A 
HETATM    3  N1  UNL     1      63.298 -69.115   7.864  1.00  0.00    -0.192 N 
ATOM      4  H1  UNL     1      63.394 -68.997   8.872  1.00  0.00     0.184 HD
HETATM    5  C3  UNL     1      63.639 -70.295   7.282  1.00  0.00     0.705 A 
HETATM    6  N3  UNL     1      63.522 -70.480   5.963  1.00  0.00    -0.152 N 
ATOM      7  H3  UNL     1      63.780 -71.368   5.533  1.00  0.00     0.187 HD
HETATM    8  C4  UNL     1      63.061 -69.471   5.226  1.00  0.00     0.290 A 
HETATM    9  O2  UNL     1      62.968 -69.701   3.972  1.00  0.00    -0.265 OA
HETATM   10  C5  UNL     1      62.705 -68.269   5.766  1.00  0.00     0.152 A 
ENDROOT
BRANCH  10  11
HETATM   11  N4  UNL     1      62.200 -67.269   4.912  1.00  0.00    -0.196 N 
HETATM   12  C10 UNL     1      63.275 -66.389   4.450  1.00  0.00     0.387 C 
HETATM   13  O3  UNL     1      64.458 -66.510   4.810  1.00  0.00    -0.236 OA
BRANCH  11  14
HETATM   14  N5  UNL     1      60.975 -66.997   4.476  1.00  0.00    -0.316 N 
ATOM     15  H5  UNL     1      60.462 -66.312   5.031  1.00  0.00     0.181 HD
BRANCH  14  16
HETATM   16  C6  UNL     1      60.297 -67.495   3.399  1.00  0.00     0.035 C 
HETATM   17  C7  UNL     1      61.031 -67.732   2.102  1.00  0.00     0.039 C 
HETATM   18  C8  UNL     1      59.222 -66.449   3.005  1.00  0.00     0.039 C 
HETATM   19  C9  UNL     1      59.449 -68.738   3.644  1.00  0.00     0.039 C 
ENDBRANCH  14  16
ENDBRANCH  11  14
BRANCH  12  20
HETATM   20  O4  UNL     1      63.001 -65.358   3.564  1.00  0.00    -0.296 OA
BRANCH  20  21
HETATM   21  C11 UNL     1      62.960 -64.004   4.042  1.00  0.00     0.249 C 
BRANCH  21  22
HETATM   22  C12 UNL     1      61.542 -63.567   3.999  1.00  0.00     0.257 C 
HETATM   23  O5  UNL     1      60.785 -63.914   4.908  1.00  0.00    -0.305 OA
ENDBRANCH  21  22
ENDBRANCH  20  21
ENDBRANCH  12  20
ENDBRANCH  10  11
BRANCH   5  24
HETATM   24  N2  UNL     1      64.086 -71.274   8.028  1.00  0.00    -0.098 N 
ATOM     25  H2  UNL     1      64.388 -72.150   7.603  1.00  0.00     0.213 HD
BRANCH  24  26
HETATM   26  O1  UNL     1      64.144 -71.104   9.400  1.00  0.00    -0.276 OA
ATOM     27  H1  UNL     1      64.681 -71.692   9.917  1.00  0.00     0.245 HD
ENDBRANCH  24  26
ENDBRANCH   5  24
TORSDOF 8
ENDMDL
