MODEL 1
REMARK VINA RESULT: -7.918744908      0.000      0.000
REMARK  8 active torsions:
REMARK  status: ('A' for Active; 'I' for Inactive)
REMARK    1  A    between atoms: C2_2  and  N1_3 
REMARK    2  A    between atoms: N1_3  and  C3_5 
REMARK    3  A    between atoms: C6_10  and  O1_11 
REMARK    4  A    between atoms: N3_14  and  O2_16 
REMARK    5  A    between atoms: C9_18  and  N4_19 
REMARK    6  A    between atoms: N4_19  and  N5_21 
REMARK    7  A    between atoms: C10_23  and  C12_25 
REMARK    8  A    between atoms: C12_25  and  N6_27 
ROOT
HETATM    1  C3  UNL     1      61.529 -66.851   4.902  1.00  0.00     0.680 C 
HETATM    2  N2  UNL     1      60.706 -66.568   3.874  1.00  0.00    -0.193 N 
ATOM      3  H2  UNL     1      59.964 -65.907   4.105  1.00  0.00     0.184 HD
HETATM    4  C4  UNL     1      60.680 -66.995   2.604  1.00  0.00     0.058 C 
HETATM    5  C5  UNL     1      59.748 -66.354   1.642  1.00  0.00     0.072 C 
HETATM    6  C6  UNL     1      61.464 -68.017   2.067  1.00  0.00     0.123 C 
HETATM    7  C8  UNL     1      62.124 -68.999   2.781  1.00  0.00     0.135 C 
HETATM    8  N3  UNL     1      62.355 -70.105   2.164  1.00  0.00    -0.263 N 
ATOM      9  H3  UNL     1      62.839 -70.857   2.653  1.00  0.00     0.194 HD
HETATM   10  C9  UNL     1      62.570 -68.932   4.095  1.00  0.00     0.167 C 
HETATM   11  N7  UNL     1      62.284 -67.967   5.008  1.00  0.00    -0.173 N 
ATOM     12  H7  UNL     1      62.710 -68.108   5.924  1.00  0.00     0.186 HD
ENDROOT
BRANCH  10  13
HETATM   13  N4  UNL     1      63.322 -69.903   4.428  1.00  0.00    -0.283 N 
ATOM     14  H4  UNL     1      63.094 -70.817   4.036  1.00  0.00     0.188 HD
BRANCH  13  15
HETATM   15  N5  UNL     1      64.410 -69.839   5.264  1.00  0.00    -0.306 N 
HETATM   16  C10 UNL     1      64.346 -70.118   6.523  1.00  0.00     0.029 C 
HETATM   17  C11 UNL     1      63.029 -70.525   7.072  1.00  0.00     0.067 C 
ATOM     18  H5  UNL     1      65.310 -69.559   4.872  1.00  0.00     0.186 HD
BRANCH  16  19
HETATM   19  C12 UNL     1      65.497 -70.056   7.433  1.00  0.00     0.225 C 
HETATM   20  C13 UNL     1      65.061 -70.655   8.765  1.00  0.00     0.046 C 
BRANCH  19  21
HETATM   21  N6  UNL     1      66.602 -70.836   6.945  1.00  0.00    -0.070 N 
ATOM     22  H63 UNL     1      66.917 -70.505   6.033  1.00  0.00     0.275 HD
ATOM     23  H62 UNL     1      67.451 -70.656   7.481  1.00  0.00     0.275 HD
ATOM     24  H61 UNL     1      66.380 -71.831   6.923  1.00  0.00     0.275 HD
ENDBRANCH  19  21
ENDBRANCH  16  19
ENDBRANCH  13  15
ENDBRANCH  10  13
BRANCH   6  25
HETATM   25  O1  UNL     1      61.604 -68.066   0.707  1.00  0.00    -0.352 OA
HETATM   26  C7  UNL     1      62.045 -66.968  -0.078  1.00  0.00     0.210 C 
ENDBRANCH   6  25
BRANCH   8  27
HETATM   27  O2  UNL     1      61.963 -70.293   0.861  1.00  0.00    -0.289 OA
ATOM     28  H2  UNL     1      62.043 -71.140   0.437  1.00  0.00     0.244 HD
ENDBRANCH   8  27
BRANCH   1  29
HETATM   29  N1  UNL     1      61.640 -66.037   5.866  1.00  0.00    -0.226 N 
ATOM     30  H1  UNL     1      61.089 -65.181   5.799  1.00  0.00     0.177 HD
BRANCH  29  31
HETATM   31  C2  UNL     1      62.441 -66.176   7.033  1.00  0.00     0.133 C 
HETATM   32  C1  UNL     1      61.864 -65.464   8.242  1.00  0.00     0.027 C 
ENDBRANCH  29  31
ENDBRANCH   1  29
TORSDOF 8
ENDMDL
MODEL 2
REMARK VINA RESULT: -7.888358963      1.037      1.282
REMARK  8 active torsions:
REMARK  status: ('A' for Active; 'I' for Inactive)
REMARK    1  A    between atoms: C2_2  and  N1_3 
REMARK    2  A    between atoms: N1_3  and  C3_5 
REMARK    3  A    between atoms: C6_10  and  O1_11 
REMARK    4  A    between atoms: N3_14  and  O2_16 
REMARK    5  A    between atoms: C9_18  and  N4_19 
REMARK    6  A    between atoms: N4_19  and  N5_21 
REMARK    7  A    between atoms: C10_23  and  C12_25 
REMARK    8  A    between atoms: C12_25  and  N6_27 
ROOT
HETATM    1  C3  UNL     1      60.976 -66.546   4.480  1.00  0.00     0.680 C 
HETATM    2  N2  UNL     1      60.164 -66.539   3.405  1.00  0.00    -0.193 N 
ATOM      3  H2  UNL     1      59.307 -66.000   3.534  1.00  0.00     0.184 HD
HETATM    4  C4  UNL     1      60.273 -67.109   2.197  1.00  0.00     0.058 C 
HETATM    5  C5  UNL     1      59.288 -66.763   1.141  1.00  0.00     0.072 C 
HETATM    6  C6  UNL     1      61.249 -68.028   1.810  1.00  0.00     0.123 C 
HETATM    7  C8  UNL     1      62.038 -68.784   2.655  1.00  0.00     0.135 C 
HETATM    8  N3  UNL     1      62.488 -69.894   2.185  1.00  0.00    -0.263 N 
ATOM      9  H3  UNL     1      63.074 -70.484   2.775  1.00  0.00     0.194 HD
HETATM   10  C9  UNL     1      62.403 -68.484   3.962  1.00  0.00     0.167 C 
HETATM   11  N7  UNL     1      61.910 -67.487   4.741  1.00  0.00    -0.173 N 
ATOM     12  H7  UNL     1      62.311 -67.441   5.678  1.00  0.00     0.186 HD
ENDROOT
BRANCH  10  13
HETATM   13  N4  UNL     1      63.299 -69.258   4.430  1.00  0.00    -0.283 N 
ATOM     14  H4  UNL     1      64.168 -69.331   3.901  1.00  0.00     0.188 HD
BRANCH  13  15
HETATM   15  N5  UNL     1      63.207 -70.006   5.580  1.00  0.00    -0.306 N 
HETATM   16  C10 UNL     1      63.692 -69.615   6.712  1.00  0.00     0.029 C 
HETATM   17  C11 UNL     1      64.373 -68.298   6.751  1.00  0.00     0.067 C 
ATOM     18  H5  UNL     1      62.735 -70.909   5.538  1.00  0.00     0.186 HD
BRANCH  16  19
HETATM   19  C12 UNL     1      63.604 -70.398   7.950  1.00  0.00     0.225 C 
HETATM   20  C13 UNL     1      62.138 -70.757   8.162  1.00  0.00     0.046 C 
BRANCH  19  21
HETATM   21  N6  UNL     1      64.345 -71.626   7.856  1.00  0.00    -0.070 N 
ATOM     22  H63 UNL     1      63.904 -72.279   7.207  1.00  0.00     0.275 HD
ATOM     23  H62 UNL     1      65.230 -71.491   7.368  1.00  0.00     0.275 HD
ATOM     24  H61 UNL     1      64.487 -72.052   8.772  1.00  0.00     0.275 HD
ENDBRANCH  19  21
ENDBRANCH  16  19
ENDBRANCH  13  15
ENDBRANCH  10  13
BRANCH   6  25
HETATM   25  O1  UNL     1      61.457 -68.209   0.471  1.00  0.00    -0.352 OA
HETATM   26  C7  UNL     1      61.810 -67.160  -0.420  1.00  0.00     0.210 C 
ENDBRANCH   6  25
BRANCH   8  27
HETATM   27  O2  UNL     1      62.196 -70.302   0.907  1.00  0.00    -0.289 OA
ATOM     28  H2  UNL     1      61.827 -71.159   0.732  1.00  0.00     0.244 HD
ENDBRANCH   8  27
BRANCH   1  29
HETATM   29  N1  UNL     1      60.897 -65.618   5.339  1.00  0.00    -0.226 N 
ATOM     30  H1  UNL     1      59.969 -65.221   5.489  1.00  0.00     0.177 HD
BRANCH  29  31
HETATM   31  C2  UNL     1      61.948 -65.065   6.121  1.00  0.00     0.133 C 
HETATM   32  C1  UNL     1      61.751 -65.263   7.612  1.00  0.00     0.027 C 
ENDBRANCH  29  31
ENDBRANCH   1  29
TORSDOF 8
ENDMDL
MODEL 3
REMARK VINA RESULT: -7.867066304      3.053      4.163
REMARK  8 active torsions:
REMARK  status: ('A' for Active; 'I' for Inactive)
REMARK    1  A    between atoms: C2_2  and  N1_3 
REMARK    2  A    between atoms: N1_3  and  C3_5 
REMARK    3  A    between atoms: C6_10  and  O1_11 
REMARK    4  A    between atoms: N3_14  and  O2_16 
REMARK    5  A    between atoms: C9_18  and  N4_19 
REMARK    6  A    between atoms: N4_19  and  N5_21 
REMARK    7  A    between atoms: C10_23  and  C12_25 
REMARK    8  A    between atoms: C12_25  and  N6_27 
ROOT
HETATM    1  C3  UNL     1      62.941 -65.394   8.944  1.00  0.00     0.680 C 
HETATM    2  N2  UNL     1      61.801 -64.756   8.615  1.00  0.00    -0.193 N 
ATOM      3  H2  UNL     1      61.345 -64.288   9.399  1.00  0.00     0.184 HD
HETATM    4  C4  UNL     1      61.153 -64.624   7.449  1.00  0.00     0.058 C 
HETATM    5  C5  UNL     1      60.000 -63.692   7.363  1.00  0.00     0.072 C 
HETATM    6  C6  UNL     1      61.457 -65.293   6.263  1.00  0.00     0.123 C 
HETATM    7  C8  UNL     1      62.209 -66.445   6.147  1.00  0.00     0.135 C 
HETATM    8  N3  UNL     1      61.975 -67.187   5.120  1.00  0.00    -0.263 N 
ATOM      9  H3  UNL     1      62.507 -68.048   4.995  1.00  0.00     0.194 HD
HETATM   10  C9  UNL     1      63.194 -66.902   7.014  1.00  0.00     0.167 C 
HETATM   11  N7  UNL     1      63.488 -66.414   8.247  1.00  0.00    -0.173 N 
ATOM     12  H7  UNL     1      64.248 -66.898   8.726  1.00  0.00     0.186 HD
ENDROOT
BRANCH  10  13
HETATM   13  N4  UNL     1      63.860 -67.885   6.555  1.00  0.00    -0.283 N 
ATOM     14  H4  UNL     1      63.885 -67.991   5.541  1.00  0.00     0.188 HD
BRANCH  13  15
HETATM   15  N5  UNL     1      64.550 -68.815   7.295  1.00  0.00    -0.306 N 
HETATM   16  C10 UNL     1      64.074 -69.984   7.573  1.00  0.00     0.029 C 
HETATM   17  C11 UNL     1      62.722 -70.316   7.061  1.00  0.00     0.067 C 
ATOM     18  H5  UNL     1      65.480 -68.573   7.639  1.00  0.00     0.186 HD
BRANCH  16  19
HETATM   19  C12 UNL     1      64.795 -70.991   8.360  1.00  0.00     0.225 C 
HETATM   20  C13 UNL     1      66.247 -70.982   7.898  1.00  0.00     0.046 C 
BRANCH  19  21
HETATM   21  N6  UNL     1      64.782 -70.678   9.764  1.00  0.00    -0.070 N 
ATOM     22  H63 UNL     1      64.042 -71.184  10.251  1.00  0.00     0.275 HD
ATOM     23  H62 UNL     1      65.589 -71.079  10.242  1.00  0.00     0.275 HD
ATOM     24  H61 UNL     1      64.714 -69.674   9.925  1.00  0.00     0.275 HD
ENDBRANCH  19  21
ENDBRANCH  16  19
ENDBRANCH  13  15
ENDBRANCH  10  13
BRANCH   6  25
HETATM   25  O1  UNL     1      60.972 -64.771   5.095  1.00  0.00    -0.352 OA
HETATM   26  C7  UNL     1      61.556 -63.661   4.428  1.00  0.00     0.210 C 
ENDBRANCH   6  25
BRANCH   8  27
HETATM   27  O2  UNL     1      61.025 -66.843   4.191  1.00  0.00    -0.289 OA
ATOM     28  H2  UNL     1      61.203 -66.198   3.515  1.00  0.00     0.244 HD
ENDBRANCH   8  27
BRANCH   1  29
HETATM   29  N1  UNL     1      63.586 -65.045   9.976  1.00  0.00    -0.226 N 
ATOM     30  H1  UNL     1      64.603 -65.075   9.903  1.00  0.00     0.177 HD
BRANCH  29  31
HETATM   31  C2  UNL     1      63.061 -64.615  11.226  1.00  0.00     0.133 C 
HETATM   32  C1  UNL     1      63.272 -63.135  11.486  1.00  0.00     0.027 C 
ENDBRANCH  29  31
ENDBRANCH   1  29
TORSDOF 8
ENDMDL
MODEL 4
REMARK VINA RESULT: -7.835204987      2.743      5.580
REMARK  8 active torsions:
REMARK  status: ('A' for Active; 'I' for Inactive)
REMARK    1  A    between atoms: C2_2  and  N1_3 
REMARK    2  A    between atoms: N1_3  and  C3_5 
REMARK    3  A    between atoms: C6_10  and  O1_11 
REMARK    4  A    between atoms: N3_14  and  O2_16 
REMARK    5  A    between atoms: C9_18  and  N4_19 
REMARK    6  A    between atoms: N4_19  and  N5_21 
REMARK    7  A    between atoms: C10_23  and  C12_25 
REMARK    8  A    between atoms: C12_25  and  N6_27 
ROOT
HETATM    1  C3  UNL     1      63.672 -68.670   6.904  1.00  0.00     0.680 C 
HETATM    2  N2  UNL     1      63.604 -68.844   5.570  1.00  0.00    -0.193 N 
ATOM      3  H2  UNL     1      64.311 -69.478   5.197  1.00  0.00     0.184 HD
HETATM    4  C4  UNL     1      62.779 -68.340   4.642  1.00  0.00     0.058 C 
HETATM    5  C5  UNL     1      62.835 -68.871   3.257  1.00  0.00     0.072 C 
HETATM    6  C6  UNL     1      61.836 -67.331   4.846  1.00  0.00     0.123 C 
HETATM    7  C8  UNL     1      61.818 -66.432   5.894  1.00  0.00     0.135 C 
HETATM    8  N3  UNL     1      61.235 -65.305   5.677  1.00  0.00    -0.263 N 
ATOM      9  H3  UNL     1      61.199 -64.611   6.424  1.00  0.00     0.194 HD
HETATM   10  C9  UNL     1      62.359 -66.603   7.162  1.00  0.00     0.167 C 
HETATM   11  N7  UNL     1      63.179 -67.605   7.574  1.00  0.00    -0.173 N 
ATOM     12  H7  UNL     1      63.470 -67.543   8.550  1.00  0.00     0.186 HD
ENDROOT
BRANCH  10  13
HETATM   13  N4  UNL     1      62.018 -65.695   7.987  1.00  0.00    -0.283 N 
ATOM     14  H4  UNL     1      61.168 -65.173   7.773  1.00  0.00     0.188 HD
BRANCH  13  15
HETATM   15  N5  UNL     1      62.685 -65.351   9.138  1.00  0.00    -0.306 N 
HETATM   16  C10 UNL     1      62.612 -64.175   9.668  1.00  0.00     0.029 C 
HETATM   17  C11 UNL     1      61.764 -63.166   8.988  1.00  0.00     0.067 C 
ATOM     18  H5  UNL     1      63.264 -66.056   9.596  1.00  0.00     0.186 HD
BRANCH  16  19
HETATM   19  C12 UNL     1      63.316 -63.788  10.896  1.00  0.00     0.225 C 
HETATM   20  C13 UNL     1      62.814 -62.406  11.296  1.00  0.00     0.046 C 
BRANCH  19  21
HETATM   21  N6  UNL     1      63.026 -64.687  11.980  1.00  0.00    -0.070 N 
ATOM     22  H63 UNL     1      62.183 -64.408  12.481  1.00  0.00     0.275 HD
ATOM     23  H62 UNL     1      62.713 -65.595  11.637  1.00  0.00     0.275 HD
ATOM     24  H61 UNL     1      63.821 -64.783  12.613  1.00  0.00     0.275 HD
ENDBRANCH  19  21
ENDBRANCH  16  19
ENDBRANCH  13  15
ENDBRANCH  10  13
BRANCH   6  25
HETATM   25  O1  UNL     1      60.828 -67.207   3.930  1.00  0.00    -0.352 OA
HETATM   26  C7  UNL     1      59.723 -68.096   3.851  1.00  0.00     0.210 C 
ENDBRANCH   6  25
BRANCH   8  27
HETATM   27  O2  UNL     1      60.663 -65.016   4.463  1.00  0.00    -0.289 OA
ATOM     28  H2  UNL     1      60.105 -64.256   4.347  1.00  0.00     0.244 HD
ENDBRANCH   8  27
BRANCH   1  29
HETATM   29  N1  UNL     1      64.230 -69.545   7.630  1.00  0.00    -0.226 N 
ATOM     30  H1  UNL     1      65.074 -69.251   8.122  1.00  0.00     0.177 HD
BRANCH  29  31
HETATM   31  C2  UNL     1      63.820 -70.891   7.839  1.00  0.00     0.133 C 
HETATM   32  C1  UNL     1      62.569 -71.008   8.690  1.00  0.00     0.027 C 
ENDBRANCH  29  31
ENDBRANCH   1  29
TORSDOF 8
ENDMDL
MODEL 5
REMARK VINA RESULT: -7.835177084      2.917      4.595
REMARK  8 active torsions:
REMARK  status: ('A' for Active; 'I' for Inactive)
REMARK    1  A    between atoms: C2_2  and  N1_3 
REMARK    2  A    between atoms: N1_3  and  C3_5 
REMARK    3  A    between atoms: C6_10  and  O1_11 
REMARK    4  A    between atoms: N3_14  and  O2_16 
REMARK    5  A    between atoms: C9_18  and  N4_19 
REMARK    6  A    between atoms: N4_19  and  N5_21 
REMARK    7  A    between atoms: C10_23  and  C12_25 
REMARK    8  A    between atoms: C12_25  and  N6_27 
ROOT
HETATM    1  C3  UNL     1      63.015 -67.828   3.866  1.00  0.00     0.680 C 
HETATM    2  N2  UNL     1      63.049 -66.563   3.407  1.00  0.00    -0.193 N 
ATOM      3  H2  UNL     1      63.396 -66.476   2.451  1.00  0.00     0.184 HD
HETATM    4  C4  UNL     1      62.711 -65.395   3.972  1.00  0.00     0.058 C 
HETATM    5  C5  UNL     1      62.684 -64.167   3.138  1.00  0.00     0.072 C 
HETATM    6  C6  UNL     1      62.370 -65.203   5.311  1.00  0.00     0.123 C 
HETATM    7  C8  UNL     1      62.656 -66.058   6.357  1.00  0.00     0.135 C 
HETATM    8  N3  UNL     1      62.739 -65.531   7.528  1.00  0.00    -0.263 N 
ATOM      9  H3  UNL     1      62.950 -66.126   8.329  1.00  0.00     0.194 HD
HETATM   10  C9  UNL     1      62.868 -67.430   6.292  1.00  0.00     0.167 C 
HETATM   11  N7  UNL     1      63.025 -68.181   5.171  1.00  0.00    -0.173 N 
ATOM     12  H7  UNL     1      63.176 -69.175   5.342  1.00  0.00     0.186 HD
ENDROOT
BRANCH  10  13
HETATM   13  N4  UNL     1      62.911 -67.993   7.432  1.00  0.00    -0.283 N 
ATOM     14  H4  UNL     1      62.135 -67.808   8.068  1.00  0.00     0.188 HD
BRANCH  13  15
HETATM   15  N5  UNL     1      63.903 -68.827   7.890  1.00  0.00    -0.306 N 
HETATM   16  C10 UNL     1      63.709 -70.079   8.140  1.00  0.00     0.029 C 
HETATM   17  C11 UNL     1      62.347 -70.622   7.915  1.00  0.00     0.067 C 
ATOM     18  H5  UNL     1      64.835 -68.439   8.039  1.00  0.00     0.186 HD
BRANCH  16  19
HETATM   19  C12 UNL     1      64.755 -70.985   8.629  1.00  0.00     0.225 C 
HETATM   20  C13 UNL     1      65.991 -70.767   7.765  1.00  0.00     0.046 C 
BRANCH  19  21
HETATM   21  N6  UNL     1      65.116 -70.695   9.990  1.00  0.00    -0.070 N 
ATOM     22  H63 UNL     1      65.022 -69.700  10.196  1.00  0.00     0.275 HD
ATOM     23  H62 UNL     1      64.425 -71.058  10.645  1.00  0.00     0.275 HD
ATOM     24  H61 UNL     1      66.053 -71.033  10.211  1.00  0.00     0.275 HD
ENDBRANCH  19  21
ENDBRANCH  16  19
ENDBRANCH  13  15
ENDBRANCH  10  13
BRANCH   6  25
HETATM   25  O1  UNL     1      61.686 -64.063   5.637  1.00  0.00    -0.352 OA
HETATM   26  C7  UNL     1      60.279 -63.924   5.498  1.00  0.00     0.210 C 
ENDBRANCH   6  25
BRANCH   8  27
HETATM   27  O2  UNL     1      62.551 -64.185   7.723  1.00  0.00    -0.289 OA
ATOM     28  H2  UNL     1      61.703 -63.834   7.970  1.00  0.00     0.244 HD
ENDBRANCH   8  27
BRANCH   1  29
HETATM   29  N1  UNL     1      62.968 -68.797   3.051  1.00  0.00    -0.226 N 
ATOM     30  H1  UNL     1      63.781 -69.413   3.036  1.00  0.00     0.177 HD
BRANCH  29  31
HETATM   31  C2  UNL     1      61.914 -69.127   2.154  1.00  0.00     0.133 C 
HETATM   32  C1  UNL     1      62.178 -70.397   1.366  1.00  0.00     0.027 C 
ENDBRANCH  29  31
ENDBRANCH   1  29
TORSDOF 8
ENDMDL
