MODEL 1
REMARK VINA RESULT: -6.547756519      0.000      0.000
REMARK  3 active torsions:
REMARK  status: ('A' for Active; 'I' for Inactive)
REMARK    1  A    between atoms: S1_2  and  C2_3 
REMARK    2  A    between atoms: C4_8  and  C5_9 
REMARK       I    between atoms: C5_9  and  N3_11 
REMARK    3  A    between atoms: N3_11  and  N4_13 
ROOT
HETATM    1  C2  UNL     1      -1.645   9.100  12.728  1.00  0.00     0.147 A 
HETATM    2  N1  UNL     1      -1.903   7.783  12.762  1.00  0.00    -0.324 N 
ATOM      3  H1  UNL     1      -1.763   7.214  11.928  1.00  0.00     0.169 HD
HETATM    4  C3  UNL     1      -2.344   7.218  13.890  1.00  0.00     0.139 A 
HETATM    5  N2  UNL     1      -2.616   5.835  13.928  1.00  0.00    -0.081 NA
HETATM    6  C4  UNL     1      -2.547   7.986  15.063  1.00  0.00     0.142 A 
HETATM    7  C6  UNL     1      -2.275   9.332  15.003  1.00  0.00     0.266 A 
HETATM    8  O2  UNL     1      -2.434  10.053  15.998  1.00  0.00    -0.267 OA
HETATM    9  N5  UNL     1      -1.833   9.835  13.830  1.00  0.00    -0.303 N 
ATOM     10  H5  UNL     1      -1.630  10.834  13.781  1.00  0.00     0.171 HD
ENDROOT
BRANCH   6  11
HETATM   11  C5  UNL     1      -3.025   7.274  16.223  1.00  0.00     0.278 C 
HETATM   12  O1  UNL     1      -2.169   6.889  17.113  1.00  0.00    -0.266 OA
HETATM   13  N3  UNL     1      -4.355   6.957  16.479  1.00  0.00    -0.272 N 
ATOM     14  H3  UNL     1      -5.075   7.235  15.813  1.00  0.00     0.189 HD
BRANCH  13  15
HETATM   15  N4  UNL     1      -4.724   6.243  17.667  1.00  0.00    -0.342 N 
ATOM     16  H42 UNL     1      -4.987   6.777  18.495  1.00  0.00     0.176 HD
ATOM     17  H41 UNL     1      -4.724   5.223  17.686  1.00  0.00     0.176 HD
ENDBRANCH  13  15
ENDBRANCH   6  11
BRANCH   1  18
HETATM   18  S1  UNL     1      -1.056   9.792  11.180  1.00  0.00    -0.098 SA
HETATM   19  C1  UNL     1      -2.448   9.743  10.018  1.00  0.00     0.099 C 
ENDBRANCH   1  18
TORSDOF 3
ENDMDL
MODEL 2
REMARK VINA RESULT: -6.425187333      1.175      2.195
REMARK  3 active torsions:
REMARK  status: ('A' for Active; 'I' for Inactive)
REMARK    1  A    between atoms: S1_2  and  C2_3 
REMARK    2  A    between atoms: C4_8  and  C5_9 
REMARK       I    between atoms: C5_9  and  N3_11 
REMARK    3  A    between atoms: N3_11  and  N4_13 
ROOT
HETATM    1  C2  UNL     1      -1.513   8.841  12.668  1.00  0.00     0.147 A 
HETATM    2  N1  UNL     1      -1.797   9.571  13.760  1.00  0.00    -0.324 N 
ATOM      3  H1  UNL     1      -1.656  10.581  13.749  1.00  0.00     0.169 HD
HETATM    4  C3  UNL     1      -2.266   8.974  14.859  1.00  0.00     0.139 A 
HETATM    5  N2  UNL     1      -2.565   9.738  16.006  1.00  0.00    -0.081 NA
HETATM    6  C4  UNL     1      -2.471   7.573  14.900  1.00  0.00     0.142 A 
HETATM    7  C6  UNL     1      -2.174   6.847  13.771  1.00  0.00     0.266 A 
HETATM    8  O2  UNL     1      -2.334   5.619  13.750  1.00  0.00    -0.267 OA
HETATM    9  N5  UNL     1      -1.704   7.517  12.696  1.00  0.00    -0.303 N 
ATOM     10  H5  UNL     1      -1.482   6.982  11.857  1.00  0.00     0.171 HD
ENDROOT
BRANCH   6  11
HETATM   11  C5  UNL     1      -2.981   7.034  16.138  1.00  0.00     0.278 C 
HETATM   12  O1  UNL     1      -2.140   6.598  17.020  1.00  0.00    -0.266 OA
HETATM   13  N3  UNL     1      -4.325   6.937  16.479  1.00  0.00    -0.272 N 
ATOM     14  H3  UNL     1      -5.035   7.264  15.824  1.00  0.00     0.189 HD
BRANCH  13  15
HETATM   15  N4  UNL     1      -4.726   6.383  17.740  1.00  0.00    -0.342 N 
ATOM     16  H42 UNL     1      -5.254   6.969  18.385  1.00  0.00     0.176 HD
ATOM     17  H41 UNL     1      -4.488   5.423  17.988  1.00  0.00     0.176 HD
ENDBRANCH  13  15
ENDBRANCH   6  11
BRANCH   1  18
HETATM   18  S1  UNL     1      -0.888   9.708  11.228  1.00  0.00    -0.098 SA
HETATM   19  C1  UNL     1      -2.282   9.902  10.083  1.00  0.00     0.099 C 
ENDBRANCH   1  18
TORSDOF 3
ENDMDL
MODEL 3
REMARK VINA RESULT: -6.135907215      3.297      5.243
REMARK  3 active torsions:
REMARK  status: ('A' for Active; 'I' for Inactive)
REMARK    1  A    between atoms: S1_2  and  C2_3 
REMARK    2  A    between atoms: C4_8  and  C5_9 
REMARK       I    between atoms: C5_9  and  N3_11 
REMARK    3  A    between atoms: N3_11  and  N4_13 
ROOT
HETATM    1  C2  UNL     1      -1.304   6.381  17.236  1.00  0.00     0.147 A 
HETATM    2  N1  UNL     1      -0.397   6.336  16.246  1.00  0.00    -0.324 N 
ATOM      3  H1  UNL     1       0.455   5.789  16.360  1.00  0.00     0.169 HD
HETATM    4  C3  UNL     1      -0.614   7.008  15.112  1.00  0.00     0.139 A 
HETATM    5  N2  UNL     1       0.337   6.963  14.071  1.00  0.00    -0.081 NA
HETATM    6  C4  UNL     1      -1.790   7.777  14.929  1.00  0.00     0.142 A 
HETATM    7  C6  UNL     1      -2.702   7.806  15.956  1.00  0.00     0.266 A 
HETATM    8  O2  UNL     1      -3.749   8.461  15.851  1.00  0.00    -0.267 OA
HETATM    9  N5  UNL     1      -2.419   7.102  17.073  1.00  0.00    -0.303 N 
ATOM     10  H5  UNL     1      -3.094   7.122  17.837  1.00  0.00     0.171 HD
ENDROOT
BRANCH   6  11
HETATM   11  C5  UNL     1      -1.920   8.462  13.666  1.00  0.00     0.278 C 
HETATM   12  O1  UNL     1      -2.809   8.049  12.821  1.00  0.00    -0.266 OA
HETATM   13  N3  UNL     1      -1.158   9.554  13.263  1.00  0.00    -0.272 N 
ATOM     14  H3  UNL     1      -0.442   9.925  13.886  1.00  0.00     0.189 HD
BRANCH  13  15
HETATM   15  N4  UNL     1      -1.369  10.164  11.982  1.00  0.00    -0.342 N 
ATOM     16  H42 UNL     1      -1.287  11.178  11.904  1.00  0.00     0.176 HD
ATOM     17  H41 UNL     1      -1.596   9.598  11.164  1.00  0.00     0.176 HD
ENDBRANCH  13  15
ENDBRANCH   6  11
BRANCH   1  18
HETATM   18  S1  UNL     1      -0.950   5.453  18.730  1.00  0.00    -0.098 SA
HETATM   19  C1  UNL     1      -1.575   3.771  18.468  1.00  0.00     0.099 C 
ENDBRANCH   1  18
TORSDOF 3
ENDMDL
MODEL 4
REMARK VINA RESULT: -5.902542649      3.439      5.606
REMARK  3 active torsions:
REMARK  status: ('A' for Active; 'I' for Inactive)
REMARK    1  A    between atoms: S1_2  and  C2_3 
REMARK    2  A    between atoms: C4_8  and  C5_9 
REMARK       I    between atoms: C5_9  and  N3_11 
REMARK    3  A    between atoms: N3_11  and  N4_13 
ROOT
HETATM    1  C2  UNL     1      -1.464   6.008  17.171  1.00  0.00     0.147 A 
HETATM    2  N1  UNL     1      -1.906   7.276  17.205  1.00  0.00    -0.324 N 
ATOM      3  H1  UNL     1      -2.154   7.706  18.096  1.00  0.00     0.169 HD
HETATM    4  C3  UNL     1      -2.021   7.973  16.072  1.00  0.00     0.139 A 
HETATM    5  N2  UNL     1      -2.485   9.305  16.105  1.00  0.00    -0.081 NA
HETATM    6  C4  UNL     1      -1.684   7.400  14.821  1.00  0.00     0.142 A 
HETATM    7  C6  UNL     1      -1.234   6.101  14.812  1.00  0.00     0.266 A 
HETATM    8  O2  UNL     1      -0.925   5.548  13.747  1.00  0.00    -0.267 OA
HETATM    9  N5  UNL     1      -1.143   5.456  15.995  1.00  0.00    -0.303 N 
ATOM     10  H5  UNL     1      -0.809   4.492  15.992  1.00  0.00     0.171 HD
ENDROOT
BRANCH   6  11
HETATM   11  C5  UNL     1      -1.847   8.243  13.661  1.00  0.00     0.278 C 
HETATM   12  O1  UNL     1      -2.931   8.139  12.963  1.00  0.00    -0.266 OA
HETATM   13  N3  UNL     1      -0.923   9.181  13.215  1.00  0.00    -0.272 N 
ATOM     14  H3  UNL     1      -0.049   9.309  13.725  1.00  0.00     0.189 HD
BRANCH  13  15
HETATM   15  N4  UNL     1      -1.184   9.972  12.046  1.00  0.00    -0.342 N 
ATOM     16  H42 UNL     1      -0.768  10.900  11.982  1.00  0.00     0.176 HD
ATOM     17  H41 UNL     1      -1.773   9.614  11.295  1.00  0.00     0.176 HD
ENDBRANCH  13  15
ENDBRANCH   6  11
BRANCH   1  18
HETATM   18  S1  UNL     1      -1.334   5.131  18.730  1.00  0.00    -0.098 SA
HETATM   19  C1  UNL     1      -1.364   3.359  18.342  1.00  0.00     0.099 C 
ENDBRANCH   1  18
TORSDOF 3
ENDMDL
MODEL 5
REMARK VINA RESULT: -5.883513118      1.675      1.675
REMARK  3 active torsions:
REMARK  status: ('A' for Active; 'I' for Inactive)
REMARK    1  A    between atoms: S1_2  and  C2_3 
REMARK    2  A    between atoms: C4_8  and  C5_9 
REMARK       I    between atoms: C5_9  and  N3_11 
REMARK    3  A    between atoms: N3_11  and  N4_13 
ROOT
HETATM    1  C2  UNL     1      -1.336   8.873  12.911  1.00  0.00     0.147 A 
HETATM    2  N1  UNL     1      -0.978   7.591  13.093  1.00  0.00    -0.324 N 
ATOM      3  H1  UNL     1      -0.580   7.058  12.320  1.00  0.00     0.169 HD
HETATM    4  C3  UNL     1      -1.142   7.015  14.287  1.00  0.00     0.139 A 
HETATM    5  N2  UNL     1      -0.767   5.670  14.481  1.00  0.00    -0.081 NA
HETATM    6  C4  UNL     1      -1.693   7.733  15.378  1.00  0.00     0.142 A 
HETATM    7  C6  UNL     1      -2.051   9.043  15.167  1.00  0.00     0.266 A 
HETATM    8  O2  UNL     1      -2.538   9.719  16.084  1.00  0.00    -0.267 OA
HETATM    9  N5  UNL     1      -1.857   9.561  13.934  1.00  0.00    -0.303 N 
ATOM     10  H5  UNL     1      -2.122  10.533  13.774  1.00  0.00     0.171 HD
ENDROOT
BRANCH   6  11
HETATM   11  C5  UNL     1      -1.826   7.013  16.621  1.00  0.00     0.278 C 
HETATM   12  O1  UNL     1      -2.988   6.551  16.951  1.00  0.00    -0.266 OA
HETATM   13  N3  UNL     1      -0.793   6.763  17.518  1.00  0.00    -0.272 N 
ATOM     14  H3  UNL     1       0.146   7.102  17.311  1.00  0.00     0.189 HD
BRANCH  13  15
HETATM   15  N4  UNL     1      -1.034   6.034  18.730  1.00  0.00    -0.342 N 
ATOM     16  H42 UNL     1      -1.267   5.043  18.666  1.00  0.00     0.176 HD
ATOM     17  H41 UNL     1      -0.974   6.495  19.638  1.00  0.00     0.176 HD
ENDBRANCH  13  15
ENDBRANCH   6  11
BRANCH   1  18
HETATM   18  S1  UNL     1      -1.087   9.583  11.283  1.00  0.00    -0.098 SA
HETATM   19  C1  UNL     1      -2.658   9.419  10.390  1.00  0.00     0.099 C 
ENDBRANCH   1  18
TORSDOF 3
ENDMDL
