MODEL 1
REMARK VINA RESULT: -6.765463098      0.000      0.000
REMARK  4 active torsions:
REMARK  status: ('A' for Active; 'I' for Inactive)
REMARK    1  A    between atoms: O1_3  and  C2_4 
REMARK    2  A    between atoms: C2_4  and  C3_6 
REMARK    3  A    between atoms: C4_7  and  O3_8 
REMARK    4  A    between atoms: C5_12  and  N3_13 
ROOT
HETATM    1  N1  UNL     1      -0.918   6.255  18.109  1.00  0.00    -0.163 NA
HETATM    2  C1  UNL     1      -1.999   6.172  17.700  1.00  0.00     0.237 C 
HETATM    3  O1  UNL     1      -3.292   6.085  17.233  1.00  0.00    -0.200 OA
ENDROOT
BRANCH   3   4
HETATM    4  C2  UNL     1      -3.847   7.041  16.394  1.00  0.00     0.317 C 
HETATM    5  O2  UNL     1      -5.070   7.305  16.589  1.00  0.00    -0.258 OA
BRANCH   4   6
HETATM    6  C3  UNL     1      -3.088   7.707  15.350  1.00  0.00     0.160 A 
HETATM    7  C4  UNL     1      -2.622   8.992  15.466  1.00  0.00     0.177 A 
HETATM    8  N2  UNL     1      -1.918   9.612  14.500  1.00  0.00    -0.170 N 
HETATM    9  C5  UNL     1      -1.669   8.924  13.372  1.00  0.00     0.680 A 
ATOM     10  H2  UNL     1      -1.587  10.569  14.619  1.00  0.00     0.186 HD
HETATM   11  N4  UNL     1      -2.109   7.658  13.212  1.00  0.00    -0.155 N 
HETATM   12  C6  UNL     1      -2.820   7.026  14.185  1.00  0.00     0.280 A 
ATOM     13  H4  UNL     1      -1.903   7.164  12.344  1.00  0.00     0.187 HD
HETATM   14  O4  UNL     1      -3.212   5.839  13.994  1.00  0.00    -0.266 OA
BRANCH   7  15
HETATM   15  O3  UNL     1      -2.896   9.671  16.641  1.00  0.00    -0.345 OA
ATOM     16  H3  UNL     1      -3.093  10.598  16.578  1.00  0.00     0.219 HD
ENDBRANCH   7  15
BRANCH   9  17
HETATM   17  N3  UNL     1      -1.000   9.484  12.426  1.00  0.00    -0.234 N 
ATOM     18  H32 UNL     1      -0.953  10.502  12.381  1.00  0.00     0.174 HD
ATOM     19  H31 UNL     1      -0.527   8.901  11.736  1.00  0.00     0.174 HD
ENDBRANCH   9  17
ENDBRANCH   4   6
ENDBRANCH   3   4
TORSDOF 4
ENDMDL
MODEL 2
REMARK VINA RESULT: -6.584323933      1.589      4.050
REMARK  4 active torsions:
REMARK  status: ('A' for Active; 'I' for Inactive)
REMARK    1  A    between atoms: O1_3  and  C2_4 
REMARK    2  A    between atoms: C2_4  and  C3_6 
REMARK    3  A    between atoms: C4_7  and  O3_8 
REMARK    4  A    between atoms: C5_12  and  N3_13 
ROOT
HETATM    1  N1  UNL     1      -2.416   7.805  13.092  1.00  0.00    -0.163 NA
HETATM    2  C1  UNL     1      -3.223   7.330  13.776  1.00  0.00     0.237 C 
HETATM    3  O1  UNL     1      -4.169   6.746  14.587  1.00  0.00    -0.200 OA
ENDROOT
BRANCH   3   4
HETATM    4  C2  UNL     1      -4.065   6.743  15.971  1.00  0.00     0.317 C 
HETATM    5  O2  UNL     1      -5.100   7.108  16.604  1.00  0.00    -0.258 OA
BRANCH   4   6
HETATM    6  C3  UNL     1      -2.853   6.349  16.668  1.00  0.00     0.160 A 
HETATM    7  C4  UNL     1      -1.892   7.244  17.064  1.00  0.00     0.177 A 
HETATM    8  N2  UNL     1      -0.768   6.883  17.710  1.00  0.00    -0.170 N 
HETATM    9  C5  UNL     1      -0.595   5.576  17.974  1.00  0.00     0.680 A 
ATOM     10  H2  UNL     1      -0.073   7.576  17.989  1.00  0.00     0.186 HD
HETATM   11  N4  UNL     1      -1.513   4.659  17.604  1.00  0.00    -0.155 N 
HETATM   12  C6  UNL     1      -2.651   5.019  16.950  1.00  0.00     0.280 A 
ATOM     13  H4  UNL     1      -1.350   3.675  17.820  1.00  0.00     0.187 HD
HETATM   14  O4  UNL     1      -3.485   4.126  16.622  1.00  0.00    -0.266 OA
BRANCH   7  15
HETATM   15  O3  UNL     1      -2.103   8.582  16.776  1.00  0.00    -0.345 OA
ATOM     16  H3  UNL     1      -2.568   8.791  15.974  1.00  0.00     0.219 HD
ENDBRANCH   7  15
BRANCH   9  17
HETATM   17  N3  UNL     1       0.468   5.193  18.591  1.00  0.00    -0.234 N 
ATOM     18  H32 UNL     1       0.650   5.535  19.534  1.00  0.00     0.174 HD
ATOM     19  H31 UNL     1       1.111   4.551  18.127  1.00  0.00     0.174 HD
ENDBRANCH   9  17
ENDBRANCH   4   6
ENDBRANCH   3   4
TORSDOF 4
ENDMDL
MODEL 3
REMARK VINA RESULT: -6.333590174      0.884      2.339
REMARK  4 active torsions:
REMARK  status: ('A' for Active; 'I' for Inactive)
REMARK    1  A    between atoms: O1_3  and  C2_4 
REMARK    2  A    between atoms: C2_4  and  C3_6 
REMARK    3  A    between atoms: C4_7  and  O3_8 
REMARK    4  A    between atoms: C5_12  and  N3_13 
ROOT
HETATM    1  N1  UNL     1      -2.463   3.957  17.614  1.00  0.00    -0.163 NA
HETATM    2  C1  UNL     1      -2.647   5.097  17.517  1.00  0.00     0.237 C 
HETATM    3  O1  UNL     1      -2.844   6.453  17.391  1.00  0.00    -0.200 OA
ENDROOT
BRANCH   3   4
HETATM    4  C2  UNL     1      -3.522   7.011  16.316  1.00  0.00     0.317 C 
HETATM    5  O2  UNL     1      -4.785   6.922  16.352  1.00  0.00    -0.258 OA
BRANCH   4   6
HETATM    6  C3  UNL     1      -2.843   7.660  15.209  1.00  0.00     0.160 A 
HETATM    7  C4  UNL     1      -2.571   7.028  14.022  1.00  0.00     0.177 A 
HETATM    8  N2  UNL     1      -1.942   7.626  12.993  1.00  0.00    -0.170 N 
HETATM    9  C5  UNL     1      -1.569   8.908  13.153  1.00  0.00     0.680 A 
ATOM     10  H2  UNL     1      -1.756   7.126  12.125  1.00  0.00     0.186 HD
HETATM   11  N4  UNL     1      -1.814   9.571  14.303  1.00  0.00    -0.155 N 
HETATM   12  C6  UNL     1      -2.449   8.971  15.346  1.00  0.00     0.280 A 
ATOM     13  H4  UNL     1      -1.517  10.543  14.391  1.00  0.00     0.187 HD
HETATM   14  O4  UNL     1      -2.660   9.630  16.405  1.00  0.00    -0.266 OA
BRANCH   7  15
HETATM   15  O3  UNL     1      -2.971   5.708  13.892  1.00  0.00    -0.345 OA
ATOM     16  H3  UNL     1      -2.650   5.224  13.140  1.00  0.00     0.219 HD
ENDBRANCH   7  15
BRANCH   9  17
HETATM   17  N3  UNL     1      -0.965   9.514  12.192  1.00  0.00    -0.234 N 
ATOM     18  H32 UNL     1      -0.291   9.001  11.622  1.00  0.00     0.174 HD
ATOM     19  H31 UNL     1      -1.169  10.497  12.013  1.00  0.00     0.174 HD
ENDBRANCH   9  17
ENDBRANCH   4   6
ENDBRANCH   3   4
TORSDOF 4
ENDMDL
MODEL 4
REMARK VINA RESULT: -6.321980062      4.887      7.052
REMARK  4 active torsions:
REMARK  status: ('A' for Active; 'I' for Inactive)
REMARK    1  A    between atoms: O1_3  and  C2_4 
REMARK    2  A    between atoms: C2_4  and  C3_6 
REMARK    3  A    between atoms: C4_7  and  O3_8 
REMARK    4  A    between atoms: C5_12  and  N3_13 
ROOT
HETATM    1  N1  UNL     1      -3.798  10.273   8.619  1.00  0.00    -0.163 NA
HETATM    2  C1  UNL     1      -2.681  10.163   8.334  1.00  0.00     0.237 C 
HETATM    3  O1  UNL     1      -1.352  10.056   7.991  1.00  0.00    -0.200 OA
ENDROOT
BRANCH   3   4
HETATM    4  C2  UNL     1      -0.331  10.136   8.928  1.00  0.00     0.317 C 
HETATM    5  O2  UNL     1       0.596  10.958   8.667  1.00  0.00    -0.258 OA
BRANCH   4   6
HETATM    6  C3  UNL     1      -0.310   9.335  10.139  1.00  0.00     0.160 A 
HETATM    7  C4  UNL     1      -0.738   9.803  11.356  1.00  0.00     0.177 A 
HETATM    8  N2  UNL     1      -0.720   9.063  12.480  1.00  0.00    -0.170 N 
HETATM    9  C5  UNL     1      -0.257   7.804  12.389  1.00  0.00     0.680 A 
ATOM     10  H2  UNL     1      -1.046   9.444  13.368  1.00  0.00     0.186 HD
HETATM   11  N4  UNL     1       0.176   7.300  11.214  1.00  0.00    -0.155 N 
HETATM   12  C6  UNL     1       0.160   8.044  10.074  1.00  0.00     0.280 A 
ATOM     13  H4  UNL     1       0.521   6.341  11.180  1.00  0.00     0.187 HD
HETATM   14  O4  UNL     1       0.574   7.531   8.995  1.00  0.00    -0.266 OA
BRANCH   7  15
HETATM   15  O3  UNL     1      -1.210  11.104  11.412  1.00  0.00    -0.345 OA
ATOM     16  H3  UNL     1      -0.685  11.741  11.883  1.00  0.00     0.219 HD
ENDBRANCH   7  15
BRANCH   9  17
HETATM   17  N3  UNL     1      -0.224   7.066  13.442  1.00  0.00    -0.234 N 
ATOM     18  H32 UNL     1      -0.588   7.434  14.322  1.00  0.00     0.174 HD
ATOM     19  H31 UNL     1       0.164   6.125  13.382  1.00  0.00     0.174 HD
ENDBRANCH   9  17
ENDBRANCH   4   6
ENDBRANCH   3   4
TORSDOF 4
ENDMDL
MODEL 5
REMARK VINA RESULT: -6.204090274      2.153      2.686
REMARK  4 active torsions:
REMARK  status: ('A' for Active; 'I' for Inactive)
REMARK    1  A    between atoms: O1_3  and  C2_4 
REMARK    2  A    between atoms: C2_4  and  C3_6 
REMARK    3  A    between atoms: C4_7  and  O3_8 
REMARK    4  A    between atoms: C5_12  and  N3_13 
ROOT
HETATM    1  N1  UNL     1      -1.069   2.761  18.506  1.00  0.00    -0.163 NA
HETATM    2  C1  UNL     1      -1.859   3.603  18.399  1.00  0.00     0.237 C 
HETATM    3  O1  UNL     1      -2.778   4.619  18.270  1.00  0.00    -0.200 OA
ENDROOT
BRANCH   3   4
HETATM    4  C2  UNL     1      -3.225   5.069  17.036  1.00  0.00     0.317 C 
HETATM    5  O2  UNL     1      -3.881   4.233  16.347  1.00  0.00    -0.258 OA
BRANCH   4   6
HETATM    6  C3  UNL     1      -2.964   6.411  16.546  1.00  0.00     0.160 A 
HETATM    7  C4  UNL     1      -3.902   7.413  16.570  1.00  0.00     0.177 A 
HETATM    8  N2  UNL     1      -3.664   8.658  16.117  1.00  0.00    -0.170 N 
HETATM    9  C5  UNL     1      -2.441   8.916  15.621  1.00  0.00     0.680 A 
ATOM     10  H2  UNL     1      -4.385   9.378  16.150  1.00  0.00     0.186 HD
HETATM   11  N4  UNL     1      -1.487   7.963  15.576  1.00  0.00    -0.155 N 
HETATM   12  C6  UNL     1      -1.722   6.703  16.032  1.00  0.00     0.280 A 
ATOM     13  H4  UNL     1      -0.570   8.193  15.193  1.00  0.00     0.187 HD
HETATM   14  O4  UNL     1      -0.799   5.840  15.972  1.00  0.00    -0.266 OA
BRANCH   7  15
HETATM   15  O3  UNL     1      -5.150   7.111  17.089  1.00  0.00    -0.345 OA
ATOM     16  H3  UNL     1      -5.839   6.888  16.474  1.00  0.00     0.219 HD
ENDBRANCH   7  15
BRANCH   9  17
HETATM   17  N3  UNL     1      -2.177  10.096  15.179  1.00  0.00    -0.234 N 
ATOM     18  H32 UNL     1      -2.712  10.892  15.525  1.00  0.00     0.174 HD
ATOM     19  H31 UNL     1      -1.435  10.216  14.489  1.00  0.00     0.174 HD
ENDBRANCH   9  17
ENDBRANCH   4   6
ENDBRANCH   3   4
TORSDOF 4
ENDMDL
