MODEL 1
REMARK VINA RESULT: -7.658964739      0.000      0.000
REMARK  6 active torsions:
REMARK  status: ('A' for Active; 'I' for Inactive)
REMARK    1  A    between atoms: N1_2  and  C2_4 
REMARK    2  A    between atoms: C3_7  and  C4_8 
REMARK    3  A    between atoms: C4_8  and  N3_9 
REMARK    4  A    between atoms: C4_8  and  C5_13 
REMARK    5  A    between atoms: C5_13  and  C6_14 
REMARK    6  A    between atoms: C9_21  and  C10_22 
REMARK       I    between atoms: C10_22  and  N6_24 
ROOT
HETATM    1  C4  UNL     1      -1.072   6.894  12.958  1.00  0.00     0.238 C 
ENDROOT
BRANCH   1   2
HETATM    2  C3  UNL     1      -0.777   7.874  11.838  1.00  0.00     0.055 A 
HETATM    3  N2  UNL     1      -0.769   9.175  11.965  1.00  0.00    -0.338 N 
HETATM    4  C2  UNL     1      -0.486   9.920  10.895  1.00  0.00     0.144 A 
ATOM      5  H2  UNL     1      -0.974   9.612  12.864  1.00  0.00     0.168 HD
HETATM    6  S1  UNL     1      -0.224   8.764   9.673  1.00  0.00    -0.057 SA
HETATM    7  C12 UNL     1      -0.491   7.357  10.595  1.00  0.00     0.007 A 
HETATM    8  C13 UNL     1      -0.432   5.911  10.161  1.00  0.00     0.058 C 
BRANCH   4   9
HETATM    9  N1  UNL     1      -0.414  11.216  10.767  1.00  0.00    -0.375 N 
HETATM   10  C1  UNL     1       0.516  11.766   9.828  1.00  0.00     0.148 C 
ATOM     11  H1  UNL     1      -1.010  11.827  11.325  1.00  0.00     0.161 HD
ENDBRANCH   4   9
ENDBRANCH   1   2
BRANCH   1  12
HETATM   12  N3  UNL     1      -0.166   7.164  14.050  1.00  0.00    -0.069 N 
ATOM     13  H33 UNL     1      -0.651   7.315  14.935  1.00  0.00     0.275 HD
ATOM     14  H32 UNL     1       0.373   6.343  14.325  1.00  0.00     0.275 HD
ATOM     15  H31 UNL     1       0.427   7.952  13.789  1.00  0.00     0.275 HD
ENDBRANCH   1  12
BRANCH   1  16
HETATM   16  C5  UNL     1      -2.502   7.120  13.364  1.00  0.00     0.082 C 
BRANCH  16  17
HETATM   17  C6  UNL     1      -2.798   6.827  14.773  1.00  0.00     0.002 A 
HETATM   18  C7  UNL     1      -2.820   7.737  15.805  1.00  0.00     0.030 A 
HETATM   19  C8  UNL     1      -2.611   9.211  15.797  1.00  0.00     0.070 C 
HETATM   20  N4  UNL     1      -3.101   7.073  16.939  1.00  0.00    -0.304 N 
HETATM   21  N5  UNL     1      -3.264   5.792  16.713  1.00  0.00    -0.295 N 
ATOM     22  H4  UNL     1      -3.178   7.510  17.857  1.00  0.00     0.186 HD
HETATM   23  C9  UNL     1      -3.080   5.618  15.369  1.00  0.00     0.124 A 
ATOM     24  H5  UNL     1      -3.484   5.072  17.400  1.00  0.00     0.187 HD
BRANCH  23  25
HETATM   25  C10 UNL     1      -3.164   4.329  14.706  1.00  0.00     0.269 C 
HETATM   26  O1  UNL     1      -4.260   3.774  14.450  1.00  0.00    -0.266 OA
HETATM   27  N6  UNL     1      -1.988   3.651  14.325  1.00  0.00    -0.360 N 
HETATM   28  C11 UNL     1      -2.059   2.355  13.659  1.00  0.00     0.149 C 
ATOM     29  H6  UNL     1      -1.079   4.070  14.518  1.00  0.00     0.162 HD
ENDBRANCH  23  25
ENDBRANCH  16  17
ENDBRANCH   1  16
TORSDOF 6
ENDMDL
MODEL 2
REMARK VINA RESULT: -7.556436965      1.375      1.488
REMARK  6 active torsions:
REMARK  status: ('A' for Active; 'I' for Inactive)
REMARK    1  A    between atoms: N1_2  and  C2_4 
REMARK    2  A    between atoms: C3_7  and  C4_8 
REMARK    3  A    between atoms: C4_8  and  N3_9 
REMARK    4  A    between atoms: C4_8  and  C5_13 
REMARK    5  A    between atoms: C5_13  and  C6_14 
REMARK    6  A    between atoms: C9_21  and  C10_22 
REMARK       I    between atoms: C10_22  and  N6_24 
ROOT
HETATM    1  C4  UNL     1      -0.881   7.604  12.792  1.00  0.00     0.238 C 
ENDROOT
BRANCH   1   2
HETATM    2  C3  UNL     1      -0.862   8.234  11.412  1.00  0.00     0.055 A 
HETATM    3  N2  UNL     1      -1.755   9.076  10.961  1.00  0.00    -0.338 N 
HETATM    4  C2  UNL     1      -1.612   9.559   9.727  1.00  0.00     0.144 A 
ATOM      5  H2  UNL     1      -2.545   9.358  11.542  1.00  0.00     0.168 HD
HETATM    6  S1  UNL     1      -0.183   8.813   9.179  1.00  0.00    -0.057 SA
HETATM    7  C12 UNL     1       0.176   7.901  10.571  1.00  0.00     0.007 A 
HETATM    8  C13 UNL     1       1.334   6.964  10.822  1.00  0.00     0.058 C 
BRANCH   4   9
HETATM    9  N1  UNL     1      -2.355  10.399   9.060  1.00  0.00    -0.375 N 
HETATM   10  C1  UNL     1      -3.367   9.884   8.190  1.00  0.00     0.148 C 
ATOM     11  H1  UNL     1      -2.216  11.405   9.156  1.00  0.00     0.161 HD
ENDBRANCH   4   9
ENDBRANCH   1   2
BRANCH   1  12
HETATM   12  N3  UNL     1      -0.105   8.435  13.684  1.00  0.00    -0.069 N 
ATOM     13  H33 UNL     1      -0.518   8.504  14.614  1.00  0.00     0.275 HD
ATOM     14  H32 UNL     1       0.777   8.001  13.954  1.00  0.00     0.275 HD
ATOM     15  H31 UNL     1       0.024   9.346  13.243  1.00  0.00     0.275 HD
ENDBRANCH   1  12
BRANCH   1  16
HETATM   16  C5  UNL     1      -2.322   7.540  13.217  1.00  0.00     0.082 C 
BRANCH  16  17
HETATM   17  C6  UNL     1      -2.539   7.086  14.597  1.00  0.00     0.002 A 
HETATM   18  C7  UNL     1      -2.643   7.888  15.710  1.00  0.00     0.030 A 
HETATM   19  C8  UNL     1      -2.618   9.370  15.838  1.00  0.00     0.070 C 
HETATM   20  N4  UNL     1      -2.808   7.094  16.782  1.00  0.00    -0.304 N 
HETATM   21  N5  UNL     1      -2.819   5.828  16.440  1.00  0.00    -0.295 N 
ATOM     22  H4  UNL     1      -2.912   7.432  17.739  1.00  0.00     0.186 HD
HETATM   23  C9  UNL     1      -2.653   5.802  15.082  1.00  0.00     0.124 A 
ATOM     24  H5  UNL     1      -2.929   5.026  17.060  1.00  0.00     0.187 HD
BRANCH  23  25
HETATM   25  C10 UNL     1      -2.598   4.578  14.303  1.00  0.00     0.269 C 
HETATM   26  O1  UNL     1      -3.591   3.826  14.157  1.00  0.00    -0.266 OA
HETATM   27  N6  UNL     1      -1.395   4.192  13.675  1.00  0.00    -0.360 N 
HETATM   28  C11 UNL     1      -1.325   2.965  12.890  1.00  0.00     0.149 C 
ATOM     29  H6  UNL     1      -0.565   4.777  13.772  1.00  0.00     0.162 HD
ENDBRANCH  23  25
ENDBRANCH  16  17
ENDBRANCH   1  16
TORSDOF 6
ENDMDL
MODEL 3
REMARK VINA RESULT: -7.484103525      3.646      6.302
REMARK  6 active torsions:
REMARK  status: ('A' for Active; 'I' for Inactive)
REMARK    1  A    between atoms: N1_2  and  C2_4 
REMARK    2  A    between atoms: C3_7  and  C4_8 
REMARK    3  A    between atoms: C4_8  and  N3_9 
REMARK    4  A    between atoms: C4_8  and  C5_13 
REMARK    5  A    between atoms: C5_13  and  C6_14 
REMARK    6  A    between atoms: C9_21  and  C10_22 
REMARK       I    between atoms: C10_22  and  N6_24 
ROOT
HETATM    1  C4  UNL     1       0.531   6.776   9.745  1.00  0.00     0.238 C 
ENDROOT
BRANCH   1   2
HETATM    2  C3  UNL     1       0.761   5.300   9.479  1.00  0.00     0.055 A 
HETATM    3  N2  UNL     1       0.267   4.636   8.466  1.00  0.00    -0.338 N 
HETATM    4  C2  UNL     1       0.556   3.339   8.351  1.00  0.00     0.144 A 
ATOM      5  H2  UNL     1      -0.326   5.101   7.778  1.00  0.00     0.168 HD
HETATM    6  S1  UNL     1       1.548   3.038   9.701  1.00  0.00    -0.057 SA
HETATM    7  C12 UNL     1       1.552   4.606  10.366  1.00  0.00     0.007 A 
HETATM    8  C13 UNL     1       2.243   5.109  11.612  1.00  0.00     0.058 C 
BRANCH   4   9
HETATM    9  N1  UNL     1       0.193   2.473   7.445  1.00  0.00    -0.375 N 
HETATM   10  C1  UNL     1       1.048   2.255   6.319  1.00  0.00     0.148 C 
ATOM     11  H1  UNL     1      -0.684   1.962   7.538  1.00  0.00     0.161 HD
ENDBRANCH   4   9
ENDBRANCH   1   2
BRANCH   1  12
HETATM   12  N3  UNL     1       0.659   7.489   8.495  1.00  0.00    -0.069 N 
ATOM     13  H33 UNL     1      -0.007   8.258   8.412  1.00  0.00     0.275 HD
ATOM     14  H32 UNL     1       1.515   8.040   8.444  1.00  0.00     0.275 HD
ATOM     15  H31 UNL     1       0.579   6.817   7.731  1.00  0.00     0.275 HD
ENDBRANCH   1  12
BRANCH   1  16
HETATM   16  C5  UNL     1      -0.857   6.902  10.309  1.00  0.00     0.082 C 
BRANCH  16  17
HETATM   17  C6  UNL     1      -0.952   7.692  11.544  1.00  0.00     0.002 A 
HETATM   18  C7  UNL     1      -1.055   7.192  12.822  1.00  0.00     0.030 A 
HETATM   19  C8  UNL     1      -1.051   5.787  13.312  1.00  0.00     0.070 C 
HETATM   20  N4  UNL     1      -1.150   8.231  13.669  1.00  0.00    -0.304 N 
HETATM   21  N5  UNL     1      -1.115   9.373  13.027  1.00  0.00    -0.295 N 
ATOM     22  H4  UNL     1      -1.237   8.142  14.681  1.00  0.00     0.186 HD
HETATM   23  C9  UNL     1      -0.992   9.059  11.701  1.00  0.00     0.124 A 
ATOM     24  H5  UNL     1      -1.169  10.307  13.434  1.00  0.00     0.187 HD
BRANCH  23  25
HETATM   25  C10 UNL     1      -0.928  10.051  10.643  1.00  0.00     0.269 C 
HETATM   26  O1  UNL     1      -1.940  10.407   9.991  1.00  0.00    -0.266 OA
HETATM   27  N6  UNL     1       0.302  10.655  10.312  1.00  0.00    -0.360 N 
HETATM   28  C11 UNL     1       0.380  11.653   9.251  1.00  0.00     0.149 C 
ATOM     29  H6  UNL     1       1.147  10.390  10.819  1.00  0.00     0.162 HD
ENDBRANCH  23  25
ENDBRANCH  16  17
ENDBRANCH   1  16
TORSDOF 6
ENDMDL
MODEL 4
REMARK VINA RESULT: -7.462186608      2.430      2.631
REMARK  6 active torsions:
REMARK  status: ('A' for Active; 'I' for Inactive)
REMARK    1  A    between atoms: N1_2  and  C2_4 
REMARK    2  A    between atoms: C3_7  and  C4_8 
REMARK    3  A    between atoms: C4_8  and  N3_9 
REMARK    4  A    between atoms: C4_8  and  C5_13 
REMARK    5  A    between atoms: C5_13  and  C6_14 
REMARK    6  A    between atoms: C9_21  and  C10_22 
REMARK       I    between atoms: C10_22  and  N6_24 
ROOT
HETATM    1  C4  UNL     1      -0.934   8.347  13.452  1.00  0.00     0.238 C 
ENDROOT
BRANCH   1   2
HETATM    2  C3  UNL     1      -0.905   8.660  11.968  1.00  0.00     0.055 A 
HETATM    3  N2  UNL     1      -1.738   9.460  11.356  1.00  0.00    -0.338 N 
HETATM    4  C2  UNL     1      -1.592   9.651  10.044  1.00  0.00     0.144 A 
ATOM      5  H2  UNL     1      -2.484   9.929  11.871  1.00  0.00     0.168 HD
HETATM    6  S1  UNL     1      -0.248   8.682   9.655  1.00  0.00    -0.057 SA
HETATM    7  C12 UNL     1       0.075   8.064  11.208  1.00  0.00     0.007 A 
HETATM    8  C13 UNL     1       1.159   7.105  11.643  1.00  0.00     0.058 C 
BRANCH   4   9
HETATM    9  N1  UNL     1      -2.283  10.389   9.219  1.00  0.00    -0.375 N 
HETATM   10  C1  UNL     1      -3.288   9.768   8.413  1.00  0.00     0.148 C 
ATOM     11  H1  UNL     1      -2.109  11.392   9.149  1.00  0.00     0.161 HD
ENDBRANCH   4   9
ENDBRANCH   1   2
BRANCH   1  12
HETATM   12  N3  UNL     1      -1.424   9.510  14.154  1.00  0.00    -0.069 N 
ATOM     13  H33 UNL     1      -0.685  10.010  14.649  1.00  0.00     0.275 HD
ATOM     14  H32 UNL     1      -1.702  10.262  13.523  1.00  0.00     0.275 HD
ATOM     15  H31 UNL     1      -2.181   9.219  14.773  1.00  0.00     0.275 HD
ENDBRANCH   1  12
BRANCH   1  16
HETATM   16  C5  UNL     1      -1.857   7.173  13.627  1.00  0.00     0.082 C 
BRANCH  16  17
HETATM   17  C6  UNL     1      -1.822   6.552  14.959  1.00  0.00     0.002 A 
HETATM   18  C7  UNL     1      -2.804   6.635  15.920  1.00  0.00     0.030 A 
HETATM   19  C8  UNL     1      -4.136   7.296  15.884  1.00  0.00     0.070 C 
HETATM   20  N4  UNL     1      -2.383   5.961  17.003  1.00  0.00    -0.304 N 
HETATM   21  N5  UNL     1      -1.193   5.444  16.811  1.00  0.00    -0.295 N 
ATOM     22  H4  UNL     1      -2.920   5.863  17.865  1.00  0.00     0.186 HD
HETATM   23  C9  UNL     1      -0.826   5.801  15.542  1.00  0.00     0.124 A 
ATOM     24  H5  UNL     1      -0.652   4.889  17.472  1.00  0.00     0.187 HD
BRANCH  23  25
HETATM   25  C10 UNL     1       0.442   5.434  14.939  1.00  0.00     0.269 C 
HETATM   26  O1  UNL     1       1.486   6.111  15.099  1.00  0.00    -0.266 OA
HETATM   27  N6  UNL     1       0.535   4.278  14.136  1.00  0.00    -0.360 N 
HETATM   28  C11 UNL     1       1.803   3.897  13.524  1.00  0.00     0.149 C 
ATOM     29  H6  UNL     1      -0.293   3.703  13.981  1.00  0.00     0.162 HD
ENDBRANCH  23  25
ENDBRANCH  16  17
ENDBRANCH   1  16
TORSDOF 6
ENDMDL
MODEL 5
REMARK VINA RESULT: -7.426905368      3.987      6.340
REMARK  6 active torsions:
REMARK  status: ('A' for Active; 'I' for Inactive)
REMARK    1  A    between atoms: N1_2  and  C2_4 
REMARK    2  A    between atoms: C3_7  and  C4_8 
REMARK    3  A    between atoms: C4_8  and  N3_9 
REMARK    4  A    between atoms: C4_8  and  C5_13 
REMARK    5  A    between atoms: C5_13  and  C6_14 
REMARK    6  A    between atoms: C9_21  and  C10_22 
REMARK       I    between atoms: C10_22  and  N6_24 
ROOT
HETATM    1  C4  UNL     1       0.614   6.470   9.779  1.00  0.00     0.238 C 
ENDROOT
BRANCH   1   2
HETATM    2  C3  UNL     1       0.865   5.011   9.447  1.00  0.00     0.055 A 
HETATM    3  N2  UNL     1       0.326   4.369   8.442  1.00  0.00    -0.338 N 
HETATM    4  C2  UNL     1       0.640   3.086   8.263  1.00  0.00     0.144 A 
ATOM      5  H2  UNL     1      -0.320   4.841   7.809  1.00  0.00     0.168 HD
HETATM    6  S1  UNL     1       1.721   2.766   9.538  1.00  0.00    -0.057 SA
HETATM    7  C12 UNL     1       1.727   4.309  10.258  1.00  0.00     0.007 A 
HETATM    8  C13 UNL     1       2.482   4.788  11.476  1.00  0.00     0.058 C 
BRANCH   4   9
HETATM    9  N1  UNL     1       0.244   2.242   7.350  1.00  0.00    -0.375 N 
HETATM   10  C1  UNL     1       1.194   1.764   6.393  1.00  0.00     0.148 C 
ATOM     11  H1  UNL     1      -0.726   1.928   7.319  1.00  0.00     0.161 HD
ENDBRANCH   4   9
ENDBRANCH   1   2
BRANCH   1  12
HETATM   12  N3  UNL     1       0.415   7.191   8.543  1.00  0.00    -0.069 N 
ATOM     13  H33 UNL     1       0.150   6.580   7.770  1.00  0.00     0.275 HD
ATOM     14  H32 UNL     1      -0.424   7.770   8.558  1.00  0.00     0.275 HD
ATOM     15  H31 UNL     1       1.259   7.729   8.345  1.00  0.00     0.275 HD
ENDBRANCH   1  12
BRANCH   1  16
HETATM   16  C5  UNL     1      -0.616   6.512  10.642  1.00  0.00     0.082 C 
BRANCH  16  17
HETATM   17  C6  UNL     1      -0.691   7.660  11.555  1.00  0.00     0.002 A 
HETATM   18  C7  UNL     1      -0.376   7.654  12.895  1.00  0.00     0.030 A 
HETATM   19  C8  UNL     1       0.151   6.563  13.758  1.00  0.00     0.070 C 
HETATM   20  N4  UNL     1      -0.605   8.885  13.381  1.00  0.00    -0.304 N 
HETATM   21  N5  UNL     1      -1.048   9.692  12.447  1.00  0.00    -0.295 N 
ATOM     22  H4  UNL     1      -0.454   9.158  14.353  1.00  0.00     0.186 HD
HETATM   23  C9  UNL     1      -1.108   8.947  11.301  1.00  0.00     0.124 A 
ATOM     24  H5  UNL     1      -1.297  10.675  12.553  1.00  0.00     0.187 HD
BRANCH  23  25
HETATM   25  C10 UNL     1      -1.564   9.470  10.026  1.00  0.00     0.269 C 
HETATM   26  O1  UNL     1      -0.818  10.132   9.264  1.00  0.00    -0.266 OA
HETATM   27  N6  UNL     1      -2.889   9.244   9.600  1.00  0.00    -0.360 N 
HETATM   28  C11 UNL     1      -3.359   9.764   8.321  1.00  0.00     0.149 C 
ATOM     29  H6  UNL     1      -3.525   8.712  10.194  1.00  0.00     0.162 HD
ENDBRANCH  23  25
ENDBRANCH  16  17
ENDBRANCH   1  16
TORSDOF 6
ENDMDL
