MODEL 1
REMARK VINA RESULT: -7.658677396      0.000      0.000
REMARK  7 active torsions:
REMARK  status: ('A' for Active; 'I' for Inactive)
REMARK    1  A    between atoms: O1_2  and  C2_3 
REMARK    2  A    between atoms: C2_3  and  C3_5 
REMARK    3  A    between atoms: C6_8  and  C7_9 
REMARK    4  A    between atoms: C9_11  and  C11_13 
REMARK    5  A    between atoms: C11_13  and  C12_19 
REMARK    6  A    between atoms: N1_14  and  N2_16 
REMARK    7  A    between atoms: C13_22  and  O5_24 
ROOT
HETATM    1  C7  UNL     1      -1.432   6.902  13.050  1.00  0.00    -0.068 C 
HETATM    2  C8  UNL     1      -2.684   7.775  13.154  1.00  0.00     0.044 C 
HETATM    3  C9  UNL     1      -0.465   7.356  12.317  1.00  0.00    -0.025 C 
HETATM    4  C10 UNL     1       0.902   6.759  12.171  1.00  0.00     0.051 C 
ENDROOT
BRANCH   1   5
HETATM    5  C6  UNL     1      -1.487   5.738  13.889  1.00  0.00     0.050 C 
HETATM    6  C5  UNL     1      -2.643   4.884  14.130  1.00  0.00     0.013 C 
HETATM    7  C4  UNL     1      -2.185   3.932  15.283  1.00  0.00     0.018 C 
HETATM    8  C3  UNL     1      -1.024   4.631  15.861  1.00  0.00     0.120 C 
HETATM    9  C13 UNL     1      -1.091   6.045  15.359  1.00  0.00     0.074 C 
HETATM   10  C14 UNL     1      -2.184   6.822  16.037  1.00  0.00     0.047 C 
BRANCH   8  11
HETATM   11  C2  UNL     1      -0.938   4.555  17.337  1.00  0.00     0.265 C 
HETATM   12  O2  UNL     1      -1.758   3.828  17.950  1.00  0.00    -0.265 OA
BRANCH  11  13
HETATM   13  O1  UNL     1       0.021   5.265  18.016  1.00  0.00    -0.326 OA
HETATM   14  C1  UNL     1      -0.400   5.932  19.213  1.00  0.00     0.213 C 
ENDBRANCH  11  13
ENDBRANCH   8  11
BRANCH   9  15
HETATM   15  O5  UNL     1       0.108   6.644  15.516  1.00  0.00    -0.389 OA
ATOM     16  H5  UNL     1       0.395   6.556  16.418  1.00  0.00     0.210 HD
ENDBRANCH   9  15
ENDBRANCH   1   5
BRANCH   3  17
HETATM   17  C11 UNL     1      -0.650   8.522  11.414  1.00  0.00     0.130 C 
HETATM   18  N1  UNL     1      -0.666   9.738  11.812  1.00  0.00    -0.301 N 
ATOM     19  H1  UNL     1      -0.542   9.879  12.814  1.00  0.00     0.186 HD
BRANCH  18  20
HETATM   20  N2  UNL     1      -0.827  10.862  11.073  1.00  0.00    -0.344 N 
ATOM     21  H22 UNL     1      -1.606  10.832  10.416  1.00  0.00     0.176 HD
ATOM     22  H21 UNL     1      -0.274  11.719  11.095  1.00  0.00     0.176 HD
ENDBRANCH  18  20
BRANCH  17  23
HETATM   23  C12 UNL     1      -0.883   8.378   9.963  1.00  0.00     0.228 C 
HETATM   24  O3  UNL     1      -2.071   8.578   9.489  1.00  0.00    -0.643 OA
HETATM   25  O4  UNL     1       0.022   8.042   9.000  1.00  0.00    -0.643 OA
ENDBRANCH  17  23
ENDBRANCH   3  17
TORSDOF 7
ENDMDL
MODEL 2
REMARK VINA RESULT: -7.463406164      2.218      3.173
REMARK  7 active torsions:
REMARK  status: ('A' for Active; 'I' for Inactive)
REMARK    1  A    between atoms: O1_2  and  C2_3 
REMARK    2  A    between atoms: C2_3  and  C3_5 
REMARK    3  A    between atoms: C6_8  and  C7_9 
REMARK    4  A    between atoms: C9_11  and  C11_13 
REMARK    5  A    between atoms: C11_13  and  C12_19 
REMARK    6  A    between atoms: N1_14  and  N2_16 
REMARK    7  A    between atoms: C13_22  and  O5_24 
ROOT
HETATM    1  C7  UNL     1      -0.303   8.419  11.126  1.00  0.00    -0.068 C 
HETATM    2  C8  UNL     1      -1.112   9.584  11.697  1.00  0.00     0.044 C 
HETATM    3  C9  UNL     1      -0.217   8.346   9.835  1.00  0.00    -0.025 C 
HETATM    4  C10 UNL     1       0.624   7.388   9.048  1.00  0.00     0.051 C 
ENDROOT
BRANCH   1   5
HETATM    5  C6  UNL     1       0.337   7.629  12.140  1.00  0.00     0.050 C 
HETATM    6  C5  UNL     1       0.878   6.283  11.994  1.00  0.00     0.013 C 
HETATM    7  C4  UNL     1       1.234   5.850  13.453  1.00  0.00     0.018 C 
HETATM    8  C3  UNL     1       0.456   6.785  14.286  1.00  0.00     0.120 C 
HETATM    9  C13 UNL     1      -0.570   7.402  13.379  1.00  0.00     0.074 C 
HETATM   10  C14 UNL     1      -1.668   6.432  13.044  1.00  0.00     0.047 C 
BRANCH   8  11
HETATM   11  C2  UNL     1      -0.143   6.175  15.493  1.00  0.00     0.265 C 
HETATM   12  O2  UNL     1      -0.040   4.933  15.653  1.00  0.00    -0.265 OA
BRANCH  11  13
HETATM   13  O1  UNL     1      -0.797   6.954  16.415  1.00  0.00    -0.326 OA
HETATM   14  C1  UNL     1      -2.087   6.498  16.843  1.00  0.00     0.213 C 
ENDBRANCH  11  13
ENDBRANCH   8  11
BRANCH   9  15
HETATM   15  O5  UNL     1      -1.062   8.525  13.943  1.00  0.00    -0.389 OA
ATOM     16  H5  UNL     1      -1.509   8.309  14.753  1.00  0.00     0.210 HD
ENDBRANCH   9  15
ENDBRANCH   1   5
BRANCH   3  17
HETATM   17  C11 UNL     1      -1.066   9.183   8.948  1.00  0.00     0.130 C 
HETATM   18  N1  UNL     1      -2.284   8.914   8.661  1.00  0.00    -0.301 N 
ATOM     19  H1  UNL     1      -2.662   8.066   9.083  1.00  0.00     0.186 HD
BRANCH  18  20
HETATM   20  N2  UNL     1      -3.135   9.608   7.869  1.00  0.00    -0.344 N 
ATOM     21  H22 UNL     1      -3.433  10.506   8.249  1.00  0.00     0.176 HD
ATOM     22  H21 UNL     1      -3.507   9.347   6.956  1.00  0.00     0.176 HD
ENDBRANCH  18  20
BRANCH  17  23
HETATM   23  C12 UNL     1      -0.560  10.394   8.269  1.00  0.00     0.228 C 
HETATM   24  O3  UNL     1       0.066  11.293   8.960  1.00  0.00    -0.643 OA
HETATM   25  O4  UNL     1      -0.667  10.719   6.950  1.00  0.00    -0.643 OA
ENDBRANCH  17  23
ENDBRANCH   3  17
TORSDOF 7
ENDMDL
MODEL 3
REMARK VINA RESULT: -7.392214243      1.972      2.974
REMARK  7 active torsions:
REMARK  status: ('A' for Active; 'I' for Inactive)
REMARK    1  A    between atoms: O1_2  and  C2_3 
REMARK    2  A    between atoms: C2_3  and  C3_5 
REMARK    3  A    between atoms: C6_8  and  C7_9 
REMARK    4  A    between atoms: C9_11  and  C11_13 
REMARK    5  A    between atoms: C11_13  and  C12_19 
REMARK    6  A    between atoms: N1_14  and  N2_16 
REMARK    7  A    between atoms: C13_22  and  O5_24 
ROOT
HETATM    1  C7  UNL     1      -1.061   8.586  11.436  1.00  0.00    -0.068 C 
HETATM    2  C8  UNL     1      -1.365   9.821  12.284  1.00  0.00     0.044 C 
HETATM    3  C9  UNL     1      -0.525   8.794  10.274  1.00  0.00    -0.025 C 
HETATM    4  C10 UNL     1      -0.013   7.752   9.327  1.00  0.00     0.051 C 
ENDROOT
BRANCH   1   5
HETATM    5  C6  UNL     1      -1.327   7.353  12.123  1.00  0.00     0.050 C 
HETATM    6  C5  UNL     1      -2.358   7.111  13.124  1.00  0.00     0.013 C 
HETATM    7  C4  UNL     1      -2.032   5.685  13.677  1.00  0.00     0.018 C 
HETATM    8  C3  UNL     1      -0.631   5.475  13.270  1.00  0.00     0.120 C 
HETATM    9  C13 UNL     1      -0.092   6.828  12.902  1.00  0.00     0.074 C 
HETATM   10  C14 UNL     1       0.151   7.676  14.118  1.00  0.00     0.047 C 
BRANCH   8  11
HETATM   11  C2  UNL     1       0.202   4.786  14.281  1.00  0.00     0.265 C 
HETATM   12  O2  UNL     1       1.388   4.495  13.987  1.00  0.00    -0.265 OA
BRANCH  11  13
HETATM   13  O1  UNL     1      -0.317   4.473  15.513  1.00  0.00    -0.326 OA
HETATM   14  C1  UNL     1       0.509   4.758  16.650  1.00  0.00     0.213 C 
ENDBRANCH  11  13
ENDBRANCH   8  11
BRANCH   9  15
HETATM   15  O5  UNL     1       1.032   6.688  12.168  1.00  0.00    -0.389 OA
ATOM     16  H5  UNL     1       0.883   7.011  11.287  1.00  0.00     0.210 HD
ENDBRANCH   9  15
ENDBRANCH   1   5
BRANCH   3  17
HETATM   17  C11 UNL     1      -0.450  10.154   9.681  1.00  0.00     0.130 C 
HETATM   18  N1  UNL     1       0.312  11.084  10.119  1.00  0.00    -0.301 N 
ATOM     19  H1  UNL     1       0.889  10.842  10.924  1.00  0.00     0.186 HD
BRANCH  18  20
HETATM   20  N2  UNL     1       0.452  12.347   9.651  1.00  0.00    -0.344 N 
ATOM     21  H22 UNL     1      -0.418  12.876   9.587  1.00  0.00     0.176 HD
ATOM     22  H21 UNL     1       1.305  12.824   9.359  1.00  0.00     0.176 HD
ENDBRANCH  18  20
BRANCH  17  23
HETATM   23  C12 UNL     1      -1.296  10.577   8.547  1.00  0.00     0.228 C 
HETATM   24  O3  UNL     1      -0.776  10.659   7.364  1.00  0.00    -0.643 OA
HETATM   25  O4  UNL     1      -2.617  10.917   8.569  1.00  0.00    -0.643 OA
ENDBRANCH  17  23
ENDBRANCH   3  17
TORSDOF 7
ENDMDL
MODEL 4
REMARK VINA RESULT: -7.342735857      1.473      2.212
REMARK  7 active torsions:
REMARK  status: ('A' for Active; 'I' for Inactive)
REMARK    1  A    between atoms: O1_2  and  C2_3 
REMARK    2  A    between atoms: C2_3  and  C3_5 
REMARK    3  A    between atoms: C6_8  and  C7_9 
REMARK    4  A    between atoms: C9_11  and  C11_13 
REMARK    5  A    between atoms: C11_13  and  C12_19 
REMARK    6  A    between atoms: N1_14  and  N2_16 
REMARK    7  A    between atoms: C13_22  and  O5_24 
ROOT
HETATM    1  C7  UNL     1      -0.951   8.081  12.184  1.00  0.00    -0.068 C 
HETATM    2  C8  UNL     1       0.572   8.087  12.324  1.00  0.00     0.044 C 
HETATM    3  C9  UNL     1      -1.450   8.787  11.218  1.00  0.00    -0.025 C 
HETATM    4  C10 UNL     1      -2.886   8.831  10.793  1.00  0.00     0.051 C 
ENDROOT
BRANCH   1   5
HETATM    5  C6  UNL     1      -1.597   7.187  13.103  1.00  0.00     0.050 C 
HETATM    6  C5  UNL     1      -3.031   7.012  13.297  1.00  0.00     0.013 C 
HETATM    7  C4  UNL     1      -3.141   6.099  14.561  1.00  0.00     0.018 C 
HETATM    8  C3  UNL     1      -1.815   6.231  15.193  1.00  0.00     0.120 C 
HETATM    9  C13 UNL     1      -1.173   7.440  14.575  1.00  0.00     0.074 C 
HETATM   10  C14 UNL     1      -1.791   8.714  15.079  1.00  0.00     0.047 C 
BRANCH   8  11
HETATM   11  C2  UNL     1      -1.847   6.295  16.671  1.00  0.00     0.265 C 
HETATM   12  O2  UNL     1      -2.957   6.206  17.253  1.00  0.00    -0.265 OA
BRANCH  11  13
HETATM   13  O1  UNL     1      -0.685   6.450  17.386  1.00  0.00    -0.326 OA
HETATM   14  C1  UNL     1      -0.622   5.793  18.659  1.00  0.00     0.213 C 
ENDBRANCH  11  13
ENDBRANCH   8  11
BRANCH   9  15
HETATM   15  O5  UNL     1       0.157   7.417  14.801  1.00  0.00    -0.389 OA
ATOM     16  H5  UNL     1       0.476   8.301  14.938  1.00  0.00     0.210 HD
ENDBRANCH   9  15
ENDBRANCH   1   5
BRANCH   3  17
HETATM   17  C11 UNL     1      -0.624   9.756  10.452  1.00  0.00     0.130 C 
HETATM   18  N1  UNL     1      -0.296  10.914  10.885  1.00  0.00    -0.301 N 
ATOM     19  H1  UNL     1      -0.639  11.154  11.815  1.00  0.00     0.186 HD
BRANCH  18  20
HETATM   20  N2  UNL     1       0.448  11.863  10.268  1.00  0.00    -0.344 N 
ATOM     21  H22 UNL     1       1.274  12.161  10.788  1.00  0.00     0.176 HD
ATOM     22  H21 UNL     1       0.285  12.308   9.365  1.00  0.00     0.176 HD
ENDBRANCH  18  20
BRANCH  17  23
HETATM   23  C12 UNL     1      -0.140   9.485   9.083  1.00  0.00     0.228 C 
HETATM   24  O3  UNL     1       0.397   8.337   8.816  1.00  0.00    -0.643 OA
HETATM   25  O4  UNL     1      -0.177  10.317   8.003  1.00  0.00    -0.643 OA
ENDBRANCH  17  23
ENDBRANCH   3  17
TORSDOF 7
ENDMDL
MODEL 5
REMARK VINA RESULT: -7.313093510      2.229      3.227
REMARK  7 active torsions:
REMARK  status: ('A' for Active; 'I' for Inactive)
REMARK    1  A    between atoms: O1_2  and  C2_3 
REMARK    2  A    between atoms: C2_3  and  C3_5 
REMARK    3  A    between atoms: C6_8  and  C7_9 
REMARK    4  A    between atoms: C9_11  and  C11_13 
REMARK    5  A    between atoms: C11_13  and  C12_19 
REMARK    6  A    between atoms: N1_14  and  N2_16 
REMARK    7  A    between atoms: C13_22  and  O5_24 
ROOT
HETATM    1  C7  UNL     1      -0.313   8.473  11.117  1.00  0.00    -0.068 C 
HETATM    2  C8  UNL     1      -1.098   9.660  11.677  1.00  0.00     0.044 C 
HETATM    3  C9  UNL     1      -0.237   8.382   9.826  1.00  0.00    -0.025 C 
HETATM    4  C10 UNL     1       0.582   7.399   9.046  1.00  0.00     0.051 C 
ENDROOT
BRANCH   1   5
HETATM    5  C6  UNL     1       0.321   7.686  12.137  1.00  0.00     0.050 C 
HETATM    6  C5  UNL     1       0.900   6.357  11.988  1.00  0.00     0.013 C 
HETATM    7  C4  UNL     1       1.229   5.913  13.451  1.00  0.00     0.018 C 
HETATM    8  C3  UNL     1       0.407   6.818  14.274  1.00  0.00     0.120 C 
HETATM    9  C13 UNL     1      -0.612   7.420  13.348  1.00  0.00     0.074 C 
HETATM   10  C14 UNL     1      -1.675   6.427  12.974  1.00  0.00     0.047 C 
BRANCH   8  11
HETATM   11  C2  UNL     1      -0.208   6.177  15.458  1.00  0.00     0.265 C 
HETATM   12  O2  UNL     1      -0.753   6.907  16.322  1.00  0.00    -0.265 OA
BRANCH  11  13
HETATM   13  O1  UNL     1      -0.180   4.812  15.602  1.00  0.00    -0.326 OA
HETATM   14  C1  UNL     1       0.449   4.304  16.786  1.00  0.00     0.213 C 
ENDBRANCH  11  13
ENDBRANCH   8  11
BRANCH   9  15
HETATM   15  O5  UNL     1      -1.146   8.524  13.913  1.00  0.00    -0.389 OA
ATOM     16  H5  UNL     1      -0.481   9.197  13.995  1.00  0.00     0.210 HD
ENDBRANCH   9  15
ENDBRANCH   1   5
BRANCH   3  17
HETATM   17  C11 UNL     1      -1.078   9.221   8.933  1.00  0.00     0.130 C 
HETATM   18  N1  UNL     1      -2.303   8.970   8.661  1.00  0.00    -0.301 N 
ATOM     19  H1  UNL     1      -2.693   8.136   9.100  1.00  0.00     0.186 HD
BRANCH  18  20
HETATM   20  N2  UNL     1      -3.148   9.668   7.865  1.00  0.00    -0.344 N 
ATOM     21  H22 UNL     1      -3.244   9.299   6.919  1.00  0.00     0.176 HD
ATOM     22  H21 UNL     1      -3.688  10.502   8.093  1.00  0.00     0.176 HD
ENDBRANCH  18  20
BRANCH  17  23
HETATM   23  C12 UNL     1      -0.555  10.411   8.231  1.00  0.00     0.228 C 
HETATM   24  O3  UNL     1       0.106  11.301   8.900  1.00  0.00    -0.643 OA
HETATM   25  O4  UNL     1      -0.680  10.724   6.910  1.00  0.00    -0.643 OA
ENDBRANCH  17  23
ENDBRANCH   3  17
TORSDOF 7
ENDMDL
