MODEL 1
REMARK VINA RESULT: -7.274144986      0.000      0.000
REMARK  10 active torsions:
REMARK  status: ('A' for Active; 'I' for Inactive)
REMARK    1  A    between atoms: C2_2  and  N1_3 
REMARK    2  A    between atoms: N1_3  and  C3_5 
REMARK    3  A    between atoms: C5_11  and  N4_12 
REMARK    4  A    between atoms: N4_12  and  C6_14 
REMARK    5  A    between atoms: C6_14  and  C7_15 
REMARK    6  A    between atoms: C7_15  and  N5_16 
REMARK    7  A    between atoms: C8_22  and  N7_23 
REMARK    8  A    between atoms: N7_23  and  C9_25 
REMARK    9  A    between atoms: C9_25  and  C10_26 
REMARK   10  A    between atoms: C10_26  and  O1_27 
ROOT
HETATM    1  C3  UNL     1      58.145   7.942  25.813  1.00  0.00     0.694 A 
HETATM    2  N2  UNL     1      58.611   6.683  25.714  1.00  0.00    -0.132 N 
ATOM      3  H2  UNL     1      59.248   6.445  24.953  1.00  0.00     0.205 HD
HETATM    4  N3  UNL     1      58.263   5.751  26.578  1.00  0.00    -0.280 N 
ATOM      5  H3  UNL     1      58.632   4.806  26.476  1.00  0.00     0.188 HD
HETATM    6  C4  UNL     1      57.424   6.036  27.595  1.00  0.00     0.138 A 
HETATM    7  C5  UNL     1      57.064   5.055  28.498  1.00  0.00     0.149 A 
HETATM    8  N6  UNL     1      56.223   5.414  29.485  1.00  0.00    -0.175 N 
ATOM      9  H6  UNL     1      55.938   4.711  30.168  1.00  0.00     0.186 HD
HETATM   10  C8  UNL     1      55.742   6.669  29.605  1.00  0.00     0.681 A 
HETATM   11  N8  UNL     1      56.120   7.612  28.693  1.00  0.00    -0.174 N 
ATOM     12  H8  UNL     1      55.756   8.560  28.783  1.00  0.00     0.186 HD
HETATM   13  C11 UNL     1      56.957   7.330  27.681  1.00  0.00     0.168 A 
HETATM   14  N9  UNL     1      57.304   8.288  26.805  1.00  0.00    -0.172 N 
ATOM     15  H9  UNL     1      56.944   9.239  26.889  1.00  0.00     0.186 HD
ENDROOT
BRANCH   7  16
HETATM   16  N4  UNL     1      57.549   3.881  28.337  1.00  0.00    -0.372 N 
ATOM     17  H4  UNL     1      58.456   3.824  27.874  1.00  0.00     0.161 HD
BRANCH  16  18
HETATM   18  C6  UNL     1      56.964   2.655  28.732  1.00  0.00     0.148 C 
BRANCH  18  19
HETATM   19  C7  UNL     1      57.920   1.487  28.743  1.00  0.00     0.249 C 
BRANCH  19  20
HETATM   20  N5  UNL     1      57.467   0.581  27.677  1.00  0.00    -0.078 N 
ATOM     21  H53 UNL     1      57.745  -0.390  27.823  1.00  0.00     0.274 HD
ATOM     22  H52 UNL     1      56.460   0.423  27.678  1.00  0.00     0.274 HD
ATOM     23  H51 UNL     1      57.816   0.976  26.803  1.00  0.00     0.274 HD
ENDBRANCH  19  20
ENDBRANCH  18  19
ENDBRANCH  16  18
ENDBRANCH   7  16
BRANCH  10  24
HETATM   24  N7  UNL     1      54.935   7.023  30.548  1.00  0.00    -0.224 N 
ATOM     25  H7  UNL     1      54.540   7.962  30.584  1.00  0.00     0.177 HD
BRANCH  24  26
HETATM   26  C9  UNL     1      54.615   6.029  31.553  1.00  0.00     0.164 C 
BRANCH  26  27
HETATM   27  C10 UNL     1      53.253   5.425  31.331  1.00  0.00     0.184 C 
BRANCH  27  28
HETATM   28  O1  UNL     1      53.431   4.246  30.584  1.00  0.00    -0.399 OA
ATOM     29  H1  UNL     1      53.284   3.512  31.169  1.00  0.00     0.209 HD
ENDBRANCH  27  28
ENDBRANCH  26  27
ENDBRANCH  24  26
ENDBRANCH  10  24
BRANCH   1  30
HETATM   30  N1  UNL     1      58.498   8.845  24.953  1.00  0.00    -0.225 N 
ATOM     31  H1  UNL     1      58.701   8.569  23.992  1.00  0.00     0.177 HD
BRANCH  30  32
HETATM   32  C2  UNL     1      58.608  10.230  25.330  1.00  0.00     0.134 C 
HETATM   33  C1  UNL     1      59.968  10.739  24.970  1.00  0.00     0.027 C 
ENDBRANCH  30  32
ENDBRANCH   1  30
TORSDOF 10
ENDMDL
MODEL 2
REMARK VINA RESULT: -7.256547795      1.456      1.493
REMARK  10 active torsions:
REMARK  status: ('A' for Active; 'I' for Inactive)
REMARK    1  A    between atoms: C2_2  and  N1_3 
REMARK    2  A    between atoms: N1_3  and  C3_5 
REMARK    3  A    between atoms: C5_11  and  N4_12 
REMARK    4  A    between atoms: N4_12  and  C6_14 
REMARK    5  A    between atoms: C6_14  and  C7_15 
REMARK    6  A    between atoms: C7_15  and  N5_16 
REMARK    7  A    between atoms: C8_22  and  N7_23 
REMARK    8  A    between atoms: N7_23  and  C9_25 
REMARK    9  A    between atoms: C9_25  and  C10_26 
REMARK   10  A    between atoms: C10_26  and  O1_27 
ROOT
HETATM    1  C3  UNL     1      57.616   8.023  25.505  1.00  0.00     0.694 A 
HETATM    2  N2  UNL     1      58.313   6.875  25.414  1.00  0.00    -0.132 N 
ATOM      3  H2  UNL     1      58.912   6.719  24.603  1.00  0.00     0.205 HD
HETATM    4  N3  UNL     1      58.238   5.950  26.348  1.00  0.00    -0.280 N 
ATOM      5  H3  UNL     1      58.777   5.090  26.251  1.00  0.00     0.188 HD
HETATM    6  C4  UNL     1      57.456   6.129  27.433  1.00  0.00     0.138 A 
HETATM    7  C5  UNL     1      57.382   5.155  28.409  1.00  0.00     0.149 A 
HETATM    8  N6  UNL     1      56.580   5.404  29.460  1.00  0.00    -0.175 N 
ATOM      9  H6  UNL     1      56.504   4.704  30.198  1.00  0.00     0.186 HD
HETATM   10  C8  UNL     1      55.872   6.547  29.573  1.00  0.00     0.681 A 
HETATM   11  N8  UNL     1      55.969   7.486  28.588  1.00  0.00    -0.174 N 
ATOM     12  H8  UNL     1      55.432   8.350  28.674  1.00  0.00     0.186 HD
HETATM   13  C11 UNL     1      56.749   7.310  27.509  1.00  0.00     0.168 A 
HETATM   14  N9  UNL     1      56.816   8.261  26.562  1.00  0.00    -0.172 N 
ATOM     15  H9  UNL     1      56.283   9.127  26.641  1.00  0.00     0.186 HD
ENDROOT
BRANCH   7  16
HETATM   16  N4  UNL     1      58.075   4.090  28.251  1.00  0.00    -0.372 N 
ATOM     17  H4  UNL     1      58.756   4.101  27.492  1.00  0.00     0.161 HD
BRANCH  16  18
HETATM   18  C6  UNL     1      57.998   2.901  29.014  1.00  0.00     0.148 C 
BRANCH  18  19
HETATM   19  C7  UNL     1      56.869   1.982  28.617  1.00  0.00     0.249 C 
BRANCH  19  20
HETATM   20  N5  UNL     1      57.493   0.849  27.917  1.00  0.00    -0.078 N 
ATOM     21  H53 UNL     1      58.454   0.669  28.209  1.00  0.00     0.274 HD
ATOM     22  H52 UNL     1      57.110  -0.057  28.186  1.00  0.00     0.274 HD
ATOM     23  H51 UNL     1      57.402   1.049  26.920  1.00  0.00     0.274 HD
ENDBRANCH  19  20
ENDBRANCH  18  19
ENDBRANCH  16  18
ENDBRANCH   7  16
BRANCH  10  24
HETATM   24  N7  UNL     1      55.099   6.795  30.578  1.00  0.00    -0.224 N 
ATOM     25  H7  UNL     1      54.283   6.217  30.776  1.00  0.00     0.177 HD
BRANCH  24  26
HETATM   26  C9  UNL     1      55.441   7.930  31.411  1.00  0.00     0.164 C 
BRANCH  26  27
HETATM   27  C10 UNL     1      54.252   8.821  31.661  1.00  0.00     0.184 C 
BRANCH  27  28
HETATM   28  O1  UNL     1      53.654   9.086  30.415  1.00  0.00    -0.399 OA
ATOM     29  H1  UNL     1      53.562  10.029  30.338  1.00  0.00     0.209 HD
ENDBRANCH  27  28
ENDBRANCH  26  27
ENDBRANCH  24  26
ENDBRANCH  10  24
BRANCH   1  30
HETATM   30  N1  UNL     1      57.701   8.922  24.576  1.00  0.00    -0.225 N 
ATOM     31  H1  UNL     1      57.578   8.648  23.601  1.00  0.00     0.177 HD
BRANCH  30  32
HETATM   32  C2  UNL     1      57.967  10.301  24.895  1.00  0.00     0.134 C 
HETATM   33  C1  UNL     1      59.417  10.466  25.224  1.00  0.00     0.027 C 
ENDBRANCH  30  32
ENDBRANCH   1  30
TORSDOF 10
ENDMDL
MODEL 3
REMARK VINA RESULT: -7.079306311      1.602      1.621
REMARK  10 active torsions:
REMARK  status: ('A' for Active; 'I' for Inactive)
REMARK    1  A    between atoms: C2_2  and  N1_3 
REMARK    2  A    between atoms: N1_3  and  C3_5 
REMARK    3  A    between atoms: C5_11  and  N4_12 
REMARK    4  A    between atoms: N4_12  and  C6_14 
REMARK    5  A    between atoms: C6_14  and  C7_15 
REMARK    6  A    between atoms: C7_15  and  N5_16 
REMARK    7  A    between atoms: C8_22  and  N7_23 
REMARK    8  A    between atoms: N7_23  and  C9_25 
REMARK    9  A    between atoms: C9_25  and  C10_26 
REMARK   10  A    between atoms: C10_26  and  O1_27 
ROOT
HETATM    1  C3  UNL     1      57.796   8.009  25.559  1.00  0.00     0.694 A 
HETATM    2  N2  UNL     1      58.379   6.804  25.416  1.00  0.00    -0.132 N 
ATOM      3  H2  UNL     1      58.897   6.599  24.561  1.00  0.00     0.205 HD
HETATM    4  N3  UNL     1      58.296   5.884  26.355  1.00  0.00    -0.280 N 
ATOM      5  H3  UNL     1      58.747   4.980  26.217  1.00  0.00     0.188 HD
HETATM    6  C4  UNL     1      57.619   6.126  27.497  1.00  0.00     0.138 A 
HETATM    7  C5  UNL     1      57.536   5.158  28.478  1.00  0.00     0.149 A 
HETATM    8  N6  UNL     1      56.844   5.472  29.588  1.00  0.00    -0.175 N 
ATOM      9  H6  UNL     1      56.765   4.777  30.331  1.00  0.00     0.186 HD
HETATM   10  C8  UNL     1      56.251   6.672  29.754  1.00  0.00     0.681 A 
HETATM   11  N8  UNL     1      56.354   7.604  28.763  1.00  0.00    -0.174 N 
ATOM     12  H8  UNL     1      55.905   8.511  28.888  1.00  0.00     0.186 HD
HETATM   13  C11 UNL     1      57.028   7.365  27.626  1.00  0.00     0.168 A 
HETATM   14  N9  UNL     1      57.106   8.311  26.675  1.00  0.00    -0.172 N 
ATOM     15  H9  UNL     1      56.660   9.220  26.794  1.00  0.00     0.186 HD
ENDROOT
BRANCH   7  16
HETATM   16  N4  UNL     1      58.117   4.037  28.268  1.00  0.00    -0.372 N 
ATOM     17  H4  UNL     1      58.759   3.999  27.476  1.00  0.00     0.161 HD
BRANCH  16  18
HETATM   18  C6  UNL     1      57.967   2.844  29.015  1.00  0.00     0.148 C 
BRANCH  18  19
HETATM   19  C7  UNL     1      56.787   1.998  28.600  1.00  0.00     0.249 C 
BRANCH  19  20
HETATM   20  N5  UNL     1      57.345   0.859  27.857  1.00  0.00    -0.078 N 
ATOM     21  H53 UNL     1      56.780   0.582  27.054  1.00  0.00     0.274 HD
ATOM     22  H52 UNL     1      58.194   1.088  27.338  1.00  0.00     0.274 HD
ATOM     23  H51 UNL     1      57.475   0.112  28.539  1.00  0.00     0.274 HD
ENDBRANCH  19  20
ENDBRANCH  18  19
ENDBRANCH  16  18
ENDBRANCH   7  16
BRANCH  10  24
HETATM   24  N7  UNL     1      55.585   6.983  30.816  1.00  0.00    -0.224 N 
ATOM     25  H7  UNL     1      54.574   6.859  30.863  1.00  0.00     0.177 HD
BRANCH  24  26
HETATM   26  C9  UNL     1      56.335   7.515  31.936  1.00  0.00     0.164 C 
BRANCH  26  27
HETATM   27  C10 UNL     1      56.244   6.622  33.146  1.00  0.00     0.184 C 
BRANCH  27  28
HETATM   28  O1  UNL     1      57.558   6.279  33.517  1.00  0.00    -0.399 OA
ATOM     29  H1  UNL     1      57.975   7.064  33.852  1.00  0.00     0.209 HD
ENDBRANCH  27  28
ENDBRANCH  26  27
ENDBRANCH  24  26
ENDBRANCH  10  24
BRANCH   1  30
HETATM   30  N1  UNL     1      57.888   8.901  24.624  1.00  0.00    -0.225 N 
ATOM     31  H1  UNL     1      57.860   8.608  23.647  1.00  0.00     0.177 HD
BRANCH  30  32
HETATM   32  C2  UNL     1      58.028  10.298  24.940  1.00  0.00     0.134 C 
HETATM   33  C1  UNL     1      59.481  10.645  25.038  1.00  0.00     0.027 C 
ENDBRANCH  30  32
ENDBRANCH   1  30
TORSDOF 10
ENDMDL
MODEL 4
REMARK VINA RESULT: -7.045461474      3.081      6.942
REMARK  10 active torsions:
REMARK  status: ('A' for Active; 'I' for Inactive)
REMARK    1  A    between atoms: C2_2  and  N1_3 
REMARK    2  A    between atoms: N1_3  and  C3_5 
REMARK    3  A    between atoms: C5_11  and  N4_12 
REMARK    4  A    between atoms: N4_12  and  C6_14 
REMARK    5  A    between atoms: C6_14  and  C7_15 
REMARK    6  A    between atoms: C7_15  and  N5_16 
REMARK    7  A    between atoms: C8_22  and  N7_23 
REMARK    8  A    between atoms: N7_23  and  C9_25 
REMARK    9  A    between atoms: C9_25  and  C10_26 
REMARK   10  A    between atoms: C10_26  and  O1_27 
ROOT
HETATM    1  C3  UNL     1      55.573   5.282  26.774  1.00  0.00     0.694 A 
HETATM    2  N2  UNL     1      55.088   6.329  26.080  1.00  0.00    -0.132 N 
ATOM      3  H2  UNL     1      54.081   6.406  25.932  1.00  0.00     0.205 HD
HETATM    4  N3  UNL     1      55.884   7.255  25.588  1.00  0.00    -0.280 N 
ATOM      5  H3  UNL     1      55.487   8.036  25.066  1.00  0.00     0.188 HD
HETATM    6  C4  UNL     1      57.219   7.182  25.768  1.00  0.00     0.138 A 
HETATM    7  C5  UNL     1      58.048   8.157  25.250  1.00  0.00     0.149 A 
HETATM    8  N6  UNL     1      59.368   8.014  25.470  1.00  0.00    -0.175 N 
ATOM      9  H6  UNL     1      60.007   8.719  25.100  1.00  0.00     0.186 HD
HETATM   10  C8  UNL     1      59.878   6.974  26.162  1.00  0.00     0.681 A 
HETATM   11  N8  UNL     1      59.027   6.030  26.659  1.00  0.00    -0.174 N 
ATOM     12  H8  UNL     1      59.413   5.243  27.180  1.00  0.00     0.186 HD
HETATM   13  C11 UNL     1      57.698   6.103  26.481  1.00  0.00     0.168 A 
HETATM   14  N9  UNL     1      56.896   5.151  26.987  1.00  0.00    -0.172 N 
ATOM     15  H9  UNL     1      57.274   4.361  27.511  1.00  0.00     0.186 HD
ENDROOT
BRANCH   7  16
HETATM   16  N4  UNL     1      57.512   9.121  24.602  1.00  0.00    -0.372 N 
ATOM     17  H4  UNL     1      57.105   8.889  23.697  1.00  0.00     0.161 HD
BRANCH  16  18
HETATM   18  C6  UNL     1      57.422  10.475  25.006  1.00  0.00     0.148 C 
BRANCH  18  19
HETATM   19  C7  UNL     1      56.013  10.957  25.248  1.00  0.00     0.249 C 
BRANCH  19  20
HETATM   20  N5  UNL     1      55.738  11.951  24.200  1.00  0.00    -0.078 N 
ATOM     21  H53 UNL     1      56.059  12.890  24.435  1.00  0.00     0.274 HD
ATOM     22  H52 UNL     1      56.311  11.831  23.364  1.00  0.00     0.274 HD
ATOM     23  H51 UNL     1      54.736  11.899  24.017  1.00  0.00     0.274 HD
ENDBRANCH  19  20
ENDBRANCH  18  19
ENDBRANCH  16  18
ENDBRANCH   7  16
BRANCH  10  24
HETATM   24  N7  UNL     1      61.142   6.829  26.378  1.00  0.00    -0.224 N 
ATOM     25  H7  UNL     1      61.838   7.222  25.744  1.00  0.00     0.177 HD
BRANCH  24  26
HETATM   26  C9  UNL     1      61.532   6.086  27.559  1.00  0.00     0.164 C 
BRANCH  26  27
HETATM   27  C10 UNL     1      62.174   4.770  27.207  1.00  0.00     0.184 C 
BRANCH  27  28
HETATM   28  O1  UNL     1      61.140   3.846  26.964  1.00  0.00    -0.399 OA
ATOM     29  H1  UNL     1      60.628   4.176  26.236  1.00  0.00     0.209 HD
ENDBRANCH  27  28
ENDBRANCH  26  27
ENDBRANCH  24  26
ENDBRANCH  10  24
BRANCH   1  30
HETATM   30  N1  UNL     1      54.774   4.379  27.250  1.00  0.00    -0.225 N 
ATOM     31  H1  UNL     1      53.859   4.243  26.820  1.00  0.00     0.177 HD
BRANCH  30  32
HETATM   32  C2  UNL     1      55.157   3.565  28.373  1.00  0.00     0.134 C 
HETATM   33  C1  UNL     1      54.342   3.949  29.569  1.00  0.00     0.027 C 
ENDBRANCH  30  32
ENDBRANCH   1  30
TORSDOF 10
ENDMDL
MODEL 5
REMARK VINA RESULT: -6.965426205      3.885      5.836
REMARK  10 active torsions:
REMARK  status: ('A' for Active; 'I' for Inactive)
REMARK    1  A    between atoms: C2_2  and  N1_3 
REMARK    2  A    between atoms: N1_3  and  C3_5 
REMARK    3  A    between atoms: C5_11  and  N4_12 
REMARK    4  A    between atoms: N4_12  and  C6_14 
REMARK    5  A    between atoms: C6_14  and  C7_15 
REMARK    6  A    between atoms: C7_15  and  N5_16 
REMARK    7  A    between atoms: C8_22  and  N7_23 
REMARK    8  A    between atoms: N7_23  and  C9_25 
REMARK    9  A    between atoms: C9_25  and  C10_26 
REMARK   10  A    between atoms: C10_26  and  O1_27 
ROOT
HETATM    1  C3  UNL     1      62.396   6.054  27.765  1.00  0.00     0.694 A 
HETATM    2  N2  UNL     1      61.627   5.198  28.463  1.00  0.00    -0.132 N 
ATOM      3  H2  UNL     1      62.061   4.588  29.156  1.00  0.00     0.205 HD
HETATM    4  N3  UNL     1      60.325   5.130  28.271  1.00  0.00    -0.280 N 
ATOM      5  H3  UNL     1      59.769   4.470  28.814  1.00  0.00     0.188 HD
HETATM    6  C4  UNL     1      59.722   5.924  27.362  1.00  0.00     0.138 A 
HETATM    7  C5  UNL     1      58.357   5.848  27.166  1.00  0.00     0.149 A 
HETATM    8  N6  UNL     1      57.827   6.671  26.242  1.00  0.00    -0.175 N 
ATOM      9  H6  UNL     1      56.821   6.639  26.074  1.00  0.00     0.186 HD
HETATM   10  C8  UNL     1      58.577   7.537  25.530  1.00  0.00     0.681 A 
HETATM   11  N8  UNL     1      59.923   7.583  25.751  1.00  0.00    -0.174 N 
ATOM     12  H8  UNL     1      60.490   8.237  25.212  1.00  0.00     0.186 HD
HETATM   13  C11 UNL     1      60.525   6.795  26.656  1.00  0.00     0.168 A 
HETATM   14  N9  UNL     1      61.853   6.872  26.843  1.00  0.00    -0.172 N 
ATOM     15  H9  UNL     1      62.427   7.524  26.308  1.00  0.00     0.186 HD
ENDROOT
BRANCH   7  16
HETATM   16  N4  UNL     1      57.693   5.009  27.868  1.00  0.00    -0.372 N 
ATOM     17  H4  UNL     1      58.056   4.056  27.900  1.00  0.00     0.161 HD
BRANCH  16  18
HETATM   18  C6  UNL     1      56.512   5.259  28.606  1.00  0.00     0.148 C 
BRANCH  18  19
HETATM   19  C7  UNL     1      56.653   6.331  29.658  1.00  0.00     0.249 C 
BRANCH  19  20
HETATM   20  N5  UNL     1      55.679   7.375  29.309  1.00  0.00    -0.078 N 
ATOM     21  H53 UNL     1      54.784   7.273  29.787  1.00  0.00     0.274 HD
ATOM     22  H52 UNL     1      55.915   8.294  29.684  1.00  0.00     0.274 HD
ATOM     23  H51 UNL     1      55.600   7.359  28.292  1.00  0.00     0.274 HD
ENDBRANCH  19  20
ENDBRANCH  18  19
ENDBRANCH  16  18
ENDBRANCH   7  16
BRANCH  10  24
HETATM   24  N7  UNL     1      58.078   8.330  24.642  1.00  0.00    -0.224 N 
ATOM     25  H7  UNL     1      57.984   8.044  23.668  1.00  0.00     0.177 HD
BRANCH  24  26
HETATM   26  C9  UNL     1      57.658   9.643  25.089  1.00  0.00     0.164 C 
BRANCH  26  27
HETATM   27  C10 UNL     1      58.721  10.683  24.850  1.00  0.00     0.184 C 
BRANCH  27  28
HETATM   28  O1  UNL     1      59.516  10.749  26.011  1.00  0.00    -0.399 OA
ATOM     29  H1  UNL     1      58.945  10.605  26.756  1.00  0.00     0.209 HD
ENDBRANCH  27  28
ENDBRANCH  26  27
ENDBRANCH  24  26
ENDBRANCH  10  24
BRANCH   1  30
HETATM   30  N1  UNL     1      63.675   6.106  27.967  1.00  0.00    -0.225 N 
ATOM     31  H1  UNL     1      64.028   6.466  28.854  1.00  0.00     0.177 HD
BRANCH  30  32
HETATM   32  C2  UNL     1      64.606   5.665  26.961  1.00  0.00     0.134 C 
HETATM   33  C1  UNL     1      65.765   6.610  26.905  1.00  0.00     0.027 C 
ENDBRANCH  30  32
ENDBRANCH   1  30
TORSDOF 10
ENDMDL
