MODEL 1
REMARK VINA RESULT: -7.356784736      0.000      0.000
REMARK  9 active torsions:
REMARK  status: ('A' for Active; 'I' for Inactive)
REMARK    1  A    between atoms: N1_1  and  C1_4 
REMARK    2  A    between atoms: C2_7  and  N3_8 
REMARK    3  A    between atoms: N3_8  and  C3_10 
REMARK    4  A    between atoms: C3_10  and  C4_11 
REMARK    5  A    between atoms: C4_11  and  C5_12 
REMARK    6  A    between atoms: C5_12  and  C6_13 
REMARK    7  A    between atoms: C6_13  and  N4_14 
REMARK    8  A    between atoms: C7_20  and  N6_21 
REMARK    9  A    between atoms: N6_21  and  C8_23 
ROOT
HETATM    1  C1  UNL     1      54.921   7.343  24.709  1.00  0.00     0.705 A 
HETATM    2  N2  UNL     1      54.579   6.236  25.372  1.00  0.00    -0.022 N 
ATOM      3  H2  UNL     1      53.593   5.996  25.472  1.00  0.00     0.203 HD
HETATM    4  C2  UNL     1      55.529   5.421  25.919  1.00  0.00     0.707 A 
HETATM    5  N5  UNL     1      56.824   5.736  25.788  1.00  0.00    -0.022 N 
ATOM      6  H5  UNL     1      57.538   5.130  26.193  1.00  0.00     0.203 HD
HETATM    7  C7  UNL     1      57.191   6.866  25.111  1.00  0.00     0.707 A 
HETATM    8  N9  UNL     1      56.235   7.642  24.589  1.00  0.00    -0.022 N 
ATOM      9  H9  UNL     1      56.506   8.486  24.084  1.00  0.00     0.203 HD
ENDROOT
BRANCH   7  10
HETATM   10  N6  UNL     1      58.451   7.114  25.019  1.00  0.00    -0.214 N 
ATOM     11  H6  UNL     1      58.891   7.161  24.099  1.00  0.00     0.178 HD
BRANCH  10  12
HETATM   12  C8  UNL     1      59.234   7.324  26.187  1.00  0.00     0.186 C 
HETATM   13  C9  UNL     1      60.056   8.620  26.138  1.00  0.00     0.263 C 
HETATM   14  N7  UNL     1      60.918   8.383  27.303  1.00  0.00    -0.068 N 
HETATM   15  C10 UNL     1      61.486   7.085  26.986  1.00  0.00     0.299 C 
ATOM     16  H72 UNL     1      61.597   9.119  27.498  1.00  0.00     0.277 HD
ATOM     17  H71 UNL     1      60.452   8.445  28.208  1.00  0.00     0.277 HD
HETATM   18  C11 UNL     1      60.394   6.319  26.264  1.00  0.00     0.224 A 
HETATM   19  N8  UNL     1      60.220   5.008  26.355  1.00  0.00    -0.258 N 
HETATM   20  O1  UNL     1      60.691   5.633  25.112  1.00  0.00    -0.243 OA
ATOM     21  H8  UNL     1      59.956   4.181  26.891  1.00  0.00     0.191 HD
ENDBRANCH  10  12
ENDBRANCH   7  10
BRANCH   4  22
HETATM   22  N3  UNL     1      55.157   4.369  26.543  1.00  0.00    -0.225 N 
ATOM     23  H3  UNL     1      54.846   3.560  26.004  1.00  0.00     0.177 HD
BRANCH  22  24
HETATM   24  C3  UNL     1      55.161   4.287  27.966  1.00  0.00     0.138 C 
BRANCH  24  25
HETATM   25  C4  UNL     1      55.595   2.893  28.447  1.00  0.00     0.022 C 
BRANCH  25  26
HETATM   26  C5  UNL     1      57.072   3.002  28.763  1.00  0.00     0.029 C 
BRANCH  26  27
HETATM   27  C6  UNL     1      57.755   1.654  28.696  1.00  0.00     0.229 C 
BRANCH  27  28
HETATM   28  N4  UNL     1      56.904   0.776  27.909  1.00  0.00    -0.079 N 
ATOM     29  H43 UNL     1      56.020   0.559  28.371  1.00  0.00     0.274 HD
ATOM     30  H42 UNL     1      56.513   1.232  27.084  1.00  0.00     0.274 HD
ATOM     31  H41 UNL     1      57.451  -0.055  27.684  1.00  0.00     0.274 HD
ENDBRANCH  27  28
ENDBRANCH  26  27
ENDBRANCH  25  26
ENDBRANCH  24  25
ENDBRANCH  22  24
ENDBRANCH   4  22
BRANCH   1  32
HETATM   32  N1  UNL     1      54.041   8.149  24.172  1.00  0.00    -0.234 N 
ATOM     33  H12 UNL     1      53.690   8.930  24.725  1.00  0.00     0.174 HD
ATOM     34  H11 UNL     1      53.689   8.029  23.222  1.00  0.00     0.174 HD
ENDBRANCH   1  32
TORSDOF 9
ENDMDL
MODEL 2
REMARK VINA RESULT: -7.341963680      2.735      5.697
REMARK  9 active torsions:
REMARK  status: ('A' for Active; 'I' for Inactive)
REMARK    1  A    between atoms: N1_1  and  C1_4 
REMARK    2  A    between atoms: C2_7  and  N3_8 
REMARK    3  A    between atoms: N3_8  and  C3_10 
REMARK    4  A    between atoms: C3_10  and  C4_11 
REMARK    5  A    between atoms: C4_11  and  C5_12 
REMARK    6  A    between atoms: C5_12  and  C6_13 
REMARK    7  A    between atoms: C6_13  and  N4_14 
REMARK    8  A    between atoms: C7_20  and  N6_21 
REMARK    9  A    between atoms: N6_21  and  C8_23 
ROOT
HETATM    1  C1  UNL     1      61.863   5.072  27.460  1.00  0.00     0.705 A 
HETATM    2  N2  UNL     1      61.705   5.799  28.568  1.00  0.00    -0.022 N 
ATOM      3  H2  UNL     1      62.431   5.788  29.284  1.00  0.00     0.203 HD
HETATM    4  C2  UNL     1      60.585   6.558  28.758  1.00  0.00     0.707 A 
HETATM    5  N5  UNL     1      59.631   6.574  27.818  1.00  0.00    -0.022 N 
ATOM      6  H5  UNL     1      58.793   7.140  27.953  1.00  0.00     0.203 HD
HETATM    7  C7  UNL     1      59.778   5.835  26.677  1.00  0.00     0.707 A 
HETATM    8  N9  UNL     1      60.887   5.102  26.524  1.00  0.00    -0.022 N 
ATOM      9  H9  UNL     1      61.000   4.549  25.674  1.00  0.00     0.203 HD
ENDROOT
BRANCH   7  10
HETATM   10  N6  UNL     1      58.828   5.891  25.811  1.00  0.00    -0.214 N 
ATOM     11  H6  UNL     1      58.931   5.417  24.914  1.00  0.00     0.178 HD
BRANCH  10  12
HETATM   12  C8  UNL     1      57.634   6.611  26.094  1.00  0.00     0.186 C 
HETATM   13  C9  UNL     1      56.457   5.701  26.476  1.00  0.00     0.263 C 
HETATM   14  N7  UNL     1      55.377   6.694  26.417  1.00  0.00    -0.068 N 
HETATM   15  C10 UNL     1      55.548   7.229  25.078  1.00  0.00     0.299 C 
ATOM     16  H72 UNL     1      54.445   6.335  26.626  1.00  0.00     0.277 HD
ATOM     17  H71 UNL     1      55.381   7.386  27.166  1.00  0.00     0.277 HD
HETATM   18  C11 UNL     1      57.042   7.227  24.817  1.00  0.00     0.224 A 
HETATM   19  N8  UNL     1      57.671   8.135  24.085  1.00  0.00    -0.258 N 
HETATM   20  O1  UNL     1      57.524   6.748  23.623  1.00  0.00    -0.243 OA
ATOM     21  H8  UNL     1      58.008   9.089  23.946  1.00  0.00     0.191 HD
ENDBRANCH  10  12
ENDBRANCH   7  10
BRANCH   4  22
HETATM   22  N3  UNL     1      60.475   7.242  29.833  1.00  0.00    -0.225 N 
ATOM     23  H3  UNL     1      61.323   7.517  30.329  1.00  0.00     0.177 HD
BRANCH  22  24
HETATM   24  C3  UNL     1      59.210   7.633  30.361  1.00  0.00     0.138 C 
BRANCH  24  25
HETATM   25  C4  UNL     1      58.666   6.587  31.347  1.00  0.00     0.022 C 
BRANCH  25  26
HETATM   26  C5  UNL     1      57.169   6.542  31.123  1.00  0.00     0.029 C 
BRANCH  26  27
HETATM   27  C6  UNL     1      56.773   7.286  29.866  1.00  0.00     0.229 C 
BRANCH  27  28
HETATM   28  N4  UNL     1      55.358   7.600  29.979  1.00  0.00    -0.079 N 
ATOM     29  H43 UNL     1      55.127   8.530  29.629  1.00  0.00     0.274 HD
ATOM     30  H42 UNL     1      54.777   7.067  29.331  1.00  0.00     0.274 HD
ATOM     31  H41 UNL     1      55.094   7.465  30.955  1.00  0.00     0.274 HD
ENDBRANCH  27  28
ENDBRANCH  26  27
ENDBRANCH  25  26
ENDBRANCH  24  25
ENDBRANCH  22  24
ENDBRANCH   4  22
BRANCH   1  32
HETATM   32  N1  UNL     1      62.920   4.332  27.243  1.00  0.00    -0.234 N 
ATOM     33  H12 UNL     1      63.728   4.438  27.857  1.00  0.00     0.174 HD
ATOM     34  H11 UNL     1      62.974   3.654  26.483  1.00  0.00     0.174 HD
ENDBRANCH   1  32
TORSDOF 9
ENDMDL
MODEL 3
REMARK VINA RESULT: -7.314670337      2.734      4.981
REMARK  9 active torsions:
REMARK  status: ('A' for Active; 'I' for Inactive)
REMARK    1  A    between atoms: N1_1  and  C1_4 
REMARK    2  A    between atoms: C2_7  and  N3_8 
REMARK    3  A    between atoms: N3_8  and  C3_10 
REMARK    4  A    between atoms: C3_10  and  C4_11 
REMARK    5  A    between atoms: C4_11  and  C5_12 
REMARK    6  A    between atoms: C5_12  and  C6_13 
REMARK    7  A    between atoms: C6_13  and  N4_14 
REMARK    8  A    between atoms: C7_20  and  N6_21 
REMARK    9  A    between atoms: N6_21  and  C8_23 
ROOT
HETATM    1  C1  UNL     1      56.159   6.382  29.054  1.00  0.00     0.705 A 
HETATM    2  N2  UNL     1      55.926   7.395  28.217  1.00  0.00    -0.022 N 
ATOM      3  H2  UNL     1      55.114   7.994  28.367  1.00  0.00     0.203 HD
HETATM    4  C2  UNL     1      56.759   7.643  27.163  1.00  0.00     0.707 A 
HETATM    5  N5  UNL     1      57.826   6.858  26.966  1.00  0.00    -0.022 N 
ATOM      6  H5  UNL     1      58.452   7.038  26.181  1.00  0.00     0.203 HD
HETATM    7  C7  UNL     1      58.078   5.815  27.814  1.00  0.00     0.707 A 
HETATM    8  N9  UNL     1      57.242   5.601  28.836  1.00  0.00    -0.022 N 
ATOM      9  H9  UNL     1      57.427   4.824  29.471  1.00  0.00     0.203 HD
ENDROOT
BRANCH   7  10
HETATM   10  N6  UNL     1      59.119   5.097  27.573  1.00  0.00    -0.214 N 
ATOM     11  H6  UNL     1      59.089   4.395  26.833  1.00  0.00     0.178 HD
BRANCH  10  12
HETATM   12  C8  UNL     1      60.309   5.273  28.329  1.00  0.00     0.186 C 
HETATM   13  C9  UNL     1      60.421   6.667  28.964  1.00  0.00     0.263 C 
HETATM   14  N7  UNL     1      61.822   6.605  29.398  1.00  0.00    -0.068 N 
HETATM   15  C10 UNL     1      62.495   6.255  28.160  1.00  0.00     0.299 C 
ATOM     16  H72 UNL     1      62.172   7.445  29.860  1.00  0.00     0.277 HD
ATOM     17  H71 UNL     1      62.007   5.983  30.184  1.00  0.00     0.277 HD
HETATM   18  C11 UNL     1      61.542   5.339  27.415  1.00  0.00     0.224 A 
HETATM   19  N8  UNL     1      61.929   4.337  26.637  1.00  0.00    -0.258 N 
HETATM   20  O1  UNL     1      61.306   5.545  26.078  1.00  0.00    -0.243 OA
ATOM     21  H8  UNL     1      62.348   3.415  26.517  1.00  0.00     0.191 HD
ENDBRANCH  10  12
ENDBRANCH   7  10
BRANCH   4  22
HETATM   22  N3  UNL     1      56.501   8.626  26.387  1.00  0.00    -0.225 N 
ATOM     23  H3  UNL     1      55.695   9.217  26.593  1.00  0.00     0.177 HD
BRANCH  22  24
HETATM   24  C3  UNL     1      57.299   8.925  25.244  1.00  0.00     0.138 C 
BRANCH  24  25
HETATM   25  C4  UNL     1      57.793  10.380  25.270  1.00  0.00     0.022 C 
BRANCH  25  26
HETATM   26  C5  UNL     1      59.294  10.314  25.082  1.00  0.00     0.029 C 
BRANCH  26  27
HETATM   27  C6  UNL     1      59.971   9.633  26.251  1.00  0.00     0.229 C 
BRANCH  27  28
HETATM   28  N4  UNL     1      60.763   8.538  25.714  1.00  0.00    -0.079 N 
ATOM     29  H43 UNL     1      61.466   8.847  25.042  1.00  0.00     0.274 HD
ATOM     30  H42 UNL     1      61.402   8.134  26.398  1.00  0.00     0.274 HD
ATOM     31  H41 UNL     1      60.112   7.857  25.324  1.00  0.00     0.274 HD
ENDBRANCH  27  28
ENDBRANCH  26  27
ENDBRANCH  25  26
ENDBRANCH  24  25
ENDBRANCH  22  24
ENDBRANCH   4  22
BRANCH   1  32
HETATM   32  N1  UNL     1      55.384   6.113  30.074  1.00  0.00    -0.234 N 
ATOM     33  H12 UNL     1      54.431   6.475  30.074  1.00  0.00     0.174 HD
ATOM     34  H11 UNL     1      55.693   5.556  30.871  1.00  0.00     0.174 HD
ENDBRANCH   1  32
TORSDOF 9
ENDMDL
MODEL 4
REMARK VINA RESULT: -7.167330084      2.770      5.522
REMARK  9 active torsions:
REMARK  status: ('A' for Active; 'I' for Inactive)
REMARK    1  A    between atoms: N1_1  and  C1_4 
REMARK    2  A    between atoms: C2_7  and  N3_8 
REMARK    3  A    between atoms: N3_8  and  C3_10 
REMARK    4  A    between atoms: C3_10  and  C4_11 
REMARK    5  A    between atoms: C4_11  and  C5_12 
REMARK    6  A    between atoms: C5_12  and  C6_13 
REMARK    7  A    between atoms: C6_13  and  N4_14 
REMARK    8  A    between atoms: C7_20  and  N6_21 
REMARK    9  A    between atoms: N6_21  and  C8_23 
ROOT
HETATM    1  C1  UNL     1      61.957   6.218  27.624  1.00  0.00     0.705 A 
HETATM    2  N2  UNL     1      61.603   5.767  28.830  1.00  0.00    -0.022 N 
ATOM      3  H2  UNL     1      62.296   5.733  29.577  1.00  0.00     0.203 HD
HETATM    4  C2  UNL     1      60.325   5.350  29.078  1.00  0.00     0.707 A 
HETATM    5  N5  UNL     1      59.414   5.395  28.098  1.00  0.00    -0.022 N 
ATOM      6  H5  UNL     1      58.458   5.086  28.277  1.00  0.00     0.203 HD
HETATM    7  C7  UNL     1      59.761   5.854  26.857  1.00  0.00     0.707 A 
HETATM    8  N9  UNL     1      61.021   6.254  26.649  1.00  0.00    -0.022 N 
ATOM      9  H9  UNL     1      61.283   6.597  25.724  1.00  0.00     0.203 HD
ENDROOT
BRANCH   7  10
HETATM   10  N6  UNL     1      58.841   5.874  25.957  1.00  0.00    -0.214 N 
ATOM     11  H6  UNL     1      58.983   5.376  25.078  1.00  0.00     0.178 HD
BRANCH  10  12
HETATM   12  C8  UNL     1      57.629   6.584  26.178  1.00  0.00     0.186 C 
HETATM   13  C9  UNL     1      56.449   5.668  26.534  1.00  0.00     0.263 C 
HETATM   14  N7  UNL     1      55.360   6.646  26.411  1.00  0.00    -0.068 N 
HETATM   15  C10 UNL     1      55.577   7.155  25.068  1.00  0.00     0.299 C 
ATOM     16  H72 UNL     1      54.426   6.281  26.592  1.00  0.00     0.277 HD
ATOM     17  H71 UNL     1      55.328   7.355  27.144  1.00  0.00     0.277 HD
HETATM   18  C11 UNL     1      57.081   7.165  24.865  1.00  0.00     0.224 A 
HETATM   19  N8  UNL     1      57.727   8.065  24.138  1.00  0.00    -0.258 N 
HETATM   20  O1  UNL     1      57.614   6.666  23.702  1.00  0.00    -0.243 OA
ATOM     21  H8  UNL     1      58.057   9.019  23.990  1.00  0.00     0.191 HD
ENDBRANCH  10  12
ENDBRANCH   7  10
BRANCH   4  22
HETATM   22  N3  UNL     1      60.028   4.928  30.248  1.00  0.00    -0.225 N 
ATOM     23  H3  UNL     1      60.753   4.480  30.808  1.00  0.00     0.177 HD
BRANCH  22  24
HETATM   24  C3  UNL     1      58.719   5.063  30.796  1.00  0.00     0.138 C 
BRANCH  24  25
HETATM   25  C4  UNL     1      58.621   6.285  31.722  1.00  0.00     0.022 C 
BRANCH  25  26
HETATM   26  C5  UNL     1      57.674   7.250  31.041  1.00  0.00     0.029 C 
BRANCH  26  27
HETATM   27  C6  UNL     1      56.649   6.521  30.199  1.00  0.00     0.229 C 
BRANCH  27  28
HETATM   28  N4  UNL     1      55.650   7.496  29.794  1.00  0.00    -0.079 N 
ATOM     29  H43 UNL     1      54.698   7.211  30.026  1.00  0.00     0.274 HD
ATOM     30  H42 UNL     1      55.673   8.348  30.355  1.00  0.00     0.274 HD
ATOM     31  H41 UNL     1      55.783   7.670  28.798  1.00  0.00     0.274 HD
ENDBRANCH  27  28
ENDBRANCH  26  27
ENDBRANCH  25  26
ENDBRANCH  24  25
ENDBRANCH  22  24
ENDBRANCH   4  22
BRANCH   1  32
HETATM   32  N1  UNL     1      63.169   6.625  27.348  1.00  0.00    -0.234 N 
ATOM     33  H12 UNL     1      63.376   7.622  27.403  1.00  0.00     0.174 HD
ATOM     34  H11 UNL     1      63.919   5.987  27.078  1.00  0.00     0.174 HD
ENDBRANCH   1  32
TORSDOF 9
ENDMDL
MODEL 5
REMARK VINA RESULT: -7.153395657      4.104      6.978
REMARK  9 active torsions:
REMARK  status: ('A' for Active; 'I' for Inactive)
REMARK    1  A    between atoms: N1_1  and  C1_4 
REMARK    2  A    between atoms: C2_7  and  N3_8 
REMARK    3  A    between atoms: N3_8  and  C3_10 
REMARK    4  A    between atoms: C3_10  and  C4_11 
REMARK    5  A    between atoms: C4_11  and  C5_12 
REMARK    6  A    between atoms: C5_12  and  C6_13 
REMARK    7  A    between atoms: C6_13  and  N4_14 
REMARK    8  A    between atoms: C7_20  and  N6_21 
REMARK    9  A    between atoms: N6_21  and  C8_23 
ROOT
HETATM    1  C1  UNL     1      58.165   5.837  27.665  1.00  0.00     0.705 A 
HETATM    2  N2  UNL     1      57.850   6.901  26.923  1.00  0.00    -0.022 N 
ATOM      3  H2  UNL     1      58.464   7.178  26.157  1.00  0.00     0.203 HD
HETATM    4  C2  UNL     1      56.718   7.624  27.173  1.00  0.00     0.707 A 
HETATM    5  N5  UNL     1      55.911   7.260  28.177  1.00  0.00    -0.022 N 
ATOM      6  H5  UNL     1      55.064   7.795  28.369  1.00  0.00     0.203 HD
HETATM    7  C7  UNL     1      56.219   6.173  28.947  1.00  0.00     0.707 A 
HETATM    8  N9  UNL     1      57.336   5.488  28.675  1.00  0.00    -0.022 N 
ATOM      9  H9  UNL     1      57.569   4.676  29.248  1.00  0.00     0.203 HD
ENDROOT
BRANCH   7  10
HETATM   10  N6  UNL     1      55.404   5.873  29.897  1.00  0.00    -0.214 N 
ATOM     11  H6  UNL     1      54.948   4.960  29.904  1.00  0.00     0.178 HD
BRANCH  10  12
HETATM   12  C8  UNL     1      55.134   6.803  30.938  1.00  0.00     0.186 C 
HETATM   13  C9  UNL     1      56.180   6.774  32.061  1.00  0.00     0.263 C 
HETATM   14  N7  UNL     1      55.473   7.598  33.050  1.00  0.00    -0.068 N 
HETATM   15  C10 UNL     1      54.201   6.905  33.149  1.00  0.00     0.299 C 
ATOM     16  H72 UNL     1      55.964   7.734  33.933  1.00  0.00     0.277 HD
ATOM     17  H71 UNL     1      55.410   8.590  32.823  1.00  0.00     0.277 HD
HETATM   18  C11 UNL     1      53.906   6.377  31.757  1.00  0.00     0.224 A 
HETATM   19  N8  UNL     1      52.688   6.267  31.246  1.00  0.00    -0.258 N 
HETATM   20  O1  UNL     1      53.480   5.081  31.597  1.00  0.00    -0.243 OA
ATOM     21  H8  UNL     1      51.835   6.691  30.880  1.00  0.00     0.191 HD
ENDBRANCH  10  12
ENDBRANCH   7  10
BRANCH   4  22
HETATM   22  N3  UNL     1      56.453   8.634  26.435  1.00  0.00    -0.225 N 
ATOM     23  H3  UNL     1      55.671   9.238  26.690  1.00  0.00     0.177 HD
BRANCH  22  24
HETATM   24  C3  UNL     1      57.213   8.946  25.270  1.00  0.00     0.138 C 
BRANCH  24  25
HETATM   25  C4  UNL     1      57.680  10.410  25.280  1.00  0.00     0.022 C 
BRANCH  25  26
HETATM   26  C5  UNL     1      59.178  10.371  25.060  1.00  0.00     0.029 C 
BRANCH  26  27
HETATM   27  C6  UNL     1      59.895   9.730  26.228  1.00  0.00     0.229 C 
BRANCH  27  28
HETATM   28  N4  UNL     1      60.730   8.668  25.692  1.00  0.00    -0.079 N 
ATOM     29  H43 UNL     1      60.195   7.946  25.208  1.00  0.00     0.274 HD
ATOM     30  H42 UNL     1      61.297   8.967  24.898  1.00  0.00     0.274 HD
ATOM     31  H41 UNL     1      61.286   8.301  26.464  1.00  0.00     0.274 HD
ENDBRANCH  27  28
ENDBRANCH  26  27
ENDBRANCH  25  26
ENDBRANCH  24  25
ENDBRANCH  22  24
ENDBRANCH   4  22
BRANCH   1  32
HETATM   32  N1  UNL     1      59.240   5.121  27.457  1.00  0.00    -0.234 N 
ATOM     33  H12 UNL     1      59.955   5.481  26.825  1.00  0.00     0.174 HD
ATOM     34  H11 UNL     1      59.394   4.215  27.900  1.00  0.00     0.174 HD
ENDBRANCH   1  32
TORSDOF 9
ENDMDL
