MODEL 1
REMARK VINA RESULT: -7.741198583      0.000      0.000
REMARK  8 active torsions:
REMARK  status: ('A' for Active; 'I' for Inactive)
REMARK    1  A    between atoms: C2_2  and  C3_3 
REMARK    2  A    between atoms: C3_3  and  C4_4 
REMARK    3  A    between atoms: C4_4  and  C5_5 
REMARK    4  A    between atoms: C5_5  and  N1_6 
REMARK    5  A    between atoms: N1_6  and  C6_8 
REMARK    6  A    between atoms: C7_11  and  N3_12 
REMARK       I    between atoms: N3_12  and  C8_14 
REMARK    7  A    between atoms: N6_19  and  O1_20 
REMARK    8  A    between atoms: C9_22  and  N7_23 
REMARK       I    between atoms: N7_23  and  C10_25 
REMARK       I    between atoms: C10_25  and  N8_26 
REMARK       I    between atoms: C10_25  and  N9_30 
ROOT
HETATM    1  C6  UNL     1      56.391   7.004  27.560  1.00  0.00     0.707 A 
HETATM    2  N2  UNL     1      57.537   6.537  27.034  1.00  0.00    -0.019 N 
ATOM      3  H2  UNL     1      58.071   5.833  27.543  1.00  0.00     0.203 HD
HETATM    4  C7  UNL     1      57.999   6.988  25.833  1.00  0.00     0.741 A 
HETATM    5  N6  UNL     1      57.274   7.916  25.188  1.00  0.00     0.128 N 
HETATM    6  C9  UNL     1      56.129   8.406  25.677  1.00  0.00     0.737 A 
HETATM    7  N10 UNL     1      55.698   7.930  26.883  1.00  0.00    -0.019 N 
ATOM      8  H10 UNL     1      54.829   8.288  27.277  1.00  0.00     0.203 HD
ENDROOT
BRANCH   6   9
HETATM    9  N7  UNL     1      55.437   9.262  25.108  1.00  0.00    -0.170 N 
HETATM   10  C10 UNL     1      55.327  10.663  25.184  1.00  0.00     0.494 C 
HETATM   11  N8  UNL     1      54.073  11.051  24.498  1.00  0.00    -0.032 N 
HETATM   12  N9  UNL     1      56.362  11.399  24.477  1.00  0.00    -0.032 N 
ATOM     13  H83 UNL     1      54.019  10.700  23.542  1.00  0.00     0.278 HD
ATOM     14  H82 UNL     1      53.254  10.568  24.865  1.00  0.00     0.278 HD
ATOM     15  H81 UNL     1      53.993  12.066  24.553  1.00  0.00     0.278 HD
ATOM     16  H93 UNL     1      57.285  11.101  24.794  1.00  0.00     0.278 HD
ATOM     17  H92 UNL     1      56.404  11.101  23.503  1.00  0.00     0.278 HD
ATOM     18  H91 UNL     1      56.282  12.414  24.532  1.00  0.00     0.278 HD
ATOM     19  H7  UNL     1      54.797   8.856  24.425  1.00  0.00     0.181 HD
ENDBRANCH   6   9
BRANCH   5  20
HETATM   20  O1  UNL     1      57.710   8.390  23.979  1.00  0.00    -0.256 OA
ATOM     21  H1  UNL     1      57.081   8.755  23.367  1.00  0.00     0.246 HD
ENDBRANCH   5  20
BRANCH   4  22
HETATM   22  N3  UNL     1      59.088   6.530  25.355  1.00  0.00    -0.161 N 
HETATM   23  C8  UNL     1      60.355   6.492  25.919  1.00  0.00     0.200 C 
HETATM   24  N4  UNL     1      61.179   7.477  25.694  1.00  0.00    -0.373 N 
HETATM   25  N5  UNL     1      60.730   5.372  26.727  1.00  0.00    -0.063 NA
ATOM     26  H42 UNL     1      60.912   8.275  25.118  1.00  0.00     0.158 HD
ATOM     27  H41 UNL     1      62.111   7.449  26.109  1.00  0.00     0.158 HD
ATOM     28  H3  UNL     1      59.018   6.133  24.418  1.00  0.00     0.187 HD
ENDBRANCH   4  22
BRANCH   1  29
HETATM   29  N1  UNL     1      55.974   6.553  28.714  1.00  0.00    -0.225 N 
ATOM     30  H1  UNL     1      54.976   6.389  28.853  1.00  0.00     0.177 HD
BRANCH  29  31
HETATM   31  C5  UNL     1      56.888   6.281  29.797  1.00  0.00     0.138 C 
BRANCH  31  32
HETATM   32  C4  UNL     1      56.993   7.536  30.623  1.00  0.00     0.020 C 
BRANCH  32  33
HETATM   33  C3  UNL     1      58.392   8.073  30.557  1.00  0.00     0.001 C 
BRANCH  33  34
HETATM   34  C2  UNL     1      59.367   6.972  30.323  1.00  0.00    -0.004 C 
HETATM   35  C1  UNL     1      60.570   7.569  29.594  1.00  0.00     0.005 C 
ENDBRANCH  33  34
ENDBRANCH  32  33
ENDBRANCH  31  32
ENDBRANCH  29  31
ENDBRANCH   1  29
TORSDOF 8
ENDMDL
MODEL 2
REMARK VINA RESULT: -7.485816296      2.329      4.764
REMARK  8 active torsions:
REMARK  status: ('A' for Active; 'I' for Inactive)
REMARK    1  A    between atoms: C2_2  and  C3_3 
REMARK    2  A    between atoms: C3_3  and  C4_4 
REMARK    3  A    between atoms: C4_4  and  C5_5 
REMARK    4  A    between atoms: C5_5  and  N1_6 
REMARK    5  A    between atoms: N1_6  and  C6_8 
REMARK    6  A    between atoms: C7_11  and  N3_12 
REMARK       I    between atoms: N3_12  and  C8_14 
REMARK    7  A    between atoms: N6_19  and  O1_20 
REMARK    8  A    between atoms: C9_22  and  N7_23 
REMARK       I    between atoms: N7_23  and  C10_25 
REMARK       I    between atoms: C10_25  and  N8_26 
REMARK       I    between atoms: C10_25  and  N9_30 
ROOT
HETATM    1  C6  UNL     1      56.226   7.021  28.997  1.00  0.00     0.707 A 
HETATM    2  N2  UNL     1      56.830   7.859  28.136  1.00  0.00    -0.019 N 
ATOM      3  H2  UNL     1      56.622   8.857  28.180  1.00  0.00     0.203 HD
HETATM    4  C7  UNL     1      57.714   7.400  27.205  1.00  0.00     0.741 A 
HETATM    5  N6  UNL     1      57.964   6.081  27.173  1.00  0.00     0.128 N 
HETATM    6  C9  UNL     1      57.385   5.215  28.011  1.00  0.00     0.737 A 
HETATM    7  N10 UNL     1      56.505   5.712  28.930  1.00  0.00    -0.019 N 
ATOM      8  H10 UNL     1      56.050   5.072  29.580  1.00  0.00     0.203 HD
ENDROOT
BRANCH   6   9
HETATM    9  N7  UNL     1      57.594   3.994  28.008  1.00  0.00    -0.170 N 
HETATM   10  C10 UNL     1      56.993   2.880  28.625  1.00  0.00     0.494 C 
HETATM   11  N8  UNL     1      57.926   1.738  28.493  1.00  0.00    -0.032 N 
HETATM   12  N9  UNL     1      55.769   2.415  27.994  1.00  0.00    -0.032 N 
ATOM     13  H83 UNL     1      58.198   1.558  27.528  1.00  0.00     0.278 HD
ATOM     14  H82 UNL     1      58.856   1.941  28.859  1.00  0.00     0.278 HD
ATOM     15  H81 UNL     1      57.491   0.932  28.941  1.00  0.00     0.278 HD
ATOM     16  H93 UNL     1      55.098   3.180  27.919  1.00  0.00     0.278 HD
ATOM     17  H92 UNL     1      55.933   2.224  27.006  1.00  0.00     0.278 HD
ATOM     18  H91 UNL     1      55.334   1.608  28.441  1.00  0.00     0.278 HD
ATOM     19  H7  UNL     1      58.386   3.734  27.420  1.00  0.00     0.181 HD
ENDBRANCH   6   9
BRANCH   5  20
HETATM   20  O1  UNL     1      58.848   5.586  26.249  1.00  0.00    -0.256 OA
ATOM     21  H1  UNL     1      59.185   6.161  25.572  1.00  0.00     0.246 HD
ENDBRANCH   5  20
BRANCH   4  22
HETATM   22  N3  UNL     1      58.273   8.213  26.399  1.00  0.00    -0.161 N 
HETATM   23  C8  UNL     1      57.720   8.958  25.367  1.00  0.00     0.200 C 
HETATM   24  N4  UNL     1      57.704   8.457  24.163  1.00  0.00    -0.373 N 
HETATM   25  N5  UNL     1      57.187  10.257  25.645  1.00  0.00    -0.063 NA
ATOM     26  H42 UNL     1      58.083   7.532  23.965  1.00  0.00     0.158 HD
ATOM     27  H41 UNL     1      57.297   9.005  23.404  1.00  0.00     0.158 HD
ATOM     28  H3  UNL     1      59.277   8.335  26.533  1.00  0.00     0.187 HD
ENDBRANCH   4  22
BRANCH   1  29
HETATM   29  N1  UNL     1      55.382   7.492  29.878  1.00  0.00    -0.225 N 
ATOM     30  H1  UNL     1      54.583   8.040  29.558  1.00  0.00     0.177 HD
BRANCH  29  31
HETATM   31  C5  UNL     1      55.551   7.257  31.292  1.00  0.00     0.138 C 
BRANCH  31  32
HETATM   32  C4  UNL     1      56.961   7.648  31.647  1.00  0.00     0.020 C 
BRANCH  32  33
HETATM   33  C3  UNL     1      57.599   6.565  32.467  1.00  0.00     0.001 C 
BRANCH  33  34
HETATM   34  C2  UNL     1      58.691   5.900  31.703  1.00  0.00    -0.004 C 
HETATM   35  C1  UNL     1      59.322   6.952  30.793  1.00  0.00     0.005 C 
ENDBRANCH  33  34
ENDBRANCH  32  33
ENDBRANCH  31  32
ENDBRANCH  29  31
ENDBRANCH   1  29
TORSDOF 8
ENDMDL
MODEL 3
REMARK VINA RESULT: -7.480912827      1.944      5.142
REMARK  8 active torsions:
REMARK  status: ('A' for Active; 'I' for Inactive)
REMARK    1  A    between atoms: C2_2  and  C3_3 
REMARK    2  A    between atoms: C3_3  and  C4_4 
REMARK    3  A    between atoms: C4_4  and  C5_5 
REMARK    4  A    between atoms: C5_5  and  N1_6 
REMARK    5  A    between atoms: N1_6  and  C6_8 
REMARK    6  A    between atoms: C7_11  and  N3_12 
REMARK       I    between atoms: N3_12  and  C8_14 
REMARK    7  A    between atoms: N6_19  and  O1_20 
REMARK    8  A    between atoms: C9_22  and  N7_23 
REMARK       I    between atoms: N7_23  and  C10_25 
REMARK       I    between atoms: C10_25  and  N8_26 
REMARK       I    between atoms: C10_25  and  N9_30 
ROOT
HETATM    1  C6  UNL     1      58.551   5.740  27.249  1.00  0.00     0.707 A 
HETATM    2  N2  UNL     1      57.965   6.675  26.483  1.00  0.00    -0.019 N 
ATOM      3  H2  UNL     1      56.950   6.674  26.380  1.00  0.00     0.203 HD
HETATM    4  C7  UNL     1      58.700   7.626  25.839  1.00  0.00     0.741 A 
HETATM    5  N6  UNL     1      60.033   7.600  25.994  1.00  0.00     0.128 N 
HETATM    6  C9  UNL     1      60.656   6.687  26.747  1.00  0.00     0.737 A 
HETATM    7  N10 UNL     1      59.885   5.751  27.376  1.00  0.00    -0.019 N 
ATOM      8  H10 UNL     1      60.336   5.044  27.956  1.00  0.00     0.203 HD
ENDROOT
BRANCH   6   9
HETATM    9  N7  UNL     1      61.883   6.636  26.911  1.00  0.00    -0.170 N 
HETATM   10  C10 UNL     1      62.747   5.877  27.723  1.00  0.00     0.494 C 
HETATM   11  N8  UNL     1      64.073   6.535  27.701  1.00  0.00    -0.032 N 
HETATM   12  N9  UNL     1      63.010   4.529  27.246  1.00  0.00    -0.032 N 
ATOM     13  H83 UNL     1      64.434   6.671  26.757  1.00  0.00     0.278 HD
ATOM     14  H82 UNL     1      64.034   7.517  27.972  1.00  0.00     0.278 HD
ATOM     15  H81 UNL     1      64.699   5.985  28.289  1.00  0.00     0.278 HD
ATOM     16  H93 UNL     1      62.133   4.029  27.102  1.00  0.00     0.278 HD
ATOM     17  H92 UNL     1      63.359   4.555  26.289  1.00  0.00     0.278 HD
ATOM     18  H91 UNL     1      63.636   3.979  27.835  1.00  0.00     0.278 HD
ATOM     19  H7  UNL     1      62.384   7.298  26.318  1.00  0.00     0.181 HD
ENDBRANCH   6   9
BRANCH   5  20
HETATM   20  O1  UNL     1      60.803   8.542  25.361  1.00  0.00    -0.256 OA
ATOM     21  H1  UNL     1      61.627   8.808  25.749  1.00  0.00     0.246 HD
ENDBRANCH   5  20
BRANCH   4  22
HETATM   22  N3  UNL     1      58.121   8.503  25.118  1.00  0.00    -0.161 N 
HETATM   23  C8  UNL     1      57.703   9.784  25.447  1.00  0.00     0.200 C 
HETATM   24  N4  UNL     1      56.483   9.963  25.874  1.00  0.00    -0.373 N 
HETATM   25  N5  UNL     1      58.614  10.878  25.305  1.00  0.00    -0.063 NA
ATOM     26  H42 UNL     1      55.834   9.183  25.975  1.00  0.00     0.158 HD
ATOM     27  H41 UNL     1      56.177  10.905  26.116  1.00  0.00     0.158 HD
ATOM     28  H3  UNL     1      57.937   8.220  24.155  1.00  0.00     0.187 HD
ENDBRANCH   4  22
BRANCH   1  29
HETATM   29  N1  UNL     1      57.819   4.841  27.853  1.00  0.00    -0.225 N 
ATOM     30  H1  UNL     1      57.022   4.435  27.360  1.00  0.00     0.177 HD
BRANCH  29  31
HETATM   31  C5  UNL     1      58.107   4.406  29.199  1.00  0.00     0.138 C 
BRANCH  31  32
HETATM   32  C4  UNL     1      57.641   5.494  30.131  1.00  0.00     0.020 C 
BRANCH  32  33
HETATM   33  C3  UNL     1      58.679   5.737  31.187  1.00  0.00     0.001 C 
BRANCH  33  34
HETATM   34  C2  UNL     1      59.718   6.685  30.695  1.00  0.00    -0.004 C 
HETATM   35  C1  UNL     1      58.999   7.938  30.198  1.00  0.00     0.005 C 
ENDBRANCH  33  34
ENDBRANCH  32  33
ENDBRANCH  31  32
ENDBRANCH  29  31
ENDBRANCH   1  29
TORSDOF 8
ENDMDL
MODEL 4
REMARK VINA RESULT: -7.453320477      1.592      4.454
REMARK  8 active torsions:
REMARK  status: ('A' for Active; 'I' for Inactive)
REMARK    1  A    between atoms: C2_2  and  C3_3 
REMARK    2  A    between atoms: C3_3  and  C4_4 
REMARK    3  A    between atoms: C4_4  and  C5_5 
REMARK    4  A    between atoms: C5_5  and  N1_6 
REMARK    5  A    between atoms: N1_6  and  C6_8 
REMARK    6  A    between atoms: C7_11  and  N3_12 
REMARK       I    between atoms: N3_12  and  C8_14 
REMARK    7  A    between atoms: N6_19  and  O1_20 
REMARK    8  A    between atoms: C9_22  and  N7_23 
REMARK       I    between atoms: N7_23  and  C10_25 
REMARK       I    between atoms: C10_25  and  N8_26 
REMARK       I    between atoms: C10_25  and  N9_30 
ROOT
HETATM    1  C6  UNL     1      59.366   6.029  26.196  1.00  0.00     0.707 A 
HETATM    2  N2  UNL     1      59.176   7.083  25.383  1.00  0.00    -0.019 N 
ATOM      3  H2  UNL     1      59.903   7.337  24.714  1.00  0.00     0.203 HD
HETATM    4  C7  UNL     1      58.030   7.820  25.437  1.00  0.00     0.741 A 
HETATM    5  N6  UNL     1      57.094   7.461  26.330  1.00  0.00     0.128 N 
HETATM    6  C9  UNL     1      57.244   6.420  27.156  1.00  0.00     0.737 A 
HETATM    7  N10 UNL     1      58.405   5.706  27.072  1.00  0.00    -0.019 N 
ATOM      8  H10 UNL     1      58.544   4.907  27.691  1.00  0.00     0.203 HD
ENDROOT
BRANCH   6   9
HETATM    9  N7  UNL     1      56.400   6.063  27.990  1.00  0.00    -0.170 N 
HETATM   10  C10 UNL     1      56.164   6.344  29.349  1.00  0.00     0.494 C 
HETATM   11  N8  UNL     1      55.208   5.333  29.855  1.00  0.00    -0.032 N 
HETATM   12  N9  UNL     1      55.508   7.616  29.607  1.00  0.00    -0.032 N 
ATOM     13  H83 UNL     1      54.351   5.287  29.305  1.00  0.00     0.278 HD
ATOM     14  H82 UNL     1      55.521   4.376  29.696  1.00  0.00     0.278 HD
ATOM     15  H81 UNL     1      55.037   5.537  30.840  1.00  0.00     0.278 HD
ATOM     16  H93 UNL     1      56.033   8.377  29.176  1.00  0.00     0.278 HD
ATOM     17  H92 UNL     1      54.638   7.678  29.079  1.00  0.00     0.278 HD
ATOM     18  H91 UNL     1      55.337   7.819  30.592  1.00  0.00     0.278 HD
ATOM     19  H7  UNL     1      55.716   5.413  27.601  1.00  0.00     0.181 HD
ENDBRANCH   6   9
BRANCH   5  20
HETATM   20  O1  UNL     1      55.930   8.181  26.411  1.00  0.00    -0.256 OA
ATOM     21  H1  UNL     1      55.339   8.032  27.139  1.00  0.00     0.246 HD
ENDBRANCH   5  20
BRANCH   4  22
HETATM   22  N3  UNL     1      57.873   8.815  24.657  1.00  0.00    -0.161 N 
HETATM   23  C8  UNL     1      57.785  10.168  24.955  1.00  0.00     0.200 C 
HETATM   24  N4  UNL     1      56.610  10.697  25.156  1.00  0.00    -0.373 N 
HETATM   25  N5  UNL     1      58.981  10.950  25.027  1.00  0.00    -0.063 NA
ATOM     26  H42 UNL     1      55.758  10.139  25.104  1.00  0.00     0.158 HD
ATOM     27  H41 UNL     1      56.545  11.691  25.375  1.00  0.00     0.158 HD
ATOM     28  H3  UNL     1      57.801   8.583  23.666  1.00  0.00     0.187 HD
ENDBRANCH   4  22
BRANCH   1  29
HETATM   29  N1  UNL     1      60.476   5.342  26.120  1.00  0.00    -0.225 N 
ATOM     30  H1  UNL     1      60.785   4.993  25.212  1.00  0.00     0.177 HD
BRANCH  29  31
HETATM   31  C5  UNL     1      61.276   5.062  27.289  1.00  0.00     0.138 C 
BRANCH  31  32
HETATM   32  C4  UNL     1      61.986   6.337  27.662  1.00  0.00     0.020 C 
BRANCH  32  33
HETATM   33  C3  UNL     1      61.661   6.704  29.080  1.00  0.00     0.001 C 
BRANCH  33  34
HETATM   34  C2  UNL     1      60.809   7.925  29.124  1.00  0.00    -0.004 C 
HETATM   35  C1  UNL     1      59.611   7.619  30.021  1.00  0.00     0.005 C 
ENDBRANCH  33  34
ENDBRANCH  32  33
ENDBRANCH  31  32
ENDBRANCH  29  31
ENDBRANCH   1  29
TORSDOF 8
ENDMDL
MODEL 5
REMARK VINA RESULT: -7.442942574      3.847      6.111
REMARK  8 active torsions:
REMARK  status: ('A' for Active; 'I' for Inactive)
REMARK    1  A    between atoms: C2_2  and  C3_3 
REMARK    2  A    between atoms: C3_3  and  C4_4 
REMARK    3  A    between atoms: C4_4  and  C5_5 
REMARK    4  A    between atoms: C5_5  and  N1_6 
REMARK    5  A    between atoms: N1_6  and  C6_8 
REMARK    6  A    between atoms: C7_11  and  N3_12 
REMARK       I    between atoms: N3_12  and  C8_14 
REMARK    7  A    between atoms: N6_19  and  O1_20 
REMARK    8  A    between atoms: C9_22  and  N7_23 
REMARK       I    between atoms: N7_23  and  C10_25 
REMARK       I    between atoms: C10_25  and  N8_26 
REMARK       I    between atoms: C10_25  and  N9_30 
ROOT
HETATM    1  C6  UNL     1      55.936   4.682  27.409  1.00  0.00     0.707 A 
HETATM    2  N2  UNL     1      56.034   3.375  27.709  1.00  0.00    -0.019 N 
ATOM      3  H2  UNL     1      55.358   2.719  27.316  1.00  0.00     0.203 HD
HETATM    4  C7  UNL     1      57.018   2.909  28.529  1.00  0.00     0.741 A 
HETATM    5  N6  UNL     1      57.890   3.798  29.031  1.00  0.00     0.128 N 
HETATM    6  C9  UNL     1      57.828   5.106  28.758  1.00  0.00     0.737 A 
HETATM    7  N10 UNL     1      56.828   5.534  27.932  1.00  0.00    -0.019 N 
ATOM      8  H10 UNL     1      56.759   6.527  27.708  1.00  0.00     0.203 HD
ENDROOT
BRANCH   6   9
HETATM    9  N7  UNL     1      58.617   5.951  29.204  1.00  0.00    -0.170 N 
HETATM   10  C10 UNL     1      58.674   6.741  30.368  1.00  0.00     0.494 C 
HETATM   11  N8  UNL     1      59.685   7.798  30.141  1.00  0.00    -0.032 N 
HETATM   12  N9  UNL     1      59.143   6.048  31.557  1.00  0.00    -0.032 N 
ATOM     13  H83 UNL     1      60.594   7.426  29.869  1.00  0.00     0.278 HD
ATOM     14  H82 UNL     1      59.507   8.345  29.299  1.00  0.00     0.278 HD
ATOM     15  H81 UNL     1      59.727   8.371  30.984  1.00  0.00     0.278 HD
ATOM     16  H93 UNL     1      58.579   5.214  31.724  1.00  0.00     0.278 HD
ATOM     17  H92 UNL     1      60.050   5.617  31.378  1.00  0.00     0.278 HD
ATOM     18  H91 UNL     1      59.185   6.620  32.400  1.00  0.00     0.278 HD
ATOM     19  H7  UNL     1      59.409   6.113  28.582  1.00  0.00     0.181 HD
ENDBRANCH   6   9
BRANCH   5  20
HETATM   20  O1  UNL     1      58.893   3.364  29.860  1.00  0.00    -0.256 OA
ATOM     21  H1  UNL     1      58.954   2.440  30.073  1.00  0.00     0.246 HD
ENDBRANCH   5  20
BRANCH   4  22
HETATM   22  N3  UNL     1      57.090   1.666  28.800  1.00  0.00    -0.161 N 
HETATM   23  C8  UNL     1      57.532   0.613  28.011  1.00  0.00     0.200 C 
HETATM   24  N4  UNL     1      56.667  -0.041  27.285  1.00  0.00    -0.373 N 
HETATM   25  N5  UNL     1      58.920   0.265  28.016  1.00  0.00    -0.063 NA
ATOM     26  H42 UNL     1      55.679   0.207  27.282  1.00  0.00     0.158 HD
ATOM     27  H41 UNL     1      56.992  -0.815  26.705  1.00  0.00     0.158 HD
ATOM     28  H3  UNL     1      56.777   1.406  29.735  1.00  0.00     0.187 HD
ENDBRANCH   4  22
BRANCH   1  29
HETATM   29  N1  UNL     1      54.980   5.098  26.620  1.00  0.00    -0.225 N 
ATOM     30  H1  UNL     1      54.041   5.222  26.999  1.00  0.00     0.177 HD
BRANCH  29  31
HETATM   31  C5  UNL     1      55.218   5.386  25.226  1.00  0.00     0.138 C 
BRANCH  31  32
HETATM   32  C4  UNL     1      54.949   6.853  25.018  1.00  0.00     0.020 C 
BRANCH  32  33
HETATM   33  C3  UNL     1      56.247   7.598  24.907  1.00  0.00     0.001 C 
BRANCH  33  34
HETATM   34  C2  UNL     1      57.318   6.711  24.372  1.00  0.00    -0.004 C 
HETATM   35  C1  UNL     1      58.545   6.880  25.267  1.00  0.00     0.005 C 
ENDBRANCH  33  34
ENDBRANCH  32  33
ENDBRANCH  31  32
ENDBRANCH  29  31
ENDBRANCH   1  29
TORSDOF 8
ENDMDL
