MODEL 1
REMARK VINA RESULT: -7.881996959      0.000      0.000
REMARK  7 active torsions:
REMARK  status: ('A' for Active; 'I' for Inactive)
REMARK    1  A    between atoms: N1_1  and  C1_4 
REMARK    2  A    between atoms: N4_14  and  C5_15 
REMARK    3  A    between atoms: C5_15  and  O3_16 
REMARK    4  A    between atoms: O3_16  and  C6_17 
REMARK    5  A    between atoms: C6_17  and  C7_18 
REMARK    6  A    between atoms: C7_18  and  N5_19 
REMARK    7  A    between atoms: N5_19  and  N6_21 
REMARK       I    between atoms: N6_21  and  C8_23 
ROOT
HETATM    1  C1  UNL     1      60.495   5.379  29.430  1.00  0.00     0.680 A 
HETATM    2  N2  UNL     1      61.621   5.522  28.712  1.00  0.00    -0.154 N 
ATOM      3  H2  UNL     1      62.523   5.398  29.174  1.00  0.00     0.187 HD
HETATM    4  C2  UNL     1      61.593   5.825  27.402  1.00  0.00     0.290 A 
HETATM    5  O1  UNL     1      62.635   5.958  26.739  1.00  0.00    -0.265 OA
HETATM    6  C3  UNL     1      60.368   5.999  26.755  1.00  0.00     0.151 A 
HETATM    7  N3  UNL     1      60.004   6.295  25.510  1.00  0.00    -0.300 N 
ATOM      8  H3  UNL     1      60.650   6.461  24.738  1.00  0.00     0.171 HD
HETATM    9  C4  UNL     1      58.657   6.345  25.410  1.00  0.00     0.330 A 
HETATM   10  O2  UNL     1      58.004   6.601  24.358  1.00  0.00    -0.246 OA
HETATM   11  N4  UNL     1      58.202   6.070  26.639  1.00  0.00    -0.261 N 
HETATM   12  C9  UNL     1      59.222   5.852  27.496  1.00  0.00     0.161 A 
HETATM   13  N9  UNL     1      59.316   5.547  28.803  1.00  0.00    -0.174 N 
ATOM     14  H9  UNL     1      58.458   5.439  29.343  1.00  0.00     0.186 HD
ENDROOT
BRANCH  11  15
HETATM   15  C5  UNL     1      56.812   6.010  27.015  1.00  0.00     0.305 C 
BRANCH  15  16
HETATM   16  O3  UNL     1      56.583   4.769  27.594  1.00  0.00    -0.366 OA
BRANCH  16  17
HETATM   17  C6  UNL     1      55.297   4.360  27.277  1.00  0.00     0.216 C 
BRANCH  17  18
HETATM   18  C7  UNL     1      54.922   3.087  27.930  1.00  0.00     0.106 C 
BRANCH  18  19
HETATM   19  N5  UNL     1      55.794   2.484  28.664  1.00  0.00    -0.312 N 
ATOM     20  H5  UNL     1      55.913   2.797  29.628  1.00  0.00     0.185 HD
BRANCH  19  21
HETATM   21  N6  UNL     1      56.575   1.436  28.215  1.00  0.00    -0.277 N 
HETATM   22  C8  UNL     1      57.846   1.404  28.453  1.00  0.00     0.215 C 
HETATM   23  N7  UNL     1      58.673   0.345  28.006  1.00  0.00    -0.065 NA
HETATM   24  N8  UNL     1      58.443   2.459  29.185  1.00  0.00    -0.065 NA
ATOM     25  H6  UNL     1      56.142   0.677  27.689  1.00  0.00     0.189 HD
ENDBRANCH  19  21
ENDBRANCH  18  19
ENDBRANCH  17  18
ENDBRANCH  16  17
ENDBRANCH  15  16
ENDBRANCH  11  15
BRANCH   1  26
HETATM   26  N1  UNL     1      60.568   5.082  30.704  1.00  0.00    -0.234 N 
ATOM     27  H12 UNL     1      60.067   5.617  31.414  1.00  0.00     0.174 HD
ATOM     28  H11 UNL     1      61.141   4.295  31.009  1.00  0.00     0.174 HD
ENDBRANCH   1  26
TORSDOF 7
ENDMDL
MODEL 2
REMARK VINA RESULT: -7.867622025      2.729      5.602
REMARK  7 active torsions:
REMARK  status: ('A' for Active; 'I' for Inactive)
REMARK    1  A    between atoms: N1_1  and  C1_4 
REMARK    2  A    between atoms: N4_14  and  C5_15 
REMARK    3  A    between atoms: C5_15  and  O3_16 
REMARK    4  A    between atoms: O3_16  and  C6_17 
REMARK    5  A    between atoms: C6_17  and  C7_18 
REMARK    6  A    between atoms: C7_18  and  N5_19 
REMARK    7  A    between atoms: N5_19  and  N6_21 
REMARK       I    between atoms: N6_21  and  C8_23 
ROOT
HETATM    1  C1  UNL     1      56.312   9.278  25.500  1.00  0.00     0.680 A 
HETATM    2  N2  UNL     1      55.758   8.174  24.971  1.00  0.00    -0.154 N 
ATOM      3  H2  UNL     1      54.793   8.211  24.644  1.00  0.00     0.187 HD
HETATM    4  C2  UNL     1      56.443   7.021  24.861  1.00  0.00     0.290 A 
HETATM    5  O1  UNL     1      55.931   6.001  24.371  1.00  0.00    -0.265 OA
HETATM    6  C3  UNL     1      57.766   6.953  25.304  1.00  0.00     0.151 A 
HETATM    7  N3  UNL     1      58.690   5.997  25.339  1.00  0.00    -0.300 N 
ATOM      8  H3  UNL     1      58.554   5.044  25.002  1.00  0.00     0.171 HD
HETATM    9  C4  UNL     1      59.835   6.465  25.883  1.00  0.00     0.330 A 
HETATM   10  O2  UNL     1      60.897   5.800  26.054  1.00  0.00    -0.246 OA
HETATM   11  N4  UNL     1      59.584   7.746  26.184  1.00  0.00    -0.261 N 
HETATM   12  C9  UNL     1      58.323   8.086  25.844  1.00  0.00     0.161 A 
HETATM   13  N9  UNL     1      57.586   9.209  25.926  1.00  0.00    -0.174 N 
ATOM     14  H9  UNL     1      58.011  10.044  26.328  1.00  0.00     0.186 HD
ENDROOT
BRANCH  11  15
HETATM   15  C5  UNL     1      60.524   8.655  26.789  1.00  0.00     0.305 C 
BRANCH  15  16
HETATM   16  O3  UNL     1      60.527   8.414  28.156  1.00  0.00    -0.366 OA
BRANCH  16  17
HETATM   17  C6  UNL     1      61.829   8.509  28.623  1.00  0.00     0.216 C 
BRANCH  17  18
HETATM   18  C7  UNL     1      62.453   7.188  28.854  1.00  0.00     0.106 C 
BRANCH  18  19
HETATM   19  N5  UNL     1      61.885   6.365  29.667  1.00  0.00    -0.312 N 
ATOM     20  H5  UNL     1      62.197   6.352  30.639  1.00  0.00     0.185 HD
BRANCH  19  21
HETATM   21  N6  UNL     1      60.875   5.500  29.294  1.00  0.00    -0.277 N 
HETATM   22  C8  UNL     1      60.220   4.819  30.178  1.00  0.00     0.215 C 
HETATM   23  N7  UNL     1      59.181   3.924  29.826  1.00  0.00    -0.065 NA
HETATM   24  N8  UNL     1      60.545   4.964  31.548  1.00  0.00    -0.065 NA
ATOM     25  H6  UNL     1      60.642   5.396  28.306  1.00  0.00     0.189 HD
ENDBRANCH  19  21
ENDBRANCH  18  19
ENDBRANCH  17  18
ENDBRANCH  16  17
ENDBRANCH  15  16
ENDBRANCH  11  15
BRANCH   1  26
HETATM   26  N1  UNL     1      55.609  10.380  25.587  1.00  0.00    -0.234 N 
ATOM     27  H12 UNL     1      54.690  10.402  26.029  1.00  0.00     0.174 HD
ATOM     28  H11 UNL     1      55.981  11.250  25.205  1.00  0.00     0.174 HD
ENDBRANCH   1  26
TORSDOF 7
ENDMDL
MODEL 3
REMARK VINA RESULT: -7.689933811      3.297      6.487
REMARK  7 active torsions:
REMARK  status: ('A' for Active; 'I' for Inactive)
REMARK    1  A    between atoms: N1_1  and  C1_4 
REMARK    2  A    between atoms: N4_14  and  C5_15 
REMARK    3  A    between atoms: C5_15  and  O3_16 
REMARK    4  A    between atoms: O3_16  and  C6_17 
REMARK    5  A    between atoms: C6_17  and  C7_18 
REMARK    6  A    between atoms: C7_18  and  N5_19 
REMARK    7  A    between atoms: N5_19  and  N6_21 
REMARK       I    between atoms: N6_21  and  C8_23 
ROOT
HETATM    1  C1  UNL     1      56.546   7.195  28.432  1.00  0.00     0.680 A 
HETATM    2  N2  UNL     1      55.819   7.110  29.558  1.00  0.00    -0.154 N 
ATOM      3  H2  UNL     1      54.856   7.444  29.553  1.00  0.00     0.187 HD
HETATM    4  C2  UNL     1      56.329   6.598  30.693  1.00  0.00     0.290 A 
HETATM    5  O1  UNL     1      55.656   6.520  31.734  1.00  0.00    -0.265 OA
HETATM    6  C3  UNL     1      57.646   6.137  30.718  1.00  0.00     0.151 A 
HETATM    7  N3  UNL     1      58.428   5.593  31.647  1.00  0.00    -0.300 N 
ATOM      8  H3  UNL     1      58.144   5.405  32.608  1.00  0.00     0.171 HD
HETATM    9  C4  UNL     1      59.650   5.323  31.139  1.00  0.00     0.330 A 
HETATM   10  O2  UNL     1      60.614   4.803  31.771  1.00  0.00    -0.246 OA
HETATM   11  N4  UNL     1      59.597   5.721  29.862  1.00  0.00    -0.261 N 
HETATM   12  C9  UNL     1      58.382   6.228  29.562  1.00  0.00     0.161 A 
HETATM   13  N9  UNL     1      57.816   6.750  28.459  1.00  0.00    -0.174 N 
ATOM     14  H9  UNL     1      58.372   6.811  27.606  1.00  0.00     0.186 HD
ENDROOT
BRANCH  11  15
HETATM   15  C5  UNL     1      60.681   5.627  28.917  1.00  0.00     0.305 C 
BRANCH  15  16
HETATM   16  O3  UNL     1      60.297   4.744  27.917  1.00  0.00    -0.366 OA
BRANCH  16  17
HETATM   17  C6  UNL     1      60.791   5.201  26.705  1.00  0.00     0.216 C 
BRANCH  17  18
HETATM   18  C7  UNL     1      61.111   6.645  26.724  1.00  0.00     0.106 C 
BRANCH  18  19
HETATM   19  N5  UNL     1      60.731   7.380  25.736  1.00  0.00    -0.312 N 
ATOM     20  H5  UNL     1      60.428   6.917  24.878  1.00  0.00     0.185 HD
BRANCH  19  21
HETATM   21  N6  UNL     1      60.712   8.761  25.776  1.00  0.00    -0.277 N 
HETATM   22  C8  UNL     1      59.594   9.411  25.797  1.00  0.00     0.215 C 
HETATM   23  N7  UNL     1      59.542  10.826  25.837  1.00  0.00    -0.065 NA
HETATM   24  N8  UNL     1      58.373   8.695  25.778  1.00  0.00    -0.065 NA
ATOM     25  H6  UNL     1      61.593   9.276  25.789  1.00  0.00     0.189 HD
ENDBRANCH  19  21
ENDBRANCH  18  19
ENDBRANCH  17  18
ENDBRANCH  16  17
ENDBRANCH  15  16
ENDBRANCH  11  15
BRANCH   1  26
HETATM   26  N1  UNL     1      56.010   7.701  27.348  1.00  0.00    -0.234 N 
ATOM     27  H12 UNL     1      55.363   8.488  27.382  1.00  0.00     0.174 HD
ATOM     28  H11 UNL     1      56.239   7.304  26.436  1.00  0.00     0.174 HD
ENDBRANCH   1  26
TORSDOF 7
ENDMDL
MODEL 4
REMARK VINA RESULT: -7.688616584      2.980      5.544
REMARK  7 active torsions:
REMARK  status: ('A' for Active; 'I' for Inactive)
REMARK    1  A    between atoms: N1_1  and  C1_4 
REMARK    2  A    between atoms: N4_14  and  C5_15 
REMARK    3  A    between atoms: C5_15  and  O3_16 
REMARK    4  A    between atoms: O3_16  and  C6_17 
REMARK    5  A    between atoms: C6_17  and  C7_18 
REMARK    6  A    between atoms: C7_18  and  N5_19 
REMARK    7  A    between atoms: N5_19  and  N6_21 
REMARK       I    between atoms: N6_21  and  C8_23 
ROOT
HETATM    1  C1  UNL     1      61.293   6.894  29.141  1.00  0.00     0.680 A 
HETATM    2  N2  UNL     1      61.443   6.061  30.184  1.00  0.00    -0.154 N 
ATOM      3  H2  UNL     1      62.369   5.942  30.594  1.00  0.00     0.187 HD
HETATM    4  C2  UNL     1      60.404   5.380  30.701  1.00  0.00     0.290 A 
HETATM    5  O1  UNL     1      60.544   4.610  31.666  1.00  0.00    -0.265 OA
HETATM    6  C3  UNL     1      59.130   5.531  30.151  1.00  0.00     0.151 A 
HETATM    7  N3  UNL     1      57.931   5.020  30.418  1.00  0.00    -0.300 N 
ATOM      8  H3  UNL     1      57.737   4.352  31.164  1.00  0.00     0.171 HD
HETATM    9  C4  UNL     1      57.006   5.509  29.563  1.00  0.00     0.330 A 
HETATM   10  O2  UNL     1      55.777   5.216  29.559  1.00  0.00    -0.246 OA
HETATM   11  N4  UNL     1      57.677   6.342  28.757  1.00  0.00    -0.261 N 
HETATM   12  C9  UNL     1      58.986   6.384  29.085  1.00  0.00     0.161 A 
HETATM   13  N9  UNL     1      60.064   7.038  28.613  1.00  0.00    -0.174 N 
ATOM     14  H9  UNL     1      59.944   7.669  27.821  1.00  0.00     0.186 HD
ENDROOT
BRANCH  11  15
HETATM   15  C5  UNL     1      57.096   7.101  27.679  1.00  0.00     0.305 C 
BRANCH  15  16
HETATM   16  O3  UNL     1      57.919   6.959  26.569  1.00  0.00    -0.366 OA
BRANCH  16  17
HETATM   17  C6  UNL     1      57.194   6.357  25.552  1.00  0.00     0.216 C 
BRANCH  17  18
HETATM   18  C7  UNL     1      57.399   7.008  24.239  1.00  0.00     0.106 C 
BRANCH  18  19
HETATM   19  N5  UNL     1      57.486   8.293  24.188  1.00  0.00    -0.312 N 
ATOM     20  H5  UNL     1      56.709   8.813  23.779  1.00  0.00     0.185 HD
BRANCH  19  21
HETATM   21  N6  UNL     1      58.574   9.003  24.657  1.00  0.00    -0.277 N 
HETATM   22  C8  UNL     1      58.423  10.161  25.213  1.00  0.00     0.215 C 
HETATM   23  N7  UNL     1      59.519  10.913  25.703  1.00  0.00    -0.065 NA
HETATM   24  N8  UNL     1      57.124  10.707  25.340  1.00  0.00    -0.065 NA
ATOM     25  H6  UNL     1      59.510   8.607  24.565  1.00  0.00     0.189 HD
ENDBRANCH  19  21
ENDBRANCH  18  19
ENDBRANCH  17  18
ENDBRANCH  16  17
ENDBRANCH  15  16
ENDBRANCH  11  15
BRANCH   1  26
HETATM   26  N1  UNL     1      62.332   7.539  28.668  1.00  0.00    -0.234 N 
ATOM     27  H12 UNL     1      62.774   7.280  27.786  1.00  0.00     0.174 HD
ATOM     28  H11 UNL     1      62.720   8.326  29.189  1.00  0.00     0.174 HD
ENDBRANCH   1  26
TORSDOF 7
ENDMDL
MODEL 5
REMARK VINA RESULT: -7.651363882      2.664      5.629
REMARK  7 active torsions:
REMARK  status: ('A' for Active; 'I' for Inactive)
REMARK    1  A    between atoms: N1_1  and  C1_4 
REMARK    2  A    between atoms: N4_14  and  C5_15 
REMARK    3  A    between atoms: C5_15  and  O3_16 
REMARK    4  A    between atoms: O3_16  and  C6_17 
REMARK    5  A    between atoms: C6_17  and  C7_18 
REMARK    6  A    between atoms: C7_18  and  N5_19 
REMARK    7  A    between atoms: N5_19  and  N6_21 
REMARK       I    between atoms: N6_21  and  C8_23 
ROOT
HETATM    1  C1  UNL     1      57.763   4.696  29.409  1.00  0.00     0.680 A 
HETATM    2  N2  UNL     1      58.525   4.595  30.510  1.00  0.00    -0.154 N 
ATOM      3  H2  UNL     1      58.087   4.336  31.394  1.00  0.00     0.187 HD
HETATM    4  C2  UNL     1      59.850   4.825  30.479  1.00  0.00     0.290 A 
HETATM    5  O1  UNL     1      60.554   4.731  31.499  1.00  0.00    -0.265 OA
HETATM    6  C3  UNL     1      60.466   5.181  29.278  1.00  0.00     0.151 A 
HETATM    7  N3  UNL     1      61.714   5.468  28.917  1.00  0.00    -0.300 N 
ATOM      8  H3  UNL     1      62.515   5.472  29.549  1.00  0.00     0.171 HD
HETATM    9  C4  UNL     1      61.772   5.754  27.598  1.00  0.00     0.330 A 
HETATM   10  O2  UNL     1      62.816   6.065  26.956  1.00  0.00    -0.246 OA
HETATM   11  N4  UNL     1      60.514   5.634  27.155  1.00  0.00    -0.261 N 
HETATM   12  C9  UNL     1      59.679   5.283  28.157  1.00  0.00     0.161 A 
HETATM   13  N9  UNL     1      58.360   5.039  28.252  1.00  0.00    -0.174 N 
ATOM     14  H9  UNL     1      57.786   5.117  27.413  1.00  0.00     0.186 HD
ENDROOT
BRANCH  11  15
HETATM   15  C5  UNL     1      60.090   5.846  25.795  1.00  0.00     0.305 C 
BRANCH  15  16
HETATM   16  O3  UNL     1      59.006   6.714  25.820  1.00  0.00    -0.366 OA
BRANCH  16  17
HETATM   17  C6  UNL     1      58.084   6.303  24.868  1.00  0.00     0.216 C 
BRANCH  17  18
HETATM   18  C7  UNL     1      57.089   7.348  24.545  1.00  0.00     0.106 C 
BRANCH  18  19
HETATM   19  N5  UNL     1      57.501   8.473  24.066  1.00  0.00    -0.312 N 
ATOM     20  H5  UNL     1      57.002   8.870  23.270  1.00  0.00     0.185 HD
BRANCH  19  21
HETATM   21  N6  UNL     1      58.580   9.168  24.575  1.00  0.00    -0.277 N 
HETATM   22  C8  UNL     1      58.414  10.273  25.226  1.00  0.00     0.215 C 
HETATM   23  N7  UNL     1      59.500  11.008  25.759  1.00  0.00    -0.065 NA
HETATM   24  N8  UNL     1      57.104  10.776  25.419  1.00  0.00    -0.065 NA
ATOM     25  H6  UNL     1      59.523   8.804  24.436  1.00  0.00     0.189 HD
ENDBRANCH  19  21
ENDBRANCH  18  19
ENDBRANCH  17  18
ENDBRANCH  16  17
ENDBRANCH  15  16
ENDBRANCH  11  15
BRANCH   1  26
HETATM   26  N1  UNL     1      56.476   4.462  29.484  1.00  0.00    -0.234 N 
ATOM     27  H12 UNL     1      55.783   5.152  29.194  1.00  0.00     0.174 HD
ATOM     28  H11 UNL     1      56.144   3.566  29.841  1.00  0.00     0.174 HD
ENDBRANCH   1  26
TORSDOF 7
ENDMDL
