MODEL 1
REMARK VINA RESULT: -8.418054062      0.000      0.000
REMARK  5 active torsions:
REMARK  status: ('A' for Active; 'I' for Inactive)
REMARK    1  A    between atoms: N5_16  and  C6_17 
REMARK    2  A    between atoms: C6_17  and  O2_18 
REMARK    3  A    between atoms: O2_18  and  C7_19 
REMARK    4  A    between atoms: C7_19  and  C8_20 
REMARK    5  A    between atoms: C8_20  and  N6_21 
ROOT
HETATM    1  C1  UNL     1      60.025   7.512  28.802  1.00  0.00     0.055 C 
HETATM    2  C2  UNL     1      58.926   7.359  27.753  1.00  0.00     0.152 A 
HETATM    3  N1  UNL     1      58.928   8.480  26.846  1.00  0.00    -0.204 N 
ATOM      4  H1  UNL     1      58.145   9.130  26.772  1.00  0.00     0.179 HD
HETATM    5  C3  UNL     1      60.126   8.611  26.050  1.00  0.00     0.675 C 
HETATM    6  N2  UNL     1      60.533   9.754  25.614  1.00  0.00    -0.235 N 
ATOM      7  H21 UNL     1      61.379   9.845  25.051  1.00  0.00     0.174 HD
ATOM      8  H22 UNL     1      59.998  10.594  25.834  1.00  0.00     0.174 HD
HETATM    9  N3  UNL     1      60.866   7.449  25.745  1.00  0.00    -0.155 N 
ATOM     10  H3  UNL     1      61.714   7.532  25.184  1.00  0.00     0.187 HD
HETATM   11  C4  UNL     1      60.453   6.160  26.204  1.00  0.00     0.286 C 
HETATM   12  O1  UNL     1      61.069   5.106  25.963  1.00  0.00    -0.265 OA
HETATM   13  C5  UNL     1      59.226   6.102  27.006  1.00  0.00     0.131 A 
HETATM   14  N4  UNL     1      58.305   5.245  27.211  1.00  0.00    -0.291 N 
ATOM     15  H4  UNL     1      58.300   4.308  26.807  1.00  0.00     0.187 HD
HETATM   16  N5  UNL     1      57.308   5.736  28.049  1.00  0.00    -0.254 N 
HETATM   17  C10 UNL     1      57.647   7.064  28.406  1.00  0.00     0.129 A 
HETATM   18  N9  UNL     1      56.922   7.825  29.169  1.00  0.00    -0.385 N 
ATOM     19  H91 UNL     1      56.032   7.620  29.623  1.00  0.00     0.157 HD
ATOM     20  H92 UNL     1      57.166   8.782  29.426  1.00  0.00     0.157 HD
ENDROOT
BRANCH  16  21
HETATM   21  C6  UNL     1      56.103   5.014  28.499  1.00  0.00     0.318 C 
BRANCH  21  22
HETATM   22  O2  UNL     1      55.443   4.443  27.443  1.00  0.00    -0.369 OA
BRANCH  22  23
HETATM   23  C7  UNL     1      54.972   3.194  27.779  1.00  0.00     0.189 C 
BRANCH  23  24
HETATM   24  C8  UNL     1      55.830   2.595  28.859  1.00  0.00     0.148 C 
BRANCH  24  25
HETATM   25  N6  UNL     1      56.623   1.483  28.372  1.00  0.00    -0.365 N 
HETATM   26  C9  UNL     1      57.926   1.477  28.492  1.00  0.00     0.197 C 
HETATM   27  N7  UNL     1      58.606   2.566  29.108  1.00  0.00    -0.067 NA
HETATM   28  N8  UNL     1      58.675   0.373  28.004  1.00  0.00    -0.067 NA
ATOM     29  H6  UNL     1      56.156   0.692  27.927  1.00  0.00     0.161 HD
ENDBRANCH  24  25
ENDBRANCH  23  24
ENDBRANCH  22  23
ENDBRANCH  21  22
ENDBRANCH  16  21
TORSDOF 5
ENDMDL
MODEL 2
REMARK VINA RESULT: -8.221264299      2.162      2.502
REMARK  5 active torsions:
REMARK  status: ('A' for Active; 'I' for Inactive)
REMARK    1  A    between atoms: N5_16  and  C6_17 
REMARK    2  A    between atoms: C6_17  and  O2_18 
REMARK    3  A    between atoms: O2_18  and  C7_19 
REMARK    4  A    between atoms: C7_19  and  C8_20 
REMARK    5  A    between atoms: C8_20  and  N6_21 
ROOT
HETATM    1  C1  UNL     1      59.039   8.139  30.217  1.00  0.00     0.055 C 
HETATM    2  C2  UNL     1      58.980   6.972  29.235  1.00  0.00     0.152 A 
HETATM    3  N1  UNL     1      60.031   7.080  28.253  1.00  0.00    -0.204 N 
ATOM      4  H1  UNL     1      59.845   7.208  27.258  1.00  0.00     0.179 HD
HETATM    5  C3  UNL     1      61.369   6.991  28.788  1.00  0.00     0.675 C 
HETATM    6  N2  UNL     1      62.372   7.564  28.215  1.00  0.00    -0.235 N 
ATOM      7  H21 UNL     1      63.317   7.501  28.593  1.00  0.00     0.174 HD
ATOM      8  H22 UNL     1      62.222   8.097  27.359  1.00  0.00     0.174 HD
HETATM    9  N3  UNL     1      61.577   6.254  29.972  1.00  0.00    -0.155 N 
ATOM     10  H3  UNL     1      62.519   6.186  30.359  1.00  0.00     0.187 HD
HETATM   11  C4  UNL     1      60.497   5.598  30.643  1.00  0.00     0.286 C 
HETATM   12  O1  UNL     1      60.627   4.937  31.689  1.00  0.00    -0.265 OA
HETATM   13  C5  UNL     1      59.166   5.730  30.041  1.00  0.00     0.131 A 
HETATM   14  N4  UNL     1      58.106   5.023  29.999  1.00  0.00    -0.291 N 
ATOM     15  H4  UNL     1      57.998   4.131  30.482  1.00  0.00     0.187 HD
HETATM   16  N5  UNL     1      57.113   5.609  29.218  1.00  0.00    -0.254 N 
HETATM   17  C10 UNL     1      57.620   6.829  28.706  1.00  0.00     0.129 A 
HETATM   18  N9  UNL     1      56.958   7.625  27.922  1.00  0.00    -0.385 N 
ATOM     19  H91 UNL     1      56.012   7.526  27.555  1.00  0.00     0.157 HD
ATOM     20  H92 UNL     1      57.323   8.504  27.553  1.00  0.00     0.157 HD
ENDROOT
BRANCH  16  21
HETATM   21  C6  UNL     1      55.766   5.071  28.959  1.00  0.00     0.318 C 
BRANCH  21  22
HETATM   22  O2  UNL     1      55.668   4.570  27.687  1.00  0.00    -0.369 OA
BRANCH  22  23
HETATM   23  C7  UNL     1      55.164   3.288  27.706  1.00  0.00     0.189 C 
BRANCH  23  24
HETATM   24  C8  UNL     1      55.839   2.485  28.783  1.00  0.00     0.148 C 
BRANCH  24  25
HETATM   25  N6  UNL     1      56.597   1.375  28.239  1.00  0.00    -0.365 N 
HETATM   26  C9  UNL     1      57.894   1.299  28.398  1.00  0.00     0.197 C 
HETATM   27  N7  UNL     1      58.601   2.309  29.111  1.00  0.00    -0.067 NA
HETATM   28  N8  UNL     1      58.608   0.199  27.854  1.00  0.00    -0.067 NA
ATOM     29  H6  UNL     1      56.111   0.640  27.725  1.00  0.00     0.161 HD
ENDBRANCH  24  25
ENDBRANCH  23  24
ENDBRANCH  22  23
ENDBRANCH  21  22
ENDBRANCH  16  21
TORSDOF 5
ENDMDL
MODEL 3
REMARK VINA RESULT: -8.145642301      1.976      2.144
REMARK  5 active torsions:
REMARK  status: ('A' for Active; 'I' for Inactive)
REMARK    1  A    between atoms: N5_16  and  C6_17 
REMARK    2  A    between atoms: C6_17  and  O2_18 
REMARK    3  A    between atoms: O2_18  and  C7_19 
REMARK    4  A    between atoms: C7_19  and  C8_20 
REMARK    5  A    between atoms: C8_20  and  N6_21 
ROOT
HETATM    1  C1  UNL     1      58.712   7.807  27.096  1.00  0.00     0.055 C 
HETATM    2  C2  UNL     1      57.210   7.644  26.878  1.00  0.00     0.152 A 
HETATM    3  N1  UNL     1      56.618   8.888  26.452  1.00  0.00    -0.204 N 
ATOM      4  H1  UNL     1      55.925   9.388  27.010  1.00  0.00     0.179 HD
HETATM    5  C3  UNL     1      57.084   9.371  25.174  1.00  0.00     0.675 C 
HETATM    6  N2  UNL     1      57.098  10.628  24.885  1.00  0.00    -0.235 N 
ATOM      7  H21 UNL     1      57.427  10.969  23.982  1.00  0.00     0.174 HD
ATOM      8  H22 UNL     1      56.772  11.305  25.575  1.00  0.00     0.174 HD
HETATM    9  N3  UNL     1      57.534   8.436  24.219  1.00  0.00    -0.155 N 
ATOM     10  H3  UNL     1      57.866   8.769  23.314  1.00  0.00     0.187 HD
HETATM   11  C4  UNL     1      57.535   7.033  24.492  1.00  0.00     0.286 C 
HETATM   12  O1  UNL     1      57.921   6.167  23.686  1.00  0.00    -0.265 OA
HETATM   13  C5  UNL     1      57.047   6.613  25.811  1.00  0.00     0.131 A 
HETATM   14  N4  UNL     1      56.472   5.580  26.288  1.00  0.00    -0.291 N 
ATOM     15  H4  UNL     1      56.261   4.744  25.744  1.00  0.00     0.187 HD
HETATM   16  N5  UNL     1      56.167   5.726  27.639  1.00  0.00    -0.254 N 
HETATM   17  C10 UNL     1      56.600   7.011  28.052  1.00  0.00     0.129 A 
HETATM   18  N9  UNL     1      56.454   7.482  29.253  1.00  0.00    -0.385 N 
ATOM     19  H91 UNL     1      56.030   7.042  30.070  1.00  0.00     0.157 HD
ATOM     20  H92 UNL     1      56.766   8.407  29.551  1.00  0.00     0.157 HD
ENDROOT
BRANCH  16  21
HETATM   21  C6  UNL     1      55.510   4.731  28.505  1.00  0.00     0.318 C 
BRANCH  21  22
HETATM   22  O2  UNL     1      54.528   4.055  27.829  1.00  0.00    -0.369 OA
BRANCH  22  23
HETATM   23  C7  UNL     1      54.778   2.701  27.830  1.00  0.00     0.189 C 
BRANCH  23  24
HETATM   24  C8  UNL     1      55.867   2.380  28.816  1.00  0.00     0.148 C 
BRANCH  24  25
HETATM   25  N6  UNL     1      56.728   1.312  28.347  1.00  0.00    -0.365 N 
HETATM   26  C9  UNL     1      58.028   1.377  28.492  1.00  0.00     0.197 C 
HETATM   27  N7  UNL     1      58.635   2.504  29.116  1.00  0.00    -0.067 NA
HETATM   28  N8  UNL     1      58.845   0.315  28.022  1.00  0.00    -0.067 NA
ATOM     29  H6  UNL     1      56.314   0.495  27.897  1.00  0.00     0.161 HD
ENDBRANCH  24  25
ENDBRANCH  23  24
ENDBRANCH  22  23
ENDBRANCH  21  22
ENDBRANCH  16  21
TORSDOF 5
ENDMDL
MODEL 4
REMARK VINA RESULT: -8.078471135      2.191      2.544
REMARK  5 active torsions:
REMARK  status: ('A' for Active; 'I' for Inactive)
REMARK    1  A    between atoms: N5_16  and  C6_17 
REMARK    2  A    between atoms: C6_17  and  O2_18 
REMARK    3  A    between atoms: O2_18  and  C7_19 
REMARK    4  A    between atoms: C7_19  and  C8_20 
REMARK    5  A    between atoms: C8_20  and  N6_21 
ROOT
HETATM    1  C1  UNL     1      58.445   7.776  27.250  1.00  0.00     0.055 C 
HETATM    2  C2  UNL     1      56.970   7.545  26.928  1.00  0.00     0.152 A 
HETATM    3  N1  UNL     1      56.343   8.772  26.504  1.00  0.00    -0.204 N 
ATOM      4  H1  UNL     1      55.590   9.216  27.030  1.00  0.00     0.179 HD
HETATM    5  C3  UNL     1      56.865   9.323  25.276  1.00  0.00     0.675 C 
HETATM    6  N2  UNL     1      56.832  10.588  25.028  1.00  0.00    -0.235 N 
ATOM      7  H21 UNL     1      57.200  10.977  24.160  1.00  0.00     0.174 HD
ATOM      8  H22 UNL     1      56.427  11.223  25.717  1.00  0.00     0.174 HD
HETATM    9  N3  UNL     1      57.424   8.445  24.324  1.00  0.00    -0.155 N 
ATOM     10  H3  UNL     1      57.795   8.826  23.453  1.00  0.00     0.187 HD
HETATM   11  C4  UNL     1      57.480   7.035  24.551  1.00  0.00     0.286 C 
HETATM   12  O1  UNL     1      57.963   6.219  23.745  1.00  0.00    -0.265 OA
HETATM   13  C5  UNL     1      56.931   6.546  25.820  1.00  0.00     0.131 A 
HETATM   14  N4  UNL     1      56.381   5.469  26.225  1.00  0.00    -0.291 N 
ATOM     15  H4  UNL     1      56.249   4.642  25.642  1.00  0.00     0.187 HD
HETATM   16  N5  UNL     1      55.981   5.552  27.557  1.00  0.00    -0.254 N 
HETATM   17  C10 UNL     1      56.319   6.841  28.038  1.00  0.00     0.129 A 
HETATM   18  N9  UNL     1      56.071   7.262  29.242  1.00  0.00    -0.385 N 
ATOM     19  H91 UNL     1      55.619   6.772  30.014  1.00  0.00     0.157 HD
ATOM     20  H92 UNL     1      56.315   8.190  29.588  1.00  0.00     0.157 HD
ENDROOT
BRANCH  16  21
HETATM   21  C6  UNL     1      55.323   4.495  28.345  1.00  0.00     0.318 C 
BRANCH  21  22
HETATM   22  O2  UNL     1      55.989   3.303  28.233  1.00  0.00    -0.369 OA
BRANCH  22  23
HETATM   23  C7  UNL     1      57.090   3.280  29.061  1.00  0.00     0.189 C 
BRANCH  23  24
HETATM   24  C8  UNL     1      57.876   2.018  28.837  1.00  0.00     0.148 C 
BRANCH  24  25
HETATM   25  N6  UNL     1      57.172   1.084  27.979  1.00  0.00    -0.365 N 
HETATM   26  C9  UNL     1      57.754  -0.005  27.544  1.00  0.00     0.197 C 
HETATM   27  N7  UNL     1      59.099  -0.304  27.902  1.00  0.00    -0.067 NA
HETATM   28  N8  UNL     1      57.039  -0.900  26.705  1.00  0.00    -0.067 NA
ATOM     29  H6  UNL     1      56.207   1.279  27.710  1.00  0.00     0.161 HD
ENDBRANCH  24  25
ENDBRANCH  23  24
ENDBRANCH  22  23
ENDBRANCH  21  22
ENDBRANCH  16  21
TORSDOF 5
ENDMDL
MODEL 5
REMARK VINA RESULT: -8.001439406      3.163      5.775
REMARK  5 active torsions:
REMARK  status: ('A' for Active; 'I' for Inactive)
REMARK    1  A    between atoms: N5_16  and  C6_17 
REMARK    2  A    between atoms: C6_17  and  O2_18 
REMARK    3  A    between atoms: O2_18  and  C7_19 
REMARK    4  A    between atoms: C7_19  and  C8_20 
REMARK    5  A    between atoms: C8_20  and  N6_21 
ROOT
HETATM    1  C1  UNL     1      55.628   5.458  30.148  1.00  0.00     0.055 C 
HETATM    2  C2  UNL     1      56.061   6.922  30.192  1.00  0.00     0.152 A 
HETATM    3  N1  UNL     1      54.977   7.761  30.640  1.00  0.00    -0.204 N 
ATOM      4  H1  UNL     1      54.554   8.477  30.049  1.00  0.00     0.179 HD
HETATM    5  C3  UNL     1      54.537   7.508  31.992  1.00  0.00     0.675 C 
HETATM    6  N2  UNL     1      53.327   7.742  32.370  1.00  0.00    -0.235 N 
ATOM      7  H21 UNL     1      53.016   7.564  33.324  1.00  0.00     0.174 HD
ATOM      8  H22 UNL     1      52.656   8.117  31.698  1.00  0.00     0.174 HD
HETATM    9  N3  UNL     1      55.464   6.990  32.920  1.00  0.00    -0.155 N 
ATOM     10  H3  UNL     1      55.162   6.807  33.877  1.00  0.00     0.187 HD
HETATM   11  C4  UNL     1      56.817   6.716  32.549  1.00  0.00     0.286 C 
HETATM   12  O1  UNL     1      57.673   6.259  33.329  1.00  0.00    -0.265 OA
HETATM   13  C5  UNL     1      57.195   6.998  31.160  1.00  0.00     0.131 A 
HETATM   14  N4  UNL     1      58.263   7.335  30.552  1.00  0.00    -0.291 N 
ATOM     15  H4  UNL     1      59.169   7.445  31.010  1.00  0.00     0.187 HD
HETATM   16  N5  UNL     1      58.052   7.536  29.190  1.00  0.00    -0.254 N 
HETATM   17  C10 UNL     1      56.682   7.300  28.918  1.00  0.00     0.129 A 
HETATM   18  N9  UNL     1      56.137   7.415  27.745  1.00  0.00    -0.385 N 
ATOM     19  H91 UNL     1      56.569   7.677  26.858  1.00  0.00     0.157 HD
ATOM     20  H92 UNL     1      55.150   7.245  27.549  1.00  0.00     0.157 HD
ENDROOT
BRANCH  16  21
HETATM   21  C6  UNL     1      59.064   7.924  28.191  1.00  0.00     0.318 C 
BRANCH  21  22
HETATM   22  O2  UNL     1      59.341   6.889  27.337  1.00  0.00    -0.369 OA
BRANCH  22  23
HETATM   23  C7  UNL     1      60.678   6.562  27.386  1.00  0.00     0.189 C 
BRANCH  23  24
HETATM   24  C8  UNL     1      60.856   5.221  28.044  1.00  0.00     0.148 C 
BRANCH  24  25
HETATM   25  N6  UNL     1      61.072   5.341  29.472  1.00  0.00    -0.365 N 
HETATM   26  C9  UNL     1      60.246   4.798  30.330  1.00  0.00     0.197 C 
HETATM   27  N7  UNL     1      59.105   4.072  29.882  1.00  0.00    -0.067 NA
HETATM   28  N8  UNL     1      60.484   4.933  31.723  1.00  0.00    -0.067 NA
ATOM     29  H6  UNL     1      61.883   5.857  29.815  1.00  0.00     0.161 HD
ENDBRANCH  24  25
ENDBRANCH  23  24
ENDBRANCH  22  23
ENDBRANCH  21  22
ENDBRANCH  16  21
TORSDOF 5
ENDMDL
