MODEL 1
REMARK VINA RESULT: -7.849631119      0.000      0.000
REMARK  6 active torsions:
REMARK  status: ('A' for Active; 'I' for Inactive)
REMARK    1  A    between atoms: C2_2  and  N1_3 
REMARK       I    between atoms: N1_3  and  C3_5 
REMARK       I    between atoms: C3_5  and  N2_7 
REMARK    2  A    between atoms: C6_10  and  N3_11 
REMARK       I    between atoms: N3_11  and  C7_13 
REMARK    3  A    between atoms: C7_13  and  C8_15 
REMARK    4  A    between atoms: C8_15  and  N4_16 
REMARK       I    between atoms: N4_16  and  C9_18 
REMARK    5  A    between atoms: C9_18  and  C10_20 
REMARK    6  A    between atoms: C19_31  and  C20_32 
ROOT
HETATM    1  N4  UNL     1      18.211 -12.490  21.715  1.00  0.00    -0.350 N 
ATOM      2  H4  UNL     1      18.962 -11.844  21.957  1.00  0.00     0.163 HD
HETATM    3  C9  UNL     1      18.417 -13.925  21.694  1.00  0.00     0.257 C 
HETATM    4  O3  UNL     1      17.317 -14.535  21.388  1.00  0.00    -0.271 OA
ENDROOT
BRANCH   1   5
HETATM    5  C8  UNL     1      16.857 -12.015  21.368  1.00  0.00     0.225 C 
BRANCH   5   6
HETATM    6  C7  UNL     1      16.706 -11.588  19.971  1.00  0.00     0.235 C 
HETATM    7  N3  UNL     1      16.882 -12.380  18.840  1.00  0.00    -0.355 N 
ATOM      8  H3  UNL     1      17.119 -13.365  18.957  1.00  0.00     0.162 HD
HETATM    9  O2  UNL     1      16.371 -10.361  19.822  1.00  0.00    -0.272 OA
BRANCH   7  10
HETATM   10  C6  UNL     1      16.738 -11.845  17.502  1.00  0.00     0.087 C 
HETATM   11  C5  UNL     1      17.990 -11.967  16.722  1.00  0.00     0.045 C 
HETATM   12  C4  UNL     1      17.743 -12.324  15.289  1.00  0.00     0.129 C 
HETATM   13  N2  UNL     1      16.523 -11.854  14.713  1.00  0.00    -0.334 N 
HETATM   14  C3  UNL     1      16.440 -11.670  13.310  1.00  0.00     0.318 C 
HETATM   15  C23 UNL     1      15.343 -11.588  15.521  1.00  0.00     0.129 C 
HETATM   16  N1  UNL     1      17.562 -12.014  12.516  1.00  0.00    -0.343 N 
HETATM   17  O1  UNL     1      15.394 -11.217  12.805  1.00  0.00    -0.247 OA
ATOM     18  H1  UNL     1      18.389 -12.393  12.975  1.00  0.00     0.164 HD
HETATM   19  C22 UNL     1      15.525 -12.459  16.780  1.00  0.00     0.045 C 
BRANCH  16  20
HETATM   20  C2  UNL     1      17.580 -11.848  11.069  1.00  0.00     0.120 C 
HETATM   21  C1  UNL     1      18.970 -11.696  10.503  1.00  0.00     0.026 C 
ENDBRANCH  16  20
ENDBRANCH   7  10
ENDBRANCH   5   6
ENDBRANCH   1   5
BRANCH   3  22
HETATM   22  C10 UNL     1      19.652 -14.652  21.953  1.00  0.00     0.236 C 
HETATM   23  C11 UNL     1      19.456 -16.125  21.682  1.00  0.00     0.286 C 
HETATM   24  N5  UNL     1      20.259 -17.042  22.384  1.00  0.00    -0.070 N 
HETATM   25  C12 UNL     1      19.453 -18.023  23.143  1.00  0.00     0.272 C 
HETATM   26  C13 UNL     1      20.924 -17.877  21.347  1.00  0.00     0.272 C 
HETATM   27  C14 UNL     1      21.287 -16.572  23.233  1.00  0.00     0.264 C 
HETATM   28  C15 UNL     1      21.191 -15.199  23.741  1.00  0.00     0.266 C 
HETATM   29  N6  UNL     1      20.021 -14.436  23.354  1.00  0.00    -0.050 N 
HETATM   30  C16 UNL     1      19.001 -14.605  24.312  1.00  0.00     0.274 C 
HETATM   31  C17 UNL     1      20.471 -13.049  23.359  1.00  0.00     0.239 C 
HETATM   32  C18 UNL     1      21.136 -12.827  22.026  1.00  0.00     0.036 C 
HETATM   33  C19 UNL     1      20.856 -14.095  21.278  1.00  0.00     0.035 C 
BRANCH  33  34
HETATM   34  C20 UNL     1      20.790 -13.932  19.792  1.00  0.00     0.003 C 
HETATM   35  C21 UNL     1      21.093 -12.448  19.483  1.00  0.00     0.005 C 
ENDBRANCH  33  34
ENDBRANCH   3  22
TORSDOF 6
ENDMDL
MODEL 2
REMARK VINA RESULT: -7.776776389      2.378      3.765
REMARK  6 active torsions:
REMARK  status: ('A' for Active; 'I' for Inactive)
REMARK    1  A    between atoms: C2_2  and  N1_3 
REMARK       I    between atoms: N1_3  and  C3_5 
REMARK       I    between atoms: C3_5  and  N2_7 
REMARK    2  A    between atoms: C6_10  and  N3_11 
REMARK       I    between atoms: N3_11  and  C7_13 
REMARK    3  A    between atoms: C7_13  and  C8_15 
REMARK    4  A    between atoms: C8_15  and  N4_16 
REMARK       I    between atoms: N4_16  and  C9_18 
REMARK    5  A    between atoms: C9_18  and  C10_20 
REMARK    6  A    between atoms: C19_31  and  C20_32 
ROOT
HETATM    1  N4  UNL     1      20.739 -13.623  22.075  1.00  0.00    -0.350 N 
ATOM      2  H4  UNL     1      19.819 -14.063  22.045  1.00  0.00     0.163 HD
HETATM    3  C9  UNL     1      21.683 -13.900  23.140  1.00  0.00     0.257 C 
HETATM    4  O3  UNL     1      22.786 -13.249  22.947  1.00  0.00    -0.271 OA
ENDROOT
BRANCH   1   5
HETATM    5  C8  UNL     1      21.179 -12.669  21.038  1.00  0.00     0.225 C 
BRANCH   5   6
HETATM    6  C7  UNL     1      20.090 -12.121  20.219  1.00  0.00     0.235 C 
HETATM    7  N3  UNL     1      19.690 -12.573  18.965  1.00  0.00    -0.355 N 
ATOM      8  H3  UNL     1      20.164 -13.377  18.553  1.00  0.00     0.162 HD
HETATM    9  O2  UNL     1      19.469 -11.134  20.750  1.00  0.00    -0.272 OA
BRANCH   7  10
HETATM   10  C6  UNL     1      18.620 -11.933  18.227  1.00  0.00     0.087 C 
HETATM   11  C5  UNL     1      18.937 -11.814  16.786  1.00  0.00     0.045 C 
HETATM   12  C4  UNL     1      17.747 -12.059  15.913  1.00  0.00     0.129 C 
HETATM   13  N2  UNL     1      16.473 -11.699  16.450  1.00  0.00    -0.334 N 
HETATM   14  C3  UNL     1      15.406 -11.391  15.568  1.00  0.00     0.318 C 
HETATM   15  C23 UNL     1      16.222 -11.668  17.882  1.00  0.00     0.129 C 
HETATM   16  N1  UNL     1      15.627 -11.507  14.174  1.00  0.00    -0.343 N 
HETATM   17  O1  UNL     1      14.305 -11.031  16.029  1.00  0.00    -0.247 OA
ATOM     18  H1  UNL     1      16.542 -11.818  13.847  1.00  0.00     0.164 HD
HETATM   19  C22 UNL     1      17.270 -12.627  18.484  1.00  0.00     0.045 C 
BRANCH  16  20
HETATM   20  C2  UNL     1      14.600 -11.200  13.188  1.00  0.00     0.120 C 
HETATM   21  C1  UNL     1      14.747 -11.987  11.909  1.00  0.00     0.026 C 
ENDBRANCH  16  20
ENDBRANCH   7  10
ENDBRANCH   5   6
ENDBRANCH   1   5
BRANCH   3  22
HETATM   22  C10 UNL     1      21.492 -14.761  24.298  1.00  0.00     0.236 C 
HETATM   23  C11 UNL     1      22.821 -15.295  24.776  1.00  0.00     0.286 C 
HETATM   24  N5  UNL     1      22.838 -16.530  25.449  1.00  0.00    -0.070 N 
HETATM   25  C12 UNL     1      23.730 -17.511  24.793  1.00  0.00     0.272 C 
HETATM   26  C13 UNL     1      23.512 -16.274  26.751  1.00  0.00     0.272 C 
HETATM   27  C14 UNL     1      21.621 -17.182  25.755  1.00  0.00     0.264 C 
HETATM   28  C15 UNL     1      20.433 -16.834  24.966  1.00  0.00     0.266 C 
HETATM   29  N6  UNL     1      20.610 -15.864  23.905  1.00  0.00    -0.050 N 
HETATM   30  C16 UNL     1      20.920 -16.524  22.699  1.00  0.00     0.274 C 
HETATM   31  C17 UNL     1      19.312 -15.211  23.786  1.00  0.00     0.239 C 
HETATM   32  C18 UNL     1      19.287 -14.143  24.846  1.00  0.00     0.036 C 
HETATM   33  C19 UNL     1      20.683 -14.160  25.394  1.00  0.00     0.035 C 
BRANCH  33  34
HETATM   34  C20 UNL     1      21.146 -12.846  25.941  1.00  0.00     0.003 C 
HETATM   35  C21 UNL     1      21.458 -13.062  27.439  1.00  0.00     0.005 C 
ENDBRANCH  33  34
ENDBRANCH   3  22
TORSDOF 6
ENDMDL
MODEL 3
REMARK VINA RESULT: -7.319957985      2.113      3.466
REMARK  6 active torsions:
REMARK  status: ('A' for Active; 'I' for Inactive)
REMARK    1  A    between atoms: C2_2  and  N1_3 
REMARK       I    between atoms: N1_3  and  C3_5 
REMARK       I    between atoms: C3_5  and  N2_7 
REMARK    2  A    between atoms: C6_10  and  N3_11 
REMARK       I    between atoms: N3_11  and  C7_13 
REMARK    3  A    between atoms: C7_13  and  C8_15 
REMARK    4  A    between atoms: C8_15  and  N4_16 
REMARK       I    between atoms: N4_16  and  C9_18 
REMARK    5  A    between atoms: C9_18  and  C10_20 
REMARK    6  A    between atoms: C19_31  and  C20_32 
ROOT
HETATM    1  N4  UNL     1      20.793 -13.265  22.416  1.00  0.00    -0.350 N 
ATOM      2  H4  UNL     1      20.410 -12.647  23.132  1.00  0.00     0.163 HD
HETATM    3  C9  UNL     1      20.935 -14.691  22.637  1.00  0.00     0.257 C 
HETATM    4  O3  UNL     1      21.415 -15.266  21.580  1.00  0.00    -0.271 OA
ENDROOT
BRANCH   1   5
HETATM    5  C8  UNL     1      21.232 -12.755  21.102  1.00  0.00     0.225 C 
BRANCH   5   6
HETATM    6  C7  UNL     1      20.156 -12.178  20.286  1.00  0.00     0.235 C 
HETATM    7  N3  UNL     1      19.694 -12.662  19.066  1.00  0.00    -0.355 N 
ATOM      8  H3  UNL     1      20.105 -13.512  18.682  1.00  0.00     0.162 HD
HETATM    9  O2  UNL     1      19.612 -11.131  20.786  1.00  0.00    -0.272 OA
BRANCH   7  10
HETATM   10  C6  UNL     1      18.643 -11.991  18.327  1.00  0.00     0.087 C 
HETATM   11  C5  UNL     1      18.959 -11.896  16.884  1.00  0.00     0.045 C 
HETATM   12  C4  UNL     1      17.757 -12.107  16.017  1.00  0.00     0.129 C 
HETATM   13  N2  UNL     1      16.498 -11.697  16.556  1.00  0.00    -0.334 N 
HETATM   14  C3  UNL     1      15.439 -11.360  15.676  1.00  0.00     0.318 C 
HETATM   15  C23 UNL     1      16.255 -11.644  17.989  1.00  0.00     0.129 C 
HETATM   16  N1  UNL     1      15.651 -11.496  14.281  1.00  0.00    -0.343 N 
HETATM   17  O1  UNL     1      14.354 -10.957  16.137  1.00  0.00    -0.247 OA
ATOM     18  H1  UNL     1      16.552 -11.843  13.954  1.00  0.00     0.164 HD
HETATM   19  C22 UNL     1      17.271 -12.634  18.595  1.00  0.00     0.045 C 
BRANCH  16  20
HETATM   20  C2  UNL     1      14.631 -11.162  13.296  1.00  0.00     0.120 C 
HETATM   21  C1  UNL     1      14.830 -11.857  11.972  1.00  0.00     0.026 C 
ENDBRANCH  16  20
ENDBRANCH   7  10
ENDBRANCH   5   6
ENDBRANCH   1   5
BRANCH   3  22
HETATM   22  C10 UNL     1      20.621 -15.442  23.843  1.00  0.00     0.236 C 
HETATM   23  C11 UNL     1      21.796 -16.301  24.244  1.00  0.00     0.286 C 
HETATM   24  N5  UNL     1      21.541 -17.480  24.968  1.00  0.00    -0.070 N 
HETATM   25  C12 UNL     1      22.083 -18.679  24.292  1.00  0.00     0.272 C 
HETATM   26  C13 UNL     1      22.366 -17.384  26.203  1.00  0.00     0.272 C 
HETATM   27  C14 UNL     1      20.226 -17.775  25.393  1.00  0.00     0.264 C 
HETATM   28  C15 UNL     1      19.110 -17.140  24.680  1.00  0.00     0.266 C 
HETATM   29  N6  UNL     1      19.448 -16.277  23.567  1.00  0.00    -0.050 N 
HETATM   30  C16 UNL     1      19.470 -17.024  22.371  1.00  0.00     0.274 C 
HETATM   31  C17 UNL     1      18.365 -15.303  23.516  1.00  0.00     0.239 C 
HETATM   32  C18 UNL     1      18.713 -14.243  24.526  1.00  0.00     0.036 C 
HETATM   33  C19 UNL     1      20.095 -14.621  24.968  1.00  0.00     0.035 C 
BRANCH  33  34
HETATM   34  C20 UNL     1      20.934 -13.467  25.420  1.00  0.00     0.003 C 
HETATM   35  C21 UNL     1      21.094 -13.593  26.952  1.00  0.00     0.005 C 
ENDBRANCH  33  34
ENDBRANCH   3  22
TORSDOF 6
ENDMDL
MODEL 4
REMARK VINA RESULT: -7.260066683      4.266      5.521
REMARK  6 active torsions:
REMARK  status: ('A' for Active; 'I' for Inactive)
REMARK    1  A    between atoms: C2_2  and  N1_3 
REMARK       I    between atoms: N1_3  and  C3_5 
REMARK       I    between atoms: C3_5  and  N2_7 
REMARK    2  A    between atoms: C6_10  and  N3_11 
REMARK       I    between atoms: N3_11  and  C7_13 
REMARK    3  A    between atoms: C7_13  and  C8_15 
REMARK    4  A    between atoms: C8_15  and  N4_16 
REMARK       I    between atoms: N4_16  and  C9_18 
REMARK    5  A    between atoms: C9_18  and  C10_20 
REMARK    6  A    between atoms: C19_31  and  C20_32 
ROOT
HETATM    1  N4  UNL     1      20.491 -13.006  22.905  1.00  0.00    -0.350 N 
ATOM      2  H4  UNL     1      20.144 -12.443  23.682  1.00  0.00     0.163 HD
HETATM    3  C9  UNL     1      21.034 -14.334  23.108  1.00  0.00     0.257 C 
HETATM    4  O3  UNL     1      21.380 -14.859  21.976  1.00  0.00    -0.271 OA
ENDROOT
BRANCH   1   5
HETATM    5  C8  UNL     1      20.466 -12.511  21.515  1.00  0.00     0.225 C 
BRANCH   5   6
HETATM    6  C7  UNL     1      19.152 -12.599  20.864  1.00  0.00     0.235 C 
HETATM    7  N3  UNL     1      18.045 -13.302  21.329  1.00  0.00    -0.355 N 
ATOM      8  H3  UNL     1      18.109 -13.797  22.218  1.00  0.00     0.162 HD
HETATM    9  O2  UNL     1      19.057 -11.947  19.766  1.00  0.00    -0.272 OA
BRANCH   7  10
HETATM   10  C6  UNL     1      16.802 -13.349  20.586  1.00  0.00     0.087 C 
HETATM   11  C5  UNL     1      16.675 -14.598  19.802  1.00  0.00     0.045 C 
HETATM   12  C4  UNL     1      15.279 -15.137  19.801  1.00  0.00     0.129 C 
HETATM   13  N2  UNL     1      14.222 -14.180  19.896  1.00  0.00    -0.334 N 
HETATM   14  C3  UNL     1      12.940 -14.504  19.383  1.00  0.00     0.318 C 
HETATM   15  C23 UNL     1      14.409 -12.887  20.534  1.00  0.00     0.129 C 
HETATM   16  N1  UNL     1      12.736 -15.797  18.842  1.00  0.00    -0.343 N 
HETATM   17  O1  UNL     1      12.026 -13.657  19.420  1.00  0.00    -0.247 OA
ATOM     18  H1  UNL     1      13.512 -16.458  18.846  1.00  0.00     0.164 HD
HETATM   19  C22 UNL     1      15.591 -13.096  21.503  1.00  0.00     0.045 C 
BRANCH  16  20
HETATM   20  C2  UNL     1      11.461 -16.220  18.278  1.00  0.00     0.120 C 
HETATM   21  C1  UNL     1      10.824 -17.360  19.033  1.00  0.00     0.026 C 
ENDBRANCH  16  20
ENDBRANCH   7  10
ENDBRANCH   5   6
ENDBRANCH   1   5
BRANCH   3  22
HETATM   22  C10 UNL     1      21.212 -15.042  24.368  1.00  0.00     0.236 C 
HETATM   23  C11 UNL     1      22.658 -15.439  24.543  1.00  0.00     0.286 C 
HETATM   24  N5  UNL     1      22.945 -16.572  25.328  1.00  0.00    -0.070 N 
HETATM   25  C12 UNL     1      23.723 -17.585  24.581  1.00  0.00     0.272 C 
HETATM   26  C13 UNL     1      23.900 -16.110  26.371  1.00  0.00     0.272 C 
HETATM   27  C14 UNL     1      21.903 -17.237  26.011  1.00  0.00     0.264 C 
HETATM   28  C15 UNL     1      20.530 -17.059  25.523  1.00  0.00     0.266 C 
HETATM   29  N6  UNL     1      20.354 -16.230  24.347  1.00  0.00    -0.050 N 
HETATM   30  C16 UNL     1      20.406 -17.029  23.186  1.00  0.00     0.274 C 
HETATM   31  C17 UNL     1      19.018 -15.666  24.494  1.00  0.00     0.239 C 
HETATM   32  C18 UNL     1      19.171 -14.469  25.393  1.00  0.00     0.036 C 
HETATM   33  C19 UNL     1      20.656 -14.342  25.558  1.00  0.00     0.035 C 
BRANCH  33  34
HETATM   34  C20 UNL     1      21.130 -12.946  25.811  1.00  0.00     0.003 C 
HETATM   35  C21 UNL     1      21.505 -12.856  27.308  1.00  0.00     0.005 C 
ENDBRANCH  33  34
ENDBRANCH   3  22
TORSDOF 6
ENDMDL
MODEL 5
REMARK VINA RESULT: -7.257393637      4.254      5.181
REMARK  6 active torsions:
REMARK  status: ('A' for Active; 'I' for Inactive)
REMARK    1  A    between atoms: C2_2  and  N1_3 
REMARK       I    between atoms: N1_3  and  C3_5 
REMARK       I    between atoms: C3_5  and  N2_7 
REMARK    2  A    between atoms: C6_10  and  N3_11 
REMARK       I    between atoms: N3_11  and  C7_13 
REMARK    3  A    between atoms: C7_13  and  C8_15 
REMARK    4  A    between atoms: C8_15  and  N4_16 
REMARK       I    between atoms: N4_16  and  C9_18 
REMARK    5  A    between atoms: C9_18  and  C10_20 
REMARK    6  A    between atoms: C19_31  and  C20_32 
ROOT
HETATM    1  N4  UNL     1      21.354 -12.893  22.645  1.00  0.00    -0.350 N 
ATOM      2  H4  UNL     1      21.388 -12.194  23.387  1.00  0.00     0.163 HD
HETATM    3  C9  UNL     1      21.353 -14.313  22.936  1.00  0.00     0.257 C 
HETATM    4  O3  UNL     1      21.277 -14.999  21.840  1.00  0.00    -0.271 OA
ENDROOT
BRANCH   1   5
HETATM    5  C8  UNL     1      21.306 -12.513  21.220  1.00  0.00     0.225 C 
BRANCH   5   6
HETATM    6  C7  UNL     1      19.957 -12.514  20.639  1.00  0.00     0.235 C 
HETATM    7  N3  UNL     1      18.790 -12.950  21.258  1.00  0.00    -0.355 N 
ATOM      8  H3  UNL     1      18.835 -13.287  22.220  1.00  0.00     0.162 HD
HETATM    9  O2  UNL     1      19.892 -12.056  19.444  1.00  0.00    -0.272 OA
BRANCH   7  10
HETATM   10  C6  UNL     1      17.512 -12.937  20.576  1.00  0.00     0.087 C 
HETATM   11  C5  UNL     1      17.221 -14.234  19.926  1.00  0.00     0.045 C 
HETATM   12  C4  UNL     1      15.780 -14.623  20.037  1.00  0.00     0.129 C 
HETATM   13  N2  UNL     1      14.830 -13.557  20.081  1.00  0.00    -0.334 N 
HETATM   14  C3  UNL     1      13.497 -13.792  19.657  1.00  0.00     0.318 C 
HETATM   15  C23 UNL     1      15.178 -12.235  20.579  1.00  0.00     0.129 C 
HETATM   16  N1  UNL     1      13.137 -15.102  19.255  1.00  0.00    -0.343 N 
HETATM   17  O1  UNL     1      12.675 -12.855  19.648  1.00  0.00    -0.247 OA
ATOM     18  H1  UNL     1      13.843 -15.837  19.292  1.00  0.00     0.164 HD
HETATM   19  C22 UNL     1      16.382 -12.475  21.514  1.00  0.00     0.045 C 
BRANCH  16  20
HETATM   20  C2  UNL     1      11.799 -15.441  18.790  1.00  0.00     0.120 C 
HETATM   21  C1  UNL     1      11.412 -16.870  19.079  1.00  0.00     0.026 C 
ENDBRANCH  16  20
ENDBRANCH   7  10
ENDBRANCH   5   6
ENDBRANCH   1   5
BRANCH   3  22
HETATM   22  C10 UNL     1      21.434 -14.956  24.240  1.00  0.00     0.236 C 
HETATM   23  C11 UNL     1      21.408 -16.458  24.083  1.00  0.00     0.286 C 
HETATM   24  N5  UNL     1      20.903 -17.228  25.146  1.00  0.00    -0.070 N 
HETATM   25  C12 UNL     1      19.781 -18.095  24.723  1.00  0.00     0.272 C 
HETATM   26  C13 UNL     1      21.975 -18.202  25.487  1.00  0.00     0.272 C 
HETATM   27  C14 UNL     1      20.538 -16.601  26.358  1.00  0.00     0.264 C 
HETATM   28  C15 UNL     1      20.228 -15.166  26.330  1.00  0.00     0.266 C 
HETATM   29  N6  UNL     1      20.293 -14.507  25.041  1.00  0.00    -0.050 N 
HETATM   30  C16 UNL     1      19.028 -14.546  24.419  1.00  0.00     0.274 C 
HETATM   31  C17 UNL     1      20.642 -13.126  25.353  1.00  0.00     0.239 C 
HETATM   32  C18 UNL     1      22.139 -13.104  25.510  1.00  0.00     0.036 C 
HETATM   33  C19 UNL     1      22.555 -14.484  25.097  1.00  0.00     0.035 C 
BRANCH  33  34
HETATM   34  C20 UNL     1      23.934 -14.564  24.523  1.00  0.00     0.003 C 
HETATM   35  C21 UNL     1      24.526 -13.138  24.556  1.00  0.00     0.005 C 
ENDBRANCH  33  34
ENDBRANCH   3  22
TORSDOF 6
ENDMDL
