MODEL 1
REMARK VINA RESULT: -8.507414042      0.000      0.000
REMARK  10 active torsions:
REMARK  status: ('A' for Active; 'I' for Inactive)
REMARK    1  A    between atoms: C4_6  and  C5_7 
REMARK    2  A    between atoms: C6_8  and  C7_9 
REMARK    3  A    between atoms: N2_13  and  C11_14 
REMARK    4  A    between atoms: C11_14  and  C12_15 
REMARK    5  A    between atoms: C13_16  and  N3_17 
REMARK    6  A    between atoms: N7_29  and  C18_30 
REMARK    7  A    between atoms: C18_30  and  C19_31 
REMARK    8  A    between atoms: C19_31  and  C20_32 
REMARK    9  A    between atoms: C20_32  and  C21_33 
REMARK   10  A    between atoms: C21_33  and  N8_34 
ROOT
HETATM    1  C5  UNL     1      19.026 -15.154  24.208  1.00  0.00    -0.059 C 
HETATM    2  C6  UNL     1      18.766 -14.312  23.370  1.00  0.00    -0.060 C 
ENDROOT
BRANCH   2   3
HETATM    3  C7  UNL     1      18.469 -13.333  22.363  1.00  0.00     0.033 A 
HETATM    4  C8  UNL     1      19.393 -12.388  21.951  1.00  0.00     0.023 A 
HETATM    5  C9  UNL     1      19.047 -11.473  20.975  1.00  0.00     0.019 A 
HETATM    6  C10 UNL     1      17.791 -11.497  20.415  1.00  0.00     0.091 A 
HETATM    7  N2  UNL     1      16.888 -12.413  20.810  1.00  0.00    -0.354 N 
HETATM    8  C16 UNL     1      17.225 -13.310  21.765  1.00  0.00     0.112 A 
BRANCH   7   9
HETATM    9  C11 UNL     1      15.551 -12.497  20.267  1.00  0.00     0.223 C 
BRANCH   9  10
HETATM   10  C12 UNL     1      14.578 -11.882  21.170  1.00  0.00    -0.061 C 
HETATM   11  C13 UNL     1      13.760 -11.390  21.918  1.00  0.00     0.037 C 
BRANCH  11  12
HETATM   12  N3  UNL     1      12.794 -10.836  22.782  1.00  0.00    -0.193 N 
HETATM   13  C14 UNL     1      11.734 -11.498  23.312  1.00  0.00     0.234 A 
HETATM   14  N4  UNL     1      11.016 -10.685  24.085  1.00  0.00    -0.184 N 
HETATM   15  C15 UNL     1      11.628  -9.492  24.046  1.00  0.00     0.692 A 
ATOM     16  H4  UNL     1      10.170 -10.922  24.602  1.00  0.00     0.185 HD
HETATM   17  N5  UNL     1      11.197  -8.450  24.693  1.00  0.00    -0.233 N 
HETATM   18  N6  UNL     1      12.709  -9.602  23.248  1.00  0.00    -0.117 N 
ATOM     19  H52 UNL     1      10.380  -8.367  25.297  1.00  0.00     0.174 HD
ATOM     20  H51 UNL     1      11.663  -7.543  24.664  1.00  0.00     0.174 HD
ATOM     21  H6  UNL     1      13.362  -8.848  23.037  1.00  0.00     0.207 HD
ENDBRANCH  11  12
ENDBRANCH   9  10
ENDBRANCH   7   9
ENDBRANCH   2   3
BRANCH   1  22
HETATM   22  C4  UNL     1      19.339 -16.165  25.182  1.00  0.00     0.049 A 
HETATM   23  C3  UNL     1      18.406 -16.650  26.073  1.00  0.00     0.111 A 
HETATM   24  N1  UNL     1      18.717 -17.592  26.972  1.00  0.00    -0.354 N 
HETATM   25  C2  UNL     1      19.951 -18.106  27.043  1.00  0.00     0.079 A 
ATOM     26  H1  UNL     1      17.999 -17.924  27.616  1.00  0.00     0.166 HD
HETATM   27  C1  UNL     1      20.236 -19.152  28.066  1.00  0.00     0.089 C 
HETATM   28  N7  UNL     1      20.884 -17.661  26.195  1.00  0.00    -0.345 N 
HETATM   29  C17 UNL     1      20.602 -16.719  25.286  1.00  0.00     0.114 A 
BRANCH  28  30
HETATM   30  C18 UNL     1      22.217 -18.186  26.243  1.00  0.00     0.130 C 
BRANCH  30  31
HETATM   31  C19 UNL     1      23.160 -17.620  25.236  1.00  0.00     0.022 C 
BRANCH  31  32
HETATM   32  C20 UNL     1      24.245 -16.746  25.820  1.00  0.00     0.022 C 
BRANCH  32  33
HETATM   33  C21 UNL     1      24.262 -15.468  25.006  1.00  0.00     0.128 C 
BRANCH  33  34
HETATM   34  N8  UNL     1      23.296 -14.509  25.436  1.00  0.00    -0.366 N 
HETATM   35  C22 UNL     1      22.644 -13.778  24.509  1.00  0.00     0.090 A 
HETATM   36  C23 UNL     1      21.700 -12.837  24.877  1.00  0.00     0.017 A 
HETATM   37  C24 UNL     1      21.390 -12.609  26.189  1.00  0.00     0.003 A 
HETATM   38  C25 UNL     1      22.064 -13.364  27.147  1.00  0.00     0.017 A 
HETATM   39  C26 UNL     1      22.991 -14.283  26.730  1.00  0.00     0.090 A 
ENDBRANCH  33  34
ENDBRANCH  32  33
ENDBRANCH  31  32
ENDBRANCH  30  31
ENDBRANCH  28  30
ENDBRANCH   1  22
TORSDOF 10
ENDMDL
MODEL 2
REMARK VINA RESULT: -8.367623777      1.953      2.611
REMARK  10 active torsions:
REMARK  status: ('A' for Active; 'I' for Inactive)
REMARK    1  A    between atoms: C4_6  and  C5_7 
REMARK    2  A    between atoms: C6_8  and  C7_9 
REMARK    3  A    between atoms: N2_13  and  C11_14 
REMARK    4  A    between atoms: C11_14  and  C12_15 
REMARK    5  A    between atoms: C13_16  and  N3_17 
REMARK    6  A    between atoms: N7_29  and  C18_30 
REMARK    7  A    between atoms: C18_30  and  C19_31 
REMARK    8  A    between atoms: C19_31  and  C20_32 
REMARK    9  A    between atoms: C20_32  and  C21_33 
REMARK   10  A    between atoms: C21_33  and  N8_34 
ROOT
HETATM    1  C5  UNL     1      19.595 -14.243  21.998  1.00  0.00    -0.059 C 
HETATM    2  C6  UNL     1      19.666 -13.701  20.912  1.00  0.00    -0.060 C 
ENDROOT
BRANCH   2   3
HETATM    3  C7  UNL     1      19.727 -13.067  19.626  1.00  0.00     0.033 A 
HETATM    4  C8  UNL     1      20.926 -12.789  18.991  1.00  0.00     0.023 A 
HETATM    5  C9  UNL     1      20.918 -12.178  17.752  1.00  0.00     0.019 A 
HETATM    6  C10 UNL     1      19.728 -11.847  17.149  1.00  0.00     0.091 A 
HETATM    7  N2  UNL     1      18.559 -12.114  17.759  1.00  0.00    -0.354 N 
HETATM    8  C16 UNL     1      18.565 -12.712  18.973  1.00  0.00     0.112 A 
BRANCH   7   9
HETATM    9  C11 UNL     1      17.272 -11.794  17.186  1.00  0.00     0.223 C 
BRANCH   9  10
HETATM   10  C12 UNL     1      16.280 -11.539  18.232  1.00  0.00    -0.061 C 
HETATM   11  C13 UNL     1      15.447 -11.318  19.085  1.00  0.00     0.037 C 
BRANCH  11  12
HETATM   12  N3  UNL     1      14.470 -11.044  20.062  1.00  0.00    -0.193 N 
HETATM   13  C14 UNL     1      13.192 -11.500  20.053  1.00  0.00     0.234 A 
HETATM   14  N4  UNL     1      12.531 -11.056  21.121  1.00  0.00    -0.184 N 
HETATM   15  C15 UNL     1      13.401 -10.310  21.817  1.00  0.00     0.692 A 
ATOM     16  H4  UNL     1      11.558 -11.245  21.360  1.00  0.00     0.185 HD
HETATM   17  N5  UNL     1      13.094  -9.713  22.932  1.00  0.00    -0.233 N 
HETATM   18  N6  UNL     1      14.576 -10.313  21.159  1.00  0.00    -0.117 N 
ATOM     19  H52 UNL     1      12.204  -9.711  23.430  1.00  0.00     0.174 HD
ATOM     20  H51 UNL     1      13.756  -9.146  23.462  1.00  0.00     0.174 HD
ATOM     21  H6  UNL     1      15.420  -9.826  21.461  1.00  0.00     0.207 HD
ENDBRANCH  11  12
ENDBRANCH   9  10
ENDBRANCH   7   9
ENDBRANCH   2   3
BRANCH   1  22
HETATM   22  C4  UNL     1      19.487 -14.889  23.280  1.00  0.00     0.049 A 
HETATM   23  C3  UNL     1      18.662 -14.419  24.278  1.00  0.00     0.111 A 
HETATM   24  N1  UNL     1      18.575 -15.034  25.464  1.00  0.00    -0.354 N 
HETATM   25  C2  UNL     1      19.287 -16.136  25.730  1.00  0.00     0.079 A 
ATOM     26  H1  UNL     1      17.954 -14.655  26.179  1.00  0.00     0.166 HD
HETATM   27  C1  UNL     1      19.147 -16.775  27.070  1.00  0.00     0.089 C 
HETATM   28  N7  UNL     1      20.099 -16.622  24.786  1.00  0.00    -0.345 N 
HETATM   29  C17 UNL     1      20.207 -16.028  23.591  1.00  0.00     0.114 A 
BRANCH  28  30
HETATM   30  C18 UNL     1      20.879 -17.799  25.036  1.00  0.00     0.130 C 
BRANCH  30  31
HETATM   31  C19 UNL     1      22.350 -17.636  24.860  1.00  0.00     0.022 C 
BRANCH  31  32
HETATM   32  C20 UNL     1      23.086 -17.221  26.112  1.00  0.00     0.022 C 
BRANCH  32  33
HETATM   33  C21 UNL     1      23.808 -15.929  25.787  1.00  0.00     0.128 C 
BRANCH  33  34
HETATM   34  N8  UNL     1      22.967 -14.777  25.859  1.00  0.00    -0.366 N 
HETATM   35  C22 UNL     1      22.844 -13.990  24.771  1.00  0.00     0.090 A 
HETATM   36  C23 UNL     1      22.042 -12.864  24.792  1.00  0.00     0.017 A 
HETATM   37  C24 UNL     1      21.344 -12.502  25.911  1.00  0.00     0.003 A 
HETATM   38  C25 UNL     1      21.472 -13.316  27.035  1.00  0.00     0.017 A 
HETATM   39  C26 UNL     1      22.279 -14.420  26.962  1.00  0.00     0.090 A 
ENDBRANCH  33  34
ENDBRANCH  32  33
ENDBRANCH  31  32
ENDBRANCH  30  31
ENDBRANCH  28  30
ENDBRANCH   1  22
TORSDOF 10
ENDMDL
MODEL 3
REMARK VINA RESULT: -8.297299753      1.743      2.608
REMARK  10 active torsions:
REMARK  status: ('A' for Active; 'I' for Inactive)
REMARK    1  A    between atoms: C4_6  and  C5_7 
REMARK    2  A    between atoms: C6_8  and  C7_9 
REMARK    3  A    between atoms: N2_13  and  C11_14 
REMARK    4  A    between atoms: C11_14  and  C12_15 
REMARK    5  A    between atoms: C13_16  and  N3_17 
REMARK    6  A    between atoms: N7_29  and  C18_30 
REMARK    7  A    between atoms: C18_30  and  C19_31 
REMARK    8  A    between atoms: C19_31  and  C20_32 
REMARK    9  A    between atoms: C20_32  and  C21_33 
REMARK   10  A    between atoms: C21_33  and  N8_34 
ROOT
HETATM    1  C5  UNL     1      18.393 -13.984  21.546  1.00  0.00    -0.059 C 
HETATM    2  C6  UNL     1      18.084 -13.441  20.503  1.00  0.00    -0.060 C 
ENDROOT
BRANCH   2   3
HETATM    3  C7  UNL     1      17.696 -12.808  19.274  1.00  0.00     0.033 A 
HETATM    4  C8  UNL     1      18.607 -12.500  18.278  1.00  0.00     0.023 A 
HETATM    5  C9  UNL     1      18.171 -11.891  17.117  1.00  0.00     0.019 A 
HETATM    6  C10 UNL     1      16.840 -11.591  16.949  1.00  0.00     0.091 A 
HETATM    7  N2  UNL     1      15.949 -11.887  17.912  1.00  0.00    -0.354 N 
HETATM    8  C16 UNL     1      16.374 -12.483  19.049  1.00  0.00     0.112 A 
BRANCH   7   9
HETATM    9  C11 UNL     1      14.537 -11.600  17.803  1.00  0.00     0.223 C 
BRANCH   9  10
HETATM   10  C12 UNL     1      13.971 -11.249  19.106  1.00  0.00    -0.061 C 
HETATM   11  C13 UNL     1      13.521 -10.955  20.194  1.00  0.00     0.037 C 
BRANCH  11  12
HETATM   12  N3  UNL     1      13.020 -10.619  21.467  1.00  0.00    -0.193 N 
HETATM   13  C14 UNL     1      13.585  -9.737  22.331  1.00  0.00     0.234 A 
HETATM   14  N4  UNL     1      12.861  -9.650  23.446  1.00  0.00    -0.184 N 
HETATM   15  C15 UNL     1      11.824 -10.485  23.287  1.00  0.00     0.692 A 
ATOM     16  H4  UNL     1      13.056  -9.064  24.258  1.00  0.00     0.185 HD
HETATM   17  N5  UNL     1      10.902 -10.656  24.189  1.00  0.00    -0.233 N 
HETATM   18  N6  UNL     1      11.936 -11.067  22.077  1.00  0.00    -0.117 N 
ATOM     19  H52 UNL     1      10.817 -10.215  25.105  1.00  0.00     0.174 HD
ATOM     20  H51 UNL     1      10.114 -11.291  24.068  1.00  0.00     0.174 HD
ATOM     21  H6  UNL     1      11.285 -11.749  21.690  1.00  0.00     0.207 HD
ENDBRANCH  11  12
ENDBRANCH   9  10
ENDBRANCH   7   9
ENDBRANCH   2   3
BRANCH   1  22
HETATM   22  C4  UNL     1      18.734 -14.630  22.786  1.00  0.00     0.049 A 
HETATM   23  C3  UNL     1      18.229 -14.217  24.000  1.00  0.00     0.111 A 
HETATM   24  N1  UNL     1      18.559 -14.830  25.143  1.00  0.00    -0.354 N 
HETATM   25  C2  UNL     1      19.394 -15.876  25.155  1.00  0.00     0.079 A 
ATOM     26  H1  UNL     1      18.165 -14.495  26.022  1.00  0.00     0.166 HD
HETATM   27  C1  UNL     1      19.723 -16.518  26.460  1.00  0.00     0.089 C 
HETATM   28  N7  UNL     1      19.905 -16.307  23.997  1.00  0.00    -0.345 N 
HETATM   29  C17 UNL     1      19.594 -15.712  22.838  1.00  0.00     0.114 A 
BRANCH  28  30
HETATM   30  C18 UNL     1      20.805 -17.422  23.971  1.00  0.00     0.130 C 
BRANCH  30  31
HETATM   31  C19 UNL     1      22.217 -17.091  23.625  1.00  0.00     0.022 C 
BRANCH  31  32
HETATM   32  C20 UNL     1      23.139 -16.972  24.815  1.00  0.00     0.022 C 
BRANCH  32  33
HETATM   33  C21 UNL     1      23.774 -15.597  24.741  1.00  0.00     0.128 C 
BRANCH  33  34
HETATM   34  N8  UNL     1      22.952 -14.563  25.282  1.00  0.00    -0.366 N 
HETATM   35  C22 UNL     1      22.863 -14.433  26.621  1.00  0.00     0.090 A 
HETATM   36  C23 UNL     1      22.080 -13.447  27.192  1.00  0.00     0.017 A 
HETATM   37  C24 UNL     1      21.365 -12.568  26.427  1.00  0.00     0.003 A 
HETATM   38  C25 UNL     1      21.457 -12.703  25.042  1.00  0.00     0.017 A 
HETATM   39  C26 UNL     1      22.247 -13.696  24.528  1.00  0.00     0.090 A 
ENDBRANCH  33  34
ENDBRANCH  32  33
ENDBRANCH  31  32
ENDBRANCH  30  31
ENDBRANCH  28  30
ENDBRANCH   1  22
TORSDOF 10
ENDMDL
MODEL 4
REMARK VINA RESULT: -8.296455561      1.745      4.104
REMARK  10 active torsions:
REMARK  status: ('A' for Active; 'I' for Inactive)
REMARK    1  A    between atoms: C4_6  and  C5_7 
REMARK    2  A    between atoms: C6_8  and  C7_9 
REMARK    3  A    between atoms: N2_13  and  C11_14 
REMARK    4  A    between atoms: C11_14  and  C12_15 
REMARK    5  A    between atoms: C13_16  and  N3_17 
REMARK    6  A    between atoms: N7_29  and  C18_30 
REMARK    7  A    between atoms: C18_30  and  C19_31 
REMARK    8  A    between atoms: C19_31  and  C20_32 
REMARK    9  A    between atoms: C20_32  and  C21_33 
REMARK   10  A    between atoms: C21_33  and  N8_34 
ROOT
HETATM    1  C5  UNL     1      19.361 -12.859  21.888  1.00  0.00    -0.059 C 
HETATM    2  C6  UNL     1      18.471 -12.656  21.085  1.00  0.00    -0.060 C 
ENDROOT
BRANCH   2   3
HETATM    3  C7  UNL     1      17.434 -12.426  20.119  1.00  0.00     0.033 A 
HETATM    4  C8  UNL     1      17.691 -11.897  18.866  1.00  0.00     0.023 A 
HETATM    5  C9  UNL     1      16.649 -11.700  17.979  1.00  0.00     0.019 A 
HETATM    6  C10 UNL     1      15.363 -12.028  18.337  1.00  0.00     0.091 A 
HETATM    7  N2  UNL     1      15.106 -12.543  19.553  1.00  0.00    -0.354 N 
HETATM    8  C16 UNL     1      16.124 -12.736  20.422  1.00  0.00     0.112 A 
BRANCH   7   9
HETATM    9  C11 UNL     1      13.780 -12.909  19.997  1.00  0.00     0.223 C 
BRANCH   9  10
HETATM   10  C12 UNL     1      13.333 -12.041  21.088  1.00  0.00    -0.061 C 
HETATM   11  C13 UNL     1      12.967 -11.306  21.980  1.00  0.00     0.037 C 
BRANCH  11  12
HETATM   12  N3  UNL     1      12.552 -10.433  23.005  1.00  0.00    -0.193 N 
HETATM   13  C14 UNL     1      11.555 -10.674  23.894  1.00  0.00     0.234 A 
HETATM   14  N4  UNL     1      11.417  -9.646  24.730  1.00  0.00    -0.184 N 
HETATM   15  C15 UNL     1      12.340  -8.742  24.369  1.00  0.00     0.692 A 
ATOM     16  H4  UNL     1      10.745  -9.563  25.492  1.00  0.00     0.185 HD
HETATM   17  N5  UNL     1      12.495  -7.601  24.975  1.00  0.00    -0.233 N 
HETATM   18  N6  UNL     1      13.022  -9.237  23.317  1.00  0.00    -0.117 N 
ATOM     19  H52 UNL     1      11.979  -7.227  25.771  1.00  0.00     0.174 HD
ATOM     20  H51 UNL     1      13.197  -6.914  24.700  1.00  0.00     0.174 HD
ATOM     21  H6  UNL     1      13.785  -8.762  22.835  1.00  0.00     0.207 HD
ENDBRANCH  11  12
ENDBRANCH   9  10
ENDBRANCH   7   9
ENDBRANCH   2   3
BRANCH   1  22
HETATM   22  C4  UNL     1      20.426 -13.114  22.821  1.00  0.00     0.049 A 
HETATM   23  C3  UNL     1      21.753 -13.111  22.451  1.00  0.00     0.111 A 
HETATM   24  N1  UNL     1      22.730 -13.351  23.333  1.00  0.00    -0.354 N 
HETATM   25  C2  UNL     1      22.458 -13.603  24.620  1.00  0.00     0.079 A 
ATOM     26  H1  UNL     1      23.700 -13.341  23.020  1.00  0.00     0.166 HD
HETATM   27  C1  UNL     1      23.589 -13.862  25.555  1.00  0.00     0.089 C 
HETATM   28  N7  UNL     1      21.182 -13.614  25.019  1.00  0.00    -0.345 N 
HETATM   29  C17 UNL     1      20.184 -13.379  24.158  1.00  0.00     0.114 A 
BRANCH  28  30
HETATM   30  C18 UNL     1      20.853 -13.883  26.388  1.00  0.00     0.130 C 
BRANCH  30  31
HETATM   31  C19 UNL     1      19.906 -15.014  26.603  1.00  0.00     0.022 C 
BRANCH  31  32
HETATM   32  C20 UNL     1      20.451 -16.367  26.211  1.00  0.00     0.022 C 
BRANCH  32  33
HETATM   33  C21 UNL     1      19.317 -17.118  25.542  1.00  0.00     0.128 C 
BRANCH  33  34
HETATM   34  N8  UNL     1      19.226 -16.873  24.138  1.00  0.00    -0.366 N 
HETATM   35  C22 UNL     1      18.034 -16.529  23.612  1.00  0.00     0.090 A 
HETATM   36  C23 UNL     1      17.896 -16.281  22.258  1.00  0.00     0.017 A 
HETATM   37  C24 UNL     1      18.957 -16.375  21.401  1.00  0.00     0.003 A 
HETATM   38  C25 UNL     1      20.190 -16.731  21.946  1.00  0.00     0.017 A 
HETATM   39  C26 UNL     1      20.272 -16.965  23.293  1.00  0.00     0.090 A 
ENDBRANCH  33  34
ENDBRANCH  32  33
ENDBRANCH  31  32
ENDBRANCH  30  31
ENDBRANCH  28  30
ENDBRANCH   1  22
TORSDOF 10
ENDMDL
MODEL 5
REMARK VINA RESULT: -8.166607194      2.303      4.538
REMARK  10 active torsions:
REMARK  status: ('A' for Active; 'I' for Inactive)
REMARK    1  A    between atoms: C4_6  and  C5_7 
REMARK    2  A    between atoms: C6_8  and  C7_9 
REMARK    3  A    between atoms: N2_13  and  C11_14 
REMARK    4  A    between atoms: C11_14  and  C12_15 
REMARK    5  A    between atoms: C13_16  and  N3_17 
REMARK    6  A    between atoms: N7_29  and  C18_30 
REMARK    7  A    between atoms: C18_30  and  C19_31 
REMARK    8  A    between atoms: C19_31  and  C20_32 
REMARK    9  A    between atoms: C20_32  and  C21_33 
REMARK   10  A    between atoms: C21_33  and  N8_34 
ROOT
HETATM    1  C5  UNL     1      21.080 -13.002  21.940  1.00  0.00    -0.059 C 
HETATM    2  C6  UNL     1      20.688 -12.783  20.810  1.00  0.00    -0.060 C 
ENDROOT
BRANCH   2   3
HETATM    3  C7  UNL     1      20.248 -12.520  19.470  1.00  0.00     0.033 A 
HETATM    4  C8  UNL     1      21.090 -12.001  18.500  1.00  0.00     0.023 A 
HETATM    5  C9  UNL     1      20.606 -11.770  17.226  1.00  0.00     0.019 A 
HETATM    6  C10 UNL     1      19.296 -12.054  16.920  1.00  0.00     0.091 A 
HETATM    7  N2  UNL     1      18.472 -12.558  17.856  1.00  0.00    -0.354 N 
HETATM    8  C16 UNL     1      18.944 -12.784  19.104  1.00  0.00     0.112 A 
BRANCH   7   9
HETATM    9  C11 UNL     1      17.085 -12.878  17.605  1.00  0.00     0.223 C 
BRANCH   9  10
HETATM   10  C12 UNL     1      16.206 -12.169  18.536  1.00  0.00    -0.061 C 
HETATM   11  C13 UNL     1      15.463 -11.594  19.303  1.00  0.00     0.037 C 
BRANCH  11  12
HETATM   12  N3  UNL     1      14.580 -10.938  20.184  1.00  0.00    -0.193 N 
HETATM   13  C14 UNL     1      13.302 -10.581  19.901  1.00  0.00     0.234 A 
HETATM   14  N4  UNL     1      12.744  -9.978  20.950  1.00  0.00    -0.184 N 
HETATM   15  C15 UNL     1      13.680  -9.954  21.911  1.00  0.00     0.692 A 
ATOM     16  H4  UNL     1      11.795  -9.609  21.011  1.00  0.00     0.185 HD
HETATM   17  N5  UNL     1      13.480  -9.435  23.087  1.00  0.00    -0.233 N 
HETATM   18  N6  UNL     1      14.791 -10.543  21.427  1.00  0.00    -0.117 N 
ATOM     19  H52 UNL     1      12.638  -8.990  23.452  1.00  0.00     0.174 HD
ATOM     20  H51 UNL     1      14.191  -9.417  23.817  1.00  0.00     0.174 HD
ATOM     21  H6  UNL     1      15.662 -10.665  21.942  1.00  0.00     0.207 HD
ENDBRANCH  11  12
ENDBRANCH   9  10
ENDBRANCH   7   9
ENDBRANCH   2   3
BRANCH   1  22
HETATM   22  C4  UNL     1      21.569 -13.262  23.268  1.00  0.00     0.049 A 
HETATM   23  C3  UNL     1      22.896 -13.124  23.610  1.00  0.00     0.111 A 
HETATM   24  N1  UNL     1      23.331 -13.371  24.851  1.00  0.00    -0.354 N 
HETATM   25  C2  UNL     1      22.492 -13.762  25.818  1.00  0.00     0.079 A 
ATOM     26  H1  UNL     1      24.322 -13.259  25.065  1.00  0.00     0.166 HD
HETATM   27  C1  UNL     1      23.037 -14.021  27.181  1.00  0.00     0.089 C 
HETATM   28  N7  UNL     1      21.195 -13.907  25.525  1.00  0.00    -0.345 N 
HETATM   29  C17 UNL     1      20.731 -13.668  24.292  1.00  0.00     0.114 A 
BRANCH  28  30
HETATM   30  C18 UNL     1      20.267 -14.327  26.534  1.00  0.00     0.130 C 
BRANCH  30  31
HETATM   31  C19 UNL     1      19.928 -15.779  26.520  1.00  0.00     0.022 C 
BRANCH  31  32
HETATM   32  C20 UNL     1      18.471 -16.076  26.257  1.00  0.00     0.022 C 
BRANCH  32  33
HETATM   33  C21 UNL     1      18.430 -17.215  25.258  1.00  0.00     0.128 C 
BRANCH  33  34
HETATM   34  N8  UNL     1      18.662 -16.797  23.913  1.00  0.00    -0.366 N 
HETATM   35  C22 UNL     1      19.647 -17.388  23.206  1.00  0.00     0.090 A 
HETATM   36  C23 UNL     1      19.909 -17.017  21.900  1.00  0.00     0.017 A 
HETATM   37  C24 UNL     1      19.186 -16.040  21.274  1.00  0.00     0.003 A 
HETATM   38  C25 UNL     1      18.169 -15.429  22.005  1.00  0.00     0.017 A 
HETATM   39  C26 UNL     1      17.949 -15.833  23.295  1.00  0.00     0.090 A 
ENDBRANCH  33  34
ENDBRANCH  32  33
ENDBRANCH  31  32
ENDBRANCH  30  31
ENDBRANCH  28  30
ENDBRANCH   1  22
TORSDOF 10
ENDMDL
