MODEL 1
REMARK VINA RESULT: -8.791878803      0.000      0.000
REMARK  8 active torsions:
REMARK  status: ('A' for Active; 'I' for Inactive)
REMARK    1  A    between atoms: N1_2  and  C2_5 
REMARK    2  A    between atoms: C2_5  and  C3_6 
REMARK    3  A    between atoms: C3_6  and  C4_7 
REMARK    4  A    between atoms: C4_7  and  C5_8 
REMARK       I    between atoms: C5_8  and  N2_10 
REMARK    5  A    between atoms: N2_10  and  N3_12 
REMARK    6  A    between atoms: N4_15  and  C8_16 
REMARK    7  A    between atoms: C8_16  and  C9_17 
REMARK       I    between atoms: C9_17  and  N5_19 
REMARK    8  A    between atoms: N5_19  and  C10_21 
ROOT
HETATM    1  N3  UNL     1      17.746 -13.023  20.864  1.00  0.00     0.019 N 
HETATM    2  C6  UNL     1      18.001 -11.630  20.496  1.00  0.00     0.293 C 
HETATM    3  C7  UNL     1      16.673 -10.921  20.473  1.00  0.00     0.268 C 
HETATM    4  N4  UNL     1      15.612 -11.898  20.131  1.00  0.00    -0.054 N 
HETATM    5  C14 UNL     1      16.169 -12.722  19.087  1.00  0.00     0.268 C 
HETATM    6  C15 UNL     1      17.150 -13.704  19.774  1.00  0.00     0.293 C 
HETATM    7  C16 UNL     1      15.386 -12.637  21.332  1.00  0.00     0.268 C 
HETATM    8  C17 UNL     1      16.738 -12.911  21.953  1.00  0.00     0.293 C 
ENDROOT
BRANCH   1   9
HETATM    9  N2  UNL     1      18.869 -13.627  21.381  1.00  0.00    -0.185 N 
HETATM   10  C5  UNL     1      20.118 -13.911  20.852  1.00  0.00     0.241 C 
HETATM   11  O1  UNL     1      20.506 -13.653  19.697  1.00  0.00    -0.272 OA
ATOM     12  H2  UNL     1      18.760 -13.926  22.350  1.00  0.00     0.197 HD
BRANCH  10  13
HETATM   13  C4  UNL     1      21.122 -14.604  21.764  1.00  0.00     0.107 C 
BRANCH  13  14
HETATM   14  C3  UNL     1      21.707 -13.584  22.666  1.00  0.00     0.048 C 
BRANCH  14  15
HETATM   15  C2  UNL     1      21.983 -14.097  24.063  1.00  0.00     0.126 C 
HETATM   16  C18 UNL     1      22.392 -12.980  24.938  1.00  0.00     0.039 C 
HETATM   17  C19 UNL     1      21.328 -12.533  25.928  1.00  0.00     0.002 C 
HETATM   18  C20 UNL     1      21.320 -13.393  27.162  1.00  0.00     0.000 C 
HETATM   19  C21 UNL     1      20.232 -14.437  26.969  1.00  0.00     0.000 C 
HETATM   20  C22 UNL     1      20.742 -15.358  25.861  1.00  0.00     0.002 C 
HETATM   21  C23 UNL     1      20.663 -14.743  24.507  1.00  0.00     0.039 C 
BRANCH  15  22
HETATM   22  N1  UNL     1      22.922 -15.187  23.934  1.00  0.00    -0.070 N 
HETATM   23  C1  UNL     1      24.123 -15.002  24.719  1.00  0.00     0.267 C 
ATOM     24  H12 UNL     1      23.152 -15.354  22.955  1.00  0.00     0.277 HD
ATOM     25  H11 UNL     1      22.478 -16.078  24.157  1.00  0.00     0.277 HD
ENDBRANCH  15  22
ENDBRANCH  14  15
ENDBRANCH  13  14
ENDBRANCH  10  13
ENDBRANCH   1   9
BRANCH   4  26
HETATM   26  C8  UNL     1      14.517 -11.142  19.623  1.00  0.00     0.340 C 
BRANCH  26  27
HETATM   27  C9  UNL     1      13.195 -11.715  19.859  1.00  0.00     0.249 C 
HETATM   28  O2  UNL     1      12.899 -12.894  19.576  1.00  0.00    -0.271 OA
HETATM   29  N5  UNL     1      12.161 -10.928  20.435  1.00  0.00    -0.311 N 
ATOM     30  H5  UNL     1      11.406 -10.589  19.838  1.00  0.00     0.170 HD
BRANCH  29  31
HETATM   31  C10 UNL     1      12.148 -10.636  21.675  1.00  0.00     0.123 A 
HETATM   32  C11 UNL     1      11.876 -11.574  22.684  1.00  0.00     0.068 A 
HETATM   33  C12 UNL     1      11.956 -10.884  23.865  1.00  0.00     0.113 A 
HETATM   34  N6  UNL     1      12.254  -9.624  23.590  1.00  0.00    -0.306 N 
HETATM   35  C13 UNL     1      12.436  -8.531  24.548  1.00  0.00     0.177 C 
HETATM   36  N7  UNL     1      12.367  -9.481  22.292  1.00  0.00    -0.284 N 
ATOM     37  H7  UNL     1      12.592  -8.604  21.822  1.00  0.00     0.188 HD
ENDBRANCH  29  31
ENDBRANCH  26  27
ENDBRANCH   4  26
TORSDOF 8
ENDMDL
MODEL 2
REMARK VINA RESULT: -8.745807403      0.957      1.153
REMARK  8 active torsions:
REMARK  status: ('A' for Active; 'I' for Inactive)
REMARK    1  A    between atoms: N1_2  and  C2_5 
REMARK    2  A    between atoms: C2_5  and  C3_6 
REMARK    3  A    between atoms: C3_6  and  C4_7 
REMARK    4  A    between atoms: C4_7  and  C5_8 
REMARK       I    between atoms: C5_8  and  N2_10 
REMARK    5  A    between atoms: N2_10  and  N3_12 
REMARK    6  A    between atoms: N4_15  and  C8_16 
REMARK    7  A    between atoms: C8_16  and  C9_17 
REMARK       I    between atoms: C9_17  and  N5_19 
REMARK    8  A    between atoms: N5_19  and  C10_21 
ROOT
HETATM    1  N3  UNL     1      17.515 -12.970  20.845  1.00  0.00     0.019 N 
HETATM    2  C6  UNL     1      17.468 -11.561  20.453  1.00  0.00     0.293 C 
HETATM    3  C7  UNL     1      16.053 -11.087  20.647  1.00  0.00     0.268 C 
HETATM    4  N4  UNL     1      15.132 -12.236  20.472  1.00  0.00    -0.054 N 
HETATM    5  C14 UNL     1      15.648 -12.973  19.344  1.00  0.00     0.268 C 
HETATM    6  C15 UNL     1      16.879 -13.762  19.858  1.00  0.00     0.293 C 
HETATM    7  C16 UNL     1      15.228 -12.979  21.687  1.00  0.00     0.268 C 
HETATM    8  C17 UNL     1      16.689 -13.008  22.082  1.00  0.00     0.293 C 
ENDROOT
BRANCH   1   9
HETATM    9  N2  UNL     1      18.792 -13.364  21.171  1.00  0.00    -0.185 N 
HETATM   10  C5  UNL     1      19.975 -13.429  20.451  1.00  0.00     0.241 C 
HETATM   11  O1  UNL     1      20.129 -13.115  19.256  1.00  0.00    -0.272 OA
ATOM     12  H2  UNL     1      18.888 -13.672  22.139  1.00  0.00     0.197 HD
BRANCH  10  13
HETATM   13  C4  UNL     1      21.212 -13.930  21.185  1.00  0.00     0.107 C 
BRANCH  13  14
HETATM   14  C3  UNL     1      21.390 -13.109  22.405  1.00  0.00     0.048 C 
BRANCH  14  15
HETATM   15  C2  UNL     1      21.474 -13.925  23.678  1.00  0.00     0.126 C 
HETATM   16  C18 UNL     1      22.869 -13.958  24.162  1.00  0.00     0.039 C 
HETATM   17  C19 UNL     1      23.133 -13.086  25.380  1.00  0.00     0.002 C 
HETATM   18  C20 UNL     1      22.756 -13.784  26.657  1.00  0.00     0.000 C 
HETATM   19  C21 UNL     1      21.361 -13.307  27.029  1.00  0.00     0.000 C 
HETATM   20  C22 UNL     1      20.430 -13.902  25.974  1.00  0.00     0.002 C 
HETATM   21  C23 UNL     1      20.526 -13.217  24.655  1.00  0.00     0.039 C 
BRANCH  15  22
HETATM   22  N1  UNL     1      20.860 -15.203  23.401  1.00  0.00    -0.070 N 
HETATM   23  C1  UNL     1      21.704 -16.328  23.743  1.00  0.00     0.267 C 
ATOM     24  H12 UNL     1      20.560 -15.258  22.428  1.00  0.00     0.277 HD
ATOM     25  H11 UNL     1      19.954 -15.278  23.862  1.00  0.00     0.277 HD
ENDBRANCH  15  22
ENDBRANCH  14  15
ENDBRANCH  13  14
ENDBRANCH  10  13
ENDBRANCH   1   9
BRANCH   4  26
HETATM   26  C8  UNL     1      13.858 -11.686  20.150  1.00  0.00     0.340 C 
BRANCH  26  27
HETATM   27  C9  UNL     1      12.714 -12.348  20.769  1.00  0.00     0.249 C 
HETATM   28  O2  UNL     1      12.600 -13.589  20.847  1.00  0.00    -0.271 OA
HETATM   29  N5  UNL     1      11.651 -11.584  21.323  1.00  0.00    -0.311 N 
ATOM     30  H5  UNL     1      10.766 -11.528  20.818  1.00  0.00     0.170 HD
BRANCH  29  31
HETATM   31  C10 UNL     1      11.770 -10.969  22.431  1.00  0.00     0.123 A 
HETATM   32  C11 UNL     1      11.494 -11.561  23.675  1.00  0.00     0.068 A 
HETATM   33  C12 UNL     1      11.739 -10.591  24.612  1.00  0.00     0.113 A 
HETATM   34  N6  UNL     1      12.134  -9.496  23.982  1.00  0.00    -0.306 N 
HETATM   35  C13 UNL     1      12.500  -8.214  24.587  1.00  0.00     0.177 C 
HETATM   36  N7  UNL     1      12.151  -9.723  22.692  1.00  0.00    -0.284 N 
ATOM     37  H7  UNL     1      12.420  -9.039  21.985  1.00  0.00     0.188 HD
ENDBRANCH  29  31
ENDBRANCH  26  27
ENDBRANCH   4  26
TORSDOF 8
ENDMDL
MODEL 3
REMARK VINA RESULT: -8.613769046      1.185      1.668
REMARK  8 active torsions:
REMARK  status: ('A' for Active; 'I' for Inactive)
REMARK    1  A    between atoms: N1_2  and  C2_5 
REMARK    2  A    between atoms: C2_5  and  C3_6 
REMARK    3  A    between atoms: C3_6  and  C4_7 
REMARK    4  A    between atoms: C4_7  and  C5_8 
REMARK       I    between atoms: C5_8  and  N2_10 
REMARK    5  A    between atoms: N2_10  and  N3_12 
REMARK    6  A    between atoms: N4_15  and  C8_16 
REMARK    7  A    between atoms: C8_16  and  C9_17 
REMARK       I    between atoms: C9_17  and  N5_19 
REMARK    8  A    between atoms: N5_19  and  C10_21 
ROOT
HETATM    1  N3  UNL     1      18.302 -12.704  20.973  1.00  0.00     0.019 N 
HETATM    2  C6  UNL     1      18.282 -11.305  20.544  1.00  0.00     0.293 C 
HETATM    3  C7  UNL     1      16.851 -10.947  20.244  1.00  0.00     0.268 C 
HETATM    4  N4  UNL     1      16.130 -12.168  19.809  1.00  0.00    -0.054 N 
HETATM    5  C14 UNL     1      17.046 -12.866  18.940  1.00  0.00     0.268 C 
HETATM    6  C15 UNL     1      18.091 -13.549  19.856  1.00  0.00     0.293 C 
HETATM    7  C16 UNL     1      15.873 -12.896  21.010  1.00  0.00     0.268 C 
HETATM    8  C17 UNL     1      17.116 -12.804  21.867  1.00  0.00     0.293 C 
ENDROOT
BRANCH   1   9
HETATM    9  N2  UNL     1      19.423 -12.992  21.716  1.00  0.00    -0.185 N 
HETATM   10  C5  UNL     1      20.777 -12.782  21.505  1.00  0.00     0.241 C 
HETATM   11  O1  UNL     1      21.293 -12.242  20.508  1.00  0.00    -0.272 OA
ATOM     12  H2  UNL     1      19.217 -13.454  22.602  1.00  0.00     0.197 HD
BRANCH  10  13
HETATM   13  C4  UNL     1      21.734 -13.252  22.592  1.00  0.00     0.107 C 
BRANCH  13  14
HETATM   14  C3  UNL     1      21.381 -14.645  22.948  1.00  0.00     0.048 C 
BRANCH  14  15
HETATM   15  C2  UNL     1      21.450 -14.928  24.434  1.00  0.00     0.126 C 
HETATM   16  C18 UNL     1      22.858 -14.933  24.880  1.00  0.00     0.039 C 
HETATM   17  C19 UNL     1      23.272 -13.704  25.674  1.00  0.00     0.002 C 
HETATM   18  C20 UNL     1      22.894 -13.824  27.124  1.00  0.00     0.000 C 
HETATM   19  C21 UNL     1      21.575 -13.089  27.303  1.00  0.00     0.000 C 
HETATM   20  C22 UNL     1      20.535 -13.929  26.562  1.00  0.00     0.002 C 
HETATM   21  C23 UNL     1      20.630 -13.804  25.081  1.00  0.00     0.039 C 
BRANCH  15  22
HETATM   22  N1  UNL     1      20.699 -16.140  24.669  1.00  0.00    -0.070 N 
HETATM   23  C1  UNL     1      19.574 -16.297  23.773  1.00  0.00     0.267 C 
ATOM     24  H12 UNL     1      20.398 -16.197  25.641  1.00  0.00     0.277 HD
ATOM     25  H11 UNL     1      21.308 -16.957  24.632  1.00  0.00     0.277 HD
ENDBRANCH  15  22
ENDBRANCH  14  15
ENDBRANCH  13  14
ENDBRANCH  10  13
ENDBRANCH   1   9
BRANCH   4  26
HETATM   26  C8  UNL     1      14.998 -11.724  19.067  1.00  0.00     0.340 C 
BRANCH  26  27
HETATM   27  C9  UNL     1      13.727 -12.343  19.432  1.00  0.00     0.249 C 
HETATM   28  O2  UNL     1      13.517 -13.572  19.362  1.00  0.00    -0.271 OA
HETATM   29  N5  UNL     1      12.644 -11.547  19.895  1.00  0.00    -0.311 N 
ATOM     30  H5  UNL     1      11.857 -11.370  19.270  1.00  0.00     0.170 HD
BRANCH  29  31
HETATM   31  C10 UNL     1      12.627 -11.049  21.067  1.00  0.00     0.123 A 
HETATM   32  C11 UNL     1      13.477 -10.006  21.473  1.00  0.00     0.068 A 
HETATM   33  C12 UNL     1      13.157  -9.754  22.782  1.00  0.00     0.113 A 
HETATM   34  N6  UNL     1      12.188 -10.581  23.139  1.00  0.00    -0.306 N 
HETATM   35  C13 UNL     1      11.539 -10.667  24.449  1.00  0.00     0.177 C 
HETATM   36  N7  UNL     1      11.877 -11.346  22.121  1.00  0.00    -0.284 N 
ATOM     37  H7  UNL     1      11.158 -12.070  22.137  1.00  0.00     0.188 HD
ENDBRANCH  29  31
ENDBRANCH  26  27
ENDBRANCH   4  26
TORSDOF 8
ENDMDL
MODEL 4
REMARK VINA RESULT: -8.517279636      0.999      1.359
REMARK  8 active torsions:
REMARK  status: ('A' for Active; 'I' for Inactive)
REMARK    1  A    between atoms: N1_2  and  C2_5 
REMARK    2  A    between atoms: C2_5  and  C3_6 
REMARK    3  A    between atoms: C3_6  and  C4_7 
REMARK    4  A    between atoms: C4_7  and  C5_8 
REMARK       I    between atoms: C5_8  and  N2_10 
REMARK    5  A    between atoms: N2_10  and  N3_12 
REMARK    6  A    between atoms: N4_15  and  C8_16 
REMARK    7  A    between atoms: C8_16  and  C9_17 
REMARK       I    between atoms: C9_17  and  N5_19 
REMARK    8  A    between atoms: N5_19  and  C10_21 
ROOT
HETATM    1  N3  UNL     1      17.925 -13.544  21.026  1.00  0.00     0.019 N 
HETATM    2  C6  UNL     1      18.443 -12.212  20.710  1.00  0.00     0.293 C 
HETATM    3  C7  UNL     1      17.264 -11.281  20.620  1.00  0.00     0.268 C 
HETATM    4  N4  UNL     1      16.074 -12.052  20.186  1.00  0.00    -0.054 N 
HETATM    5  C14 UNL     1      16.548 -12.946  19.159  1.00  0.00     0.268 C 
HETATM    6  C15 UNL     1      17.295 -14.094  19.883  1.00  0.00     0.293 C 
HETATM    7  C16 UNL     1      15.642 -12.756  21.351  1.00  0.00     0.268 C 
HETATM    8  C17 UNL     1      16.881 -13.271  22.050  1.00  0.00     0.293 C 
ENDROOT
BRANCH   1   9
HETATM    9  N2  UNL     1      18.889 -14.341  21.598  1.00  0.00    -0.185 N 
HETATM   10  C5  UNL     1      20.171 -14.700  21.213  1.00  0.00     0.241 C 
HETATM   11  O1  UNL     1      20.757 -14.339  20.175  1.00  0.00    -0.272 OA
ATOM     12  H2  UNL     1      18.601 -14.752  22.487  1.00  0.00     0.197 HD
BRANCH  10  13
HETATM   13  C4  UNL     1      20.946 -15.624  22.142  1.00  0.00     0.107 C 
BRANCH  13  14
HETATM   14  C3  UNL     1      20.176 -15.768  23.399  1.00  0.00     0.048 C 
BRANCH  14  15
HETATM   15  C2  UNL     1      20.975 -15.435  24.642  1.00  0.00     0.126 C 
HETATM   16  C18 UNL     1      22.290 -14.881  24.260  1.00  0.00     0.039 C 
HETATM   17  C19 UNL     1      22.425 -13.380  24.465  1.00  0.00     0.002 C 
HETATM   18  C20 UNL     1      22.782 -13.042  25.886  1.00  0.00     0.000 C 
HETATM   19  C21 UNL     1      21.485 -12.690  26.598  1.00  0.00     0.000 C 
HETATM   20  C22 UNL     1      20.705 -14.000  26.698  1.00  0.00     0.002 C 
HETATM   21  C23 UNL     1      20.106 -14.424  25.402  1.00  0.00     0.039 C 
BRANCH  15  22
HETATM   22  N1  UNL     1      20.994 -16.624  25.462  1.00  0.00    -0.070 N 
HETATM   23  C1  UNL     1      22.318 -17.181  25.631  1.00  0.00     0.267 C 
ATOM     24  H12 UNL     1      20.349 -17.325  25.098  1.00  0.00     0.277 HD
ATOM     25  H11 UNL     1      20.557 -16.447  26.367  1.00  0.00     0.277 HD
ENDBRANCH  15  22
ENDBRANCH  14  15
ENDBRANCH  13  14
ENDBRANCH  10  13
ENDBRANCH   1   9
BRANCH   4  26
HETATM   26  C8  UNL     1      15.164 -11.109  19.628  1.00  0.00     0.340 C 
BRANCH  26  27
HETATM   27  C9  UNL     1      13.792 -11.581  19.464  1.00  0.00     0.249 C 
HETATM   28  O2  UNL     1      13.500 -12.652  18.893  1.00  0.00    -0.271 OA
HETATM   29  N5  UNL     1      12.702 -10.817  19.960  1.00  0.00    -0.311 N 
ATOM     30  H5  UNL     1      12.120 -10.299  19.302  1.00  0.00     0.170 HD
BRANCH  29  31
HETATM   31  C10 UNL     1      12.430 -10.759  21.203  1.00  0.00     0.123 A 
HETATM   32  C11 UNL     1      12.059 -11.882  21.963  1.00  0.00     0.068 A 
HETATM   33  C12 UNL     1      11.853 -11.418  23.236  1.00  0.00     0.113 A 
HETATM   34  N6  UNL     1      12.083 -10.115  23.245  1.00  0.00    -0.306 N 
HETATM   35  C13 UNL     1      11.982  -9.209  24.391  1.00  0.00     0.177 C 
HETATM   36  N7  UNL     1      12.424  -9.728  22.040  1.00  0.00    -0.284 N 
ATOM     37  H7  UNL     1      12.653  -8.769  21.781  1.00  0.00     0.188 HD
ENDBRANCH  29  31
ENDBRANCH  26  27
ENDBRANCH   4  26
TORSDOF 8
ENDMDL
MODEL 5
REMARK VINA RESULT: -8.509943119      1.235      1.539
REMARK  8 active torsions:
REMARK  status: ('A' for Active; 'I' for Inactive)
REMARK    1  A    between atoms: N1_2  and  C2_5 
REMARK    2  A    between atoms: C2_5  and  C3_6 
REMARK    3  A    between atoms: C3_6  and  C4_7 
REMARK    4  A    between atoms: C4_7  and  C5_8 
REMARK       I    between atoms: C5_8  and  N2_10 
REMARK    5  A    between atoms: N2_10  and  N3_12 
REMARK    6  A    between atoms: N4_15  and  C8_16 
REMARK    7  A    between atoms: C8_16  and  C9_17 
REMARK       I    between atoms: C9_17  and  N5_19 
REMARK    8  A    between atoms: N5_19  and  C10_21 
ROOT
HETATM    1  N3  UNL     1      18.256 -13.607  21.410  1.00  0.00     0.019 N 
HETATM    2  C6  UNL     1      18.903 -12.339  21.070  1.00  0.00     0.293 C 
HETATM    3  C7  UNL     1      17.822 -11.386  20.635  1.00  0.00     0.268 C 
HETATM    4  N4  UNL     1      16.704 -12.162  20.046  1.00  0.00    -0.054 N 
HETATM    5  C14 UNL     1      17.327 -13.185  19.243  1.00  0.00     0.268 C 
HETATM    6  C15 UNL     1      17.844 -14.266  20.226  1.00  0.00     0.293 C 
HETATM    7  C16 UNL     1      16.003 -12.711  21.163  1.00  0.00     0.268 C 
HETATM    8  C17 UNL     1      17.042 -13.183  22.157  1.00  0.00     0.293 C 
ENDROOT
BRANCH   1   9
HETATM    9  N2  UNL     1      19.035 -14.365  22.254  1.00  0.00    -0.185 N 
HETATM   10  C5  UNL     1      20.239 -15.030  22.087  1.00  0.00     0.241 C 
HETATM   11  O1  UNL     1      20.916 -15.079  21.042  1.00  0.00    -0.272 OA
ATOM     12  H2  UNL     1      18.647 -14.456  23.193  1.00  0.00     0.197 HD
BRANCH  10  13
HETATM   13  C4  UNL     1      20.798 -15.776  23.292  1.00  0.00     0.107 C 
BRANCH  13  14
HETATM   14  C3  UNL     1      22.262 -15.552  23.334  1.00  0.00     0.048 C 
BRANCH  14  15
HETATM   15  C2  UNL     1      22.692 -14.547  24.382  1.00  0.00     0.126 C 
HETATM   16  C18 UNL     1      22.093 -13.229  24.090  1.00  0.00     0.039 C 
HETATM   17  C19 UNL     1      20.946 -12.840  25.009  1.00  0.00     0.002 C 
HETATM   18  C20 UNL     1      21.442 -12.242  26.296  1.00  0.00     0.000 C 
HETATM   19  C21 UNL     1      21.456 -13.358  27.329  1.00  0.00     0.000 C 
HETATM   20  C22 UNL     1      22.570 -14.308  26.890  1.00  0.00     0.002 C 
HETATM   21  C23 UNL     1      22.200 -15.138  25.711  1.00  0.00     0.039 C 
BRANCH  15  22
HETATM   22  N1  UNL     1      24.134 -14.596  24.448  1.00  0.00    -0.070 N 
HETATM   23  C1  UNL     1      24.759 -13.305  24.262  1.00  0.00     0.267 C 
ATOM     24  H12 UNL     1      24.504 -15.276  23.783  1.00  0.00     0.277 HD
ATOM     25  H11 UNL     1      24.443 -15.026  25.319  1.00  0.00     0.277 HD
ENDBRANCH  15  22
ENDBRANCH  14  15
ENDBRANCH  13  14
ENDBRANCH  10  13
ENDBRANCH   1   9
BRANCH   4  26
HETATM   26  C8  UNL     1      15.984 -11.261  19.212  1.00  0.00     0.340 C 
BRANCH  26  27
HETATM   27  C9  UNL     1      14.644 -11.695  18.828  1.00  0.00     0.249 C 
HETATM   28  O2  UNL     1      14.422 -12.737  18.176  1.00  0.00    -0.271 OA
HETATM   29  N5  UNL     1      13.504 -10.926  19.190  1.00  0.00    -0.311 N 
ATOM     30  H5  UNL     1      13.035 -10.370  18.475  1.00  0.00     0.170 HD
BRANCH  29  31
HETATM   31  C10 UNL     1      13.053 -10.912  20.381  1.00  0.00     0.123 A 
HETATM   32  C11 UNL     1      12.407 -12.010  20.973  1.00  0.00     0.068 A 
HETATM   33  C12 UNL     1      12.074 -11.607  22.240  1.00  0.00     0.113 A 
HETATM   34  N6  UNL     1      12.487 -10.360  22.401  1.00  0.00    -0.306 N 
HETATM   35  C13 UNL     1      12.341  -9.530  23.599  1.00  0.00     0.177 C 
HETATM   36  N7  UNL     1      13.066  -9.952  21.298  1.00  0.00    -0.284 N 
ATOM     37  H7  UNL     1      13.470  -9.025  21.164  1.00  0.00     0.188 HD
ENDBRANCH  29  31
ENDBRANCH  26  27
ENDBRANCH   4  26
TORSDOF 8
ENDMDL
