MODEL 1
REMARK VINA RESULT: -8.098155607      0.000      0.000
REMARK  7 active torsions:
REMARK  status: ('A' for Active; 'I' for Inactive)
REMARK    1  A    between atoms: C2_2  and  C4_4 
REMARK    2  A    between atoms: C2_2  and  N6_24 
REMARK    3  A    between atoms: C4_4  and  N1_5 
REMARK    4  A    between atoms: N1_5  and  C7_8 
REMARK    5  A    between atoms: C7_8  and  C8_9 
REMARK       I    between atoms: C8_9  and  N2_11 
REMARK    6  A    between atoms: N2_11  and  C9_13 
REMARK       I    between atoms: N6_24  and  C15_26 
REMARK       I    between atoms: C15_26  and  N9_31 
REMARK    7  A    between atoms: N9_31  and  C17_33 
ROOT
HETATM    1  N6  UNL     1      19.616 -15.475  21.238  1.00  0.00    -0.216 N 
ATOM      2  H6  UNL     1      19.758 -15.451  20.228  1.00  0.00     0.178 HD
HETATM    3  C15 UNL     1      20.760 -15.299  22.032  1.00  0.00     0.684 C 
HETATM    4  N7  UNL     1      21.667 -16.204  22.037  1.00  0.00    -0.126 N 
ATOM      5  H7  UNL     1      22.473 -16.020  22.634  1.00  0.00     0.197 HD
HETATM    6  C16 UNL     1      21.696 -17.386  21.345  1.00  0.00     0.196 C 
HETATM    7  N8  UNL     1      21.700 -18.377  20.754  1.00  0.00    -0.171 NA
HETATM    8  N9  UNL     1      20.988 -14.158  22.818  1.00  0.00    -0.217 N 
ATOM      9  H9  UNL     1      20.843 -13.256  22.365  1.00  0.00     0.178 HD
ENDROOT
BRANCH   1  10
HETATM   10  C2  UNL     1      18.251 -15.686  21.693  1.00  0.00     0.064 C 
HETATM   11  C1  UNL     1      18.025 -14.887  22.924  1.00  0.00     0.040 C 
HETATM   12  C3  UNL     1      18.147 -17.184  21.956  1.00  0.00     0.040 C 
BRANCH  10  13
HETATM   13  C4  UNL     1      17.344 -15.248  20.592  1.00  0.00     0.267 C 
BRANCH  13  14
HETATM   14  N1  UNL     1      16.015 -15.585  20.524  1.00  0.00    -0.064 N 
HETATM   15  C5  UNL     1      15.798 -16.638  19.500  1.00  0.00     0.272 C 
HETATM   16  C6  UNL     1      15.260 -16.018  21.651  1.00  0.00     0.272 C 
BRANCH  14  17
HETATM   17  C7  UNL     1      15.238 -14.443  19.999  1.00  0.00     0.339 C 
BRANCH  17  18
HETATM   18  C8  UNL     1      15.459 -13.199  20.728  1.00  0.00     0.262 C 
HETATM   19  O1  UNL     1      14.990 -12.959  21.868  1.00  0.00    -0.271 OA
HETATM   20  N2  UNL     1      16.260 -12.217  20.082  1.00  0.00    -0.157 N 
ATOM     21  H2  UNL     1      15.864 -11.690  19.303  1.00  0.00     0.187 HD
BRANCH  20  22
HETATM   22  C9  UNL     1      17.473 -11.971  20.453  1.00  0.00     0.703 A 
HETATM   23  N3  UNL     1      17.799 -11.614  21.708  1.00  0.00    -0.130 N 
HETATM   24  N4  UNL     1      19.101 -11.436  21.767  1.00  0.00    -0.274 N 
ATOM     25  H3  UNL     1      17.146 -11.500  22.484  1.00  0.00     0.205 HD
HETATM   26  C10 UNL     1      19.598 -11.678  20.556  1.00  0.00     0.115 A 
ATOM     27  H4  UNL     1      19.634 -11.161  22.592  1.00  0.00     0.189 HD
HETATM   28  N5  UNL     1      18.602 -12.012  19.729  1.00  0.00    -0.169 N 
HETATM   29  C14 UNL     1      21.016 -11.627  20.057  1.00  0.00     0.079 C 
HETATM   30  C11 UNL     1      18.770 -12.343  18.334  1.00  0.00     0.149 C 
HETATM   31  C12 UNL     1      20.199 -12.469  17.926  1.00  0.00     0.021 C 
HETATM   32  C13 UNL     1      21.143 -12.756  19.055  1.00  0.00     0.009 C 
ENDBRANCH  20  22
ENDBRANCH  17  18
ENDBRANCH  14  17
ENDBRANCH  13  14
ENDBRANCH  10  13
ENDBRANCH   1  10
BRANCH   8  33
HETATM   33  C17 UNL     1      21.402 -14.128  24.193  1.00  0.00     0.043 C 
HETATM   34  C18 UNL     1      21.238 -15.403  24.943  1.00  0.00     0.039 C 
HETATM   35  C19 UNL     1      20.641 -13.054  24.927  1.00  0.00     0.031 C 
HETATM   36  C20 UNL     1      21.527 -12.633  26.063  1.00  0.00     0.002 C 
HETATM   37  C21 UNL     1      22.870 -13.289  25.822  1.00  0.00     0.002 C 
HETATM   38  C22 UNL     1      22.830 -13.644  24.351  1.00  0.00     0.031 C 
ENDBRANCH   8  33
TORSDOF 7
ENDMDL
MODEL 2
REMARK VINA RESULT: -8.000877522      2.339      4.588
REMARK  7 active torsions:
REMARK  status: ('A' for Active; 'I' for Inactive)
REMARK    1  A    between atoms: C2_2  and  C4_4 
REMARK    2  A    between atoms: C2_2  and  N6_24 
REMARK    3  A    between atoms: C4_4  and  N1_5 
REMARK    4  A    between atoms: N1_5  and  C7_8 
REMARK    5  A    between atoms: C7_8  and  C8_9 
REMARK       I    between atoms: C8_9  and  N2_11 
REMARK    6  A    between atoms: N2_11  and  C9_13 
REMARK       I    between atoms: N6_24  and  C15_26 
REMARK       I    between atoms: C15_26  and  N9_31 
REMARK    7  A    between atoms: N9_31  and  C17_33 
ROOT
HETATM    1  N6  UNL     1      20.998 -14.783  21.108  1.00  0.00    -0.216 N 
ATOM      2  H6  UNL     1      21.523 -15.414  20.502  1.00  0.00     0.178 HD
HETATM    3  C15 UNL     1      20.889 -15.159  22.455  1.00  0.00     0.684 C 
HETATM    4  N7  UNL     1      20.199 -16.193  22.765  1.00  0.00    -0.126 N 
ATOM      5  H7  UNL     1      20.156 -16.415  23.760  1.00  0.00     0.197 HD
HETATM    6  C16 UNL     1      19.511 -17.039  21.936  1.00  0.00     0.196 C 
HETATM    7  N8  UNL     1      18.938 -17.739  21.221  1.00  0.00    -0.171 NA
HETATM    8  N9  UNL     1      21.523 -14.473  23.503  1.00  0.00    -0.217 N 
ATOM      9  H9  UNL     1      22.511 -14.253  23.373  1.00  0.00     0.178 HD
ENDROOT
BRANCH   1  10
HETATM   10  C2  UNL     1      20.446 -13.594  20.477  1.00  0.00     0.064 C 
HETATM   11  C1  UNL     1      20.955 -13.507  19.085  1.00  0.00     0.040 C 
HETATM   12  C3  UNL     1      20.925 -12.429  21.336  1.00  0.00     0.040 C 
BRANCH  10  13
HETATM   13  C4  UNL     1      18.960 -13.730  20.500  1.00  0.00     0.267 C 
BRANCH  13  14
HETATM   14  N1  UNL     1      18.101 -12.662  20.572  1.00  0.00    -0.064 N 
HETATM   15  C5  UNL     1      17.258 -12.754  21.791  1.00  0.00     0.272 C 
HETATM   16  C6  UNL     1      18.535 -11.305  20.538  1.00  0.00     0.272 C 
BRANCH  14  17
HETATM   17  C7  UNL     1      17.113 -12.741  19.475  1.00  0.00     0.339 C 
BRANCH  17  18
HETATM   18  C8  UNL     1      16.103 -13.774  19.671  1.00  0.00     0.262 C 
HETATM   19  O1  UNL     1      16.366 -14.985  19.874  1.00  0.00    -0.271 OA
HETATM   20  N2  UNL     1      14.745 -13.354  19.622  1.00  0.00    -0.157 N 
ATOM     21  H2  UNL     1      14.331 -13.119  18.720  1.00  0.00     0.187 HD
BRANCH  20  22
HETATM   22  C9  UNL     1      14.019 -13.260  20.688  1.00  0.00     0.703 A 
HETATM   23  N3  UNL     1      13.920 -14.246  21.597  1.00  0.00    -0.130 N 
HETATM   24  N4  UNL     1      13.114 -13.850  22.557  1.00  0.00    -0.274 N 
ATOM     25  H3  UNL     1      14.392 -15.150  21.549  1.00  0.00     0.205 HD
HETATM   26  C10 UNL     1      12.703 -12.619  22.259  1.00  0.00     0.115 A 
ATOM     27  H4  UNL     1      12.850 -14.388  23.382  1.00  0.00     0.189 HD
HETATM   28  N5  UNL     1      13.256 -12.238  21.102  1.00  0.00    -0.169 N 
HETATM   29  C14 UNL     1      11.778 -11.694  23.001  1.00  0.00     0.079 C 
HETATM   30  C11 UNL     1      13.036 -10.960  20.470  1.00  0.00     0.149 C 
HETATM   31  C12 UNL     1      12.274 -10.003  21.323  1.00  0.00     0.021 C 
HETATM   32  C13 UNL     1      12.334 -10.299  22.792  1.00  0.00     0.009 C 
ENDBRANCH  20  22
ENDBRANCH  17  18
ENDBRANCH  14  17
ENDBRANCH  13  14
ENDBRANCH  10  13
ENDBRANCH   1  10
BRANCH   8  33
HETATM   33  C17 UNL     1      20.928 -14.048  24.740  1.00  0.00     0.043 C 
HETATM   34  C18 UNL     1      19.447 -13.912  24.727  1.00  0.00     0.039 C 
HETATM   35  C19 UNL     1      21.516 -12.724  25.154  1.00  0.00     0.031 C 
HETATM   36  C20 UNL     1      21.393 -12.677  26.649  1.00  0.00     0.002 C 
HETATM   37  C21 UNL     1      20.968 -14.063  27.087  1.00  0.00     0.002 C 
HETATM   38  C22 UNL     1      21.331 -14.933  25.903  1.00  0.00     0.031 C 
ENDBRANCH   8  33
TORSDOF 7
ENDMDL
MODEL 3
REMARK VINA RESULT: -7.977389301      2.489      4.813
REMARK  7 active torsions:
REMARK  status: ('A' for Active; 'I' for Inactive)
REMARK    1  A    between atoms: C2_2  and  C4_4 
REMARK    2  A    between atoms: C2_2  and  N6_24 
REMARK    3  A    between atoms: C4_4  and  N1_5 
REMARK    4  A    between atoms: N1_5  and  C7_8 
REMARK    5  A    between atoms: C7_8  and  C8_9 
REMARK       I    between atoms: C8_9  and  N2_11 
REMARK    6  A    between atoms: N2_11  and  C9_13 
REMARK       I    between atoms: N6_24  and  C15_26 
REMARK       I    between atoms: C15_26  and  N9_31 
REMARK    7  A    between atoms: N9_31  and  C17_33 
ROOT
HETATM    1  N6  UNL     1      19.809 -14.020  20.631  1.00  0.00    -0.216 N 
ATOM      2  H6  UNL     1      19.624 -14.624  19.830  1.00  0.00     0.178 HD
HETATM    3  C15 UNL     1      20.097 -14.665  21.844  1.00  0.00     0.684 C 
HETATM    4  N7  UNL     1      19.178 -15.335  22.434  1.00  0.00    -0.126 N 
ATOM      5  H7  UNL     1      19.447 -15.779  23.311  1.00  0.00     0.197 HD
HETATM    6  C16 UNL     1      17.880 -15.533  22.039  1.00  0.00     0.196 C 
HETATM    7  N8  UNL     1      16.792 -15.687  21.690  1.00  0.00    -0.171 NA
HETATM    8  N9  UNL     1      21.362 -14.640  22.451  1.00  0.00    -0.217 N 
ATOM      9  H9  UNL     1      22.161 -14.846  21.850  1.00  0.00     0.178 HD
ENDROOT
BRANCH   1  10
HETATM   10  C2  UNL     1      19.744 -12.588  20.388  1.00  0.00     0.064 C 
HETATM   11  C1  UNL     1      21.113 -12.085  20.102  1.00  0.00     0.040 C 
HETATM   12  C3  UNL     1      19.172 -11.991  21.669  1.00  0.00     0.040 C 
BRANCH  10  13
HETATM   13  C4  UNL     1      18.839 -12.377  19.220  1.00  0.00     0.267 C 
BRANCH  13  14
HETATM   14  N1  UNL     1      17.469 -12.419  19.305  1.00  0.00    -0.064 N 
HETATM   15  C5  UNL     1      16.955 -13.714  18.793  1.00  0.00     0.272 C 
HETATM   16  C6  UNL     1      16.754 -12.204  20.518  1.00  0.00     0.272 C 
BRANCH  14  17
HETATM   17  C7  UNL     1      16.882 -11.434  18.373  1.00  0.00     0.339 C 
BRANCH  17  18
HETATM   18  C8  UNL     1      15.550 -11.795  17.902  1.00  0.00     0.262 C 
HETATM   19  O1  UNL     1      15.328 -12.632  16.993  1.00  0.00    -0.271 OA
HETATM   20  N2  UNL     1      14.453 -11.142  18.532  1.00  0.00    -0.157 N 
ATOM     21  H2  UNL     1      14.267 -10.164  18.310  1.00  0.00     0.187 HD
BRANCH  20  22
HETATM   22  C9  UNL     1      13.687 -11.751  19.375  1.00  0.00     0.703 A 
HETATM   23  N3  UNL     1      13.407 -13.064  19.295  1.00  0.00    -0.130 N 
HETATM   24  N4  UNL     1      12.605 -13.381  20.290  1.00  0.00    -0.274 N 
ATOM     25  H3  UNL     1      13.756 -13.707  18.584  1.00  0.00     0.205 HD
HETATM   26  C10 UNL     1      12.379 -12.276  20.995  1.00  0.00     0.115 A 
ATOM     27  H4  UNL     1      12.226 -14.308  20.485  1.00  0.00     0.189 HD
HETATM   28  N5  UNL     1      13.042 -11.255  20.441  1.00  0.00    -0.169 N 
HETATM   29  C14 UNL     1      11.543 -12.060  22.227  1.00  0.00     0.079 C 
HETATM   30  C11 UNL     1      13.030  -9.901  20.941  1.00  0.00     0.149 C 
HETATM   31  C12 UNL     1      12.354  -9.766  22.263  1.00  0.00     0.021 C 
HETATM   32  C13 UNL     1      12.289 -11.036  23.058  1.00  0.00     0.009 C 
ENDBRANCH  20  22
ENDBRANCH  17  18
ENDBRANCH  14  17
ENDBRANCH  13  14
ENDBRANCH  10  13
ENDBRANCH   1  10
BRANCH   8  33
HETATM   33  C17 UNL     1      21.652 -14.355  23.829  1.00  0.00     0.043 C 
HETATM   34  C18 UNL     1      21.803 -15.542  24.713  1.00  0.00     0.039 C 
HETATM   35  C19 UNL     1      20.568 -13.480  24.403  1.00  0.00     0.031 C 
HETATM   36  C20 UNL     1      21.216 -12.711  25.517  1.00  0.00     0.002 C 
HETATM   37  C21 UNL     1      22.703 -12.971  25.407  1.00  0.00     0.002 C 
HETATM   38  C22 UNL     1      22.870 -13.466  23.986  1.00  0.00     0.031 C 
ENDBRANCH   8  33
TORSDOF 7
ENDMDL
MODEL 4
REMARK VINA RESULT: -7.901986077      2.701      4.914
REMARK  7 active torsions:
REMARK  status: ('A' for Active; 'I' for Inactive)
REMARK    1  A    between atoms: C2_2  and  C4_4 
REMARK    2  A    between atoms: C2_2  and  N6_24 
REMARK    3  A    between atoms: C4_4  and  N1_5 
REMARK    4  A    between atoms: N1_5  and  C7_8 
REMARK    5  A    between atoms: C7_8  and  C8_9 
REMARK       I    between atoms: C8_9  and  N2_11 
REMARK    6  A    between atoms: N2_11  and  C9_13 
REMARK       I    between atoms: N6_24  and  C15_26 
REMARK       I    between atoms: C15_26  and  N9_31 
REMARK    7  A    between atoms: N9_31  and  C17_33 
ROOT
HETATM    1  N6  UNL     1      20.444 -14.197  21.404  1.00  0.00    -0.216 N 
ATOM      2  H6  UNL     1      20.367 -14.932  20.701  1.00  0.00     0.178 HD
HETATM    3  C15 UNL     1      20.882 -14.595  22.676  1.00  0.00     0.684 C 
HETATM    4  N7  UNL     1      20.129 -15.343  23.395  1.00  0.00    -0.126 N 
ATOM      5  H7  UNL     1      20.501 -15.598  24.310  1.00  0.00     0.197 HD
HETATM    6  C16 UNL     1      18.889 -15.844  23.095  1.00  0.00     0.196 C 
HETATM    7  N8  UNL     1      17.847 -16.256  22.823  1.00  0.00    -0.171 NA
HETATM    8  N9  UNL     1      22.129 -14.238  23.212  1.00  0.00    -0.217 N 
ATOM      9  H9  UNL     1      22.940 -14.367  22.606  1.00  0.00     0.178 HD
ENDROOT
BRANCH   1  10
HETATM   10  C2  UNL     1      20.088 -12.854  20.975  1.00  0.00     0.064 C 
HETATM   11  C1  UNL     1      21.328 -12.117  20.620  1.00  0.00     0.040 C 
HETATM   12  C3  UNL     1      19.373 -12.230  22.169  1.00  0.00     0.040 C 
BRANCH  10  13
HETATM   13  C4  UNL     1      19.187 -12.991  19.793  1.00  0.00     0.267 C 
BRANCH  13  14
HETATM   14  N1  UNL     1      17.826 -12.817  19.852  1.00  0.00    -0.064 N 
HETATM   15  C5  UNL     1      17.243 -12.816  18.487  1.00  0.00     0.272 C 
HETATM   16  C6  UNL     1      16.962 -13.658  20.611  1.00  0.00     0.272 C 
BRANCH  14  17
HETATM   17  C7  UNL     1      17.519 -11.459  20.349  1.00  0.00     0.339 C 
BRANCH  17  18
HETATM   18  C8  UNL     1      16.199 -10.978  19.957  1.00  0.00     0.262 C 
HETATM   19  O1  UNL     1      15.761 -11.006  18.781  1.00  0.00    -0.271 OA
HETATM   20  N2  UNL     1      15.380 -10.451  20.995  1.00  0.00    -0.157 N 
ATOM     21  H2  UNL     1      15.601  -9.533  21.381  1.00  0.00     0.187 HD
BRANCH  20  22
HETATM   22  C9  UNL     1      14.365 -11.101  21.462  1.00  0.00     0.703 A 
HETATM   23  N3  UNL     1      14.124 -12.391  21.172  1.00  0.00    -0.130 N 
HETATM   24  N4  UNL     1      13.025 -12.761  21.795  1.00  0.00    -0.274 N 
ATOM     25  H3  UNL     1      14.696 -12.985  20.571  1.00  0.00     0.205 HD
HETATM   26  C10 UNL     1      12.573 -11.710  22.476  1.00  0.00     0.115 A 
ATOM     27  H4  UNL     1      12.598 -13.686  21.762  1.00  0.00     0.189 HD
HETATM   28  N5  UNL     1      13.393 -10.672  22.280  1.00  0.00    -0.169 N 
HETATM   29  C14 UNL     1      11.362 -11.568  23.356  1.00  0.00     0.079 C 
HETATM   30  C11 UNL     1      13.214  -9.364  22.864  1.00  0.00     0.149 C 
HETATM   31  C12 UNL     1      12.120  -9.316  23.877  1.00  0.00     0.021 C 
HETATM   32  C13 UNL     1      11.777 -10.644  24.483  1.00  0.00     0.009 C 
ENDBRANCH  20  22
ENDBRANCH  17  18
ENDBRANCH  14  17
ENDBRANCH  13  14
ENDBRANCH  10  13
ENDBRANCH   1  10
BRANCH   8  33
HETATM   33  C17 UNL     1      22.386 -13.711  24.524  1.00  0.00     0.043 C 
HETATM   34  C18 UNL     1      23.720 -13.083  24.715  1.00  0.00     0.039 C 
HETATM   35  C19 UNL     1      22.235 -14.807  25.547  1.00  0.00     0.031 C 
HETATM   36  C20 UNL     1      21.854 -14.117  26.825  1.00  0.00     0.002 C 
HETATM   37  C21 UNL     1      21.555 -12.679  26.462  1.00  0.00     0.002 C 
HETATM   38  C22 UNL     1      21.314 -12.736  24.968  1.00  0.00     0.031 C 
ENDBRANCH   8  33
TORSDOF 7
ENDMDL
MODEL 5
REMARK VINA RESULT: -7.848345696      2.609      5.059
REMARK  7 active torsions:
REMARK  status: ('A' for Active; 'I' for Inactive)
REMARK    1  A    between atoms: C2_2  and  C4_4 
REMARK    2  A    between atoms: C2_2  and  N6_24 
REMARK    3  A    between atoms: C4_4  and  N1_5 
REMARK    4  A    between atoms: N1_5  and  C7_8 
REMARK    5  A    between atoms: C7_8  and  C8_9 
REMARK       I    between atoms: C8_9  and  N2_11 
REMARK    6  A    between atoms: N2_11  and  C9_13 
REMARK       I    between atoms: N6_24  and  C15_26 
REMARK       I    between atoms: C15_26  and  N9_31 
REMARK    7  A    between atoms: N9_31  and  C17_33 
ROOT
HETATM    1  N6  UNL     1      17.244 -13.760  20.144  1.00  0.00    -0.216 N 
ATOM      2  H6  UNL     1      16.765 -14.220  19.369  1.00  0.00     0.178 HD
HETATM    3  C15 UNL     1      18.073 -14.572  20.933  1.00  0.00     0.684 C 
HETATM    4  N7  UNL     1      17.547 -15.482  21.666  1.00  0.00    -0.126 N 
ATOM      5  H7  UNL     1      18.201 -16.038  22.218  1.00  0.00     0.197 HD
HETATM    6  C16 UNL     1      16.223 -15.806  21.805  1.00  0.00     0.196 C 
HETATM    7  N8  UNL     1      15.104 -16.063  21.908  1.00  0.00    -0.171 NA
HETATM    8  N9  UNL     1      19.472 -14.462  20.952  1.00  0.00    -0.217 N 
ATOM      9  H9  UNL     1      19.939 -14.417  20.046  1.00  0.00     0.178 HD
ENDROOT
BRANCH   1  10
HETATM   10  C2  UNL     1      16.991 -12.337  20.305  1.00  0.00     0.064 C 
HETATM   11  C1  UNL     1      18.275 -11.602  20.179  1.00  0.00     0.040 C 
HETATM   12  C3  UNL     1      16.385 -12.196  21.697  1.00  0.00     0.040 C 
BRANCH  10  13
HETATM   13  C4  UNL     1      16.032 -11.934  19.234  1.00  0.00     0.267 C 
BRANCH  13  14
HETATM   14  N1  UNL     1      16.108 -12.384  17.940  1.00  0.00    -0.064 N 
HETATM   15  C5  UNL     1      16.280 -11.245  17.003  1.00  0.00     0.272 C 
HETATM   16  C6  UNL     1      17.055 -13.354  17.503  1.00  0.00     0.272 C 
BRANCH  14  17
HETATM   17  C7  UNL     1      14.807 -12.958  17.535  1.00  0.00     0.339 C 
BRANCH  17  18
HETATM   18  C8  UNL     1      14.306 -13.976  18.450  1.00  0.00     0.262 C 
HETATM   19  O1  UNL     1      14.925 -15.031  18.734  1.00  0.00    -0.271 OA
HETATM   20  N2  UNL     1      13.035 -13.731  19.041  1.00  0.00    -0.157 N 
ATOM     21  H2  UNL     1      12.196 -13.831  18.469  1.00  0.00     0.187 HD
BRANCH  20  22
HETATM   22  C9  UNL     1      12.912 -13.386  20.280  1.00  0.00     0.703 A 
HETATM   23  N3  UNL     1      12.891 -14.274  21.290  1.00  0.00    -0.130 N 
HETATM   24  N4  UNL     1      12.755 -13.616  22.421  1.00  0.00    -0.274 N 
ATOM     25  H3  UNL     1      12.967 -15.287  21.195  1.00  0.00     0.205 HD
HETATM   26  C10 UNL     1      12.690 -12.319  22.130  1.00  0.00     0.115 A 
ATOM     27  H4  UNL     1      12.708 -14.027  23.354  1.00  0.00     0.189 HD
HETATM   28  N5  UNL     1      12.786 -12.159  20.806  1.00  0.00    -0.169 N 
HETATM   29  C14 UNL     1      12.537 -11.125  23.032  1.00  0.00     0.079 C 
HETATM   30  C11 UNL     1      12.755 -10.884  20.130  1.00  0.00     0.149 C 
HETATM   31  C12 UNL     1      12.797  -9.721  21.062  1.00  0.00     0.021 C 
HETATM   32  C13 UNL     1      13.377 -10.028  22.410  1.00  0.00     0.009 C 
ENDBRANCH  20  22
ENDBRANCH  17  18
ENDBRANCH  14  17
ENDBRANCH  13  14
ENDBRANCH  10  13
ENDBRANCH   1  10
BRANCH   8  33
HETATM   33  C17 UNL     1      20.317 -14.405  22.113  1.00  0.00     0.043 C 
HETATM   34  C18 UNL     1      20.949 -15.691  22.512  1.00  0.00     0.039 C 
HETATM   35  C19 UNL     1      19.528 -13.888  23.288  1.00  0.00     0.031 C 
HETATM   36  C20 UNL     1      20.532 -13.244  24.199  1.00  0.00     0.002 C 
HETATM   37  C21 UNL     1      21.832 -13.184  23.426  1.00  0.00     0.002 C 
HETATM   38  C22 UNL     1      21.394 -13.346  21.986  1.00  0.00     0.031 C 
ENDBRANCH   8  33
TORSDOF 7
ENDMDL
