MODEL 1
REMARK VINA RESULT: -9.081229650      0.000      0.000
REMARK  8 active torsions:
REMARK  status: ('A' for Active; 'I' for Inactive)
REMARK    1  A    between atoms: C2_2  and  C3_3 
REMARK    2  A    between atoms: C3_3  and  N1_4 
REMARK    3  A    between atoms: N1_4  and  C5_6 
REMARK    4  A    between atoms: C7_8  and  C8_9 
REMARK    5  A    between atoms: C10_13  and  N2_14 
REMARK    6  A    between atoms: N3_17  and  C13_18 
REMARK    7  A    between atoms: C13_18  and  C14_19 
REMARK       I    between atoms: C14_19  and  N4_21 
REMARK    8  A    between atoms: N4_21  and  C15_23 
ROOT
HETATM    1  N2  UNL     1      16.988 -12.912  20.508  1.00  0.00    -0.054 N 
HETATM    2  C11 UNL     1      17.039 -11.450  20.268  1.00  0.00     0.266 C 
HETATM    3  C12 UNL     1      15.696 -10.800  20.488  1.00  0.00     0.266 C 
HETATM    4  N3  UNL     1      14.698 -11.782  20.129  1.00  0.00    -0.054 N 
HETATM    5  C18 UNL     1      14.664 -12.733  21.243  1.00  0.00     0.266 C 
HETATM    6  C19 UNL     1      16.074 -13.027  21.646  1.00  0.00     0.266 C 
HETATM    7  C20 UNL     1      15.175 -12.490  18.981  1.00  0.00     0.271 C 
HETATM    8  C21 UNL     1      16.331 -13.439  19.347  1.00  0.00     0.213 C 
HETATM    9  C22 UNL     1      15.759 -14.803  19.468  1.00  0.00     0.042 C 
ENDROOT
BRANCH   1  10
HETATM   10  C10 UNL     1      18.302 -13.372  20.761  1.00  0.00     0.194 C 
HETATM   11  C9  UNL     1      19.178 -13.523  19.557  1.00  0.00     0.049 C 
HETATM   12  C7  UNL     1      20.645 -13.430  19.768  1.00  0.00     0.091 C 
HETATM   13  C6  UNL     1      21.160 -13.705  21.130  1.00  0.00     0.040 C 
HETATM   14  C5  UNL     1      20.190 -13.649  22.245  1.00  0.00     0.086 C 
HETATM   15  C23 UNL     1      19.058 -12.674  21.882  1.00  0.00     0.058 C 
BRANCH  12  16
HETATM   16  C8  UNL     1      21.232 -12.164  19.191  1.00  0.00     0.177 C 
HETATM   17  O1  UNL     1      21.762 -11.364  19.994  1.00  0.00    -0.648 OA
HETATM   18  O2  UNL     1      21.211 -11.861  17.859  1.00  0.00    -0.648 OA
ENDBRANCH  12  16
BRANCH  14  19
HETATM   19  N1  UNL     1      20.798 -13.399  23.475  1.00  0.00    -0.390 N 
HETATM   20  C4  UNL     1      22.201 -13.285  23.523  1.00  0.00     0.149 C 
BRANCH  19  21
HETATM   21  C3  UNL     1      20.107 -13.615  24.675  1.00  0.00     0.084 C 
BRANCH  21  22
HETATM   22  C2  UNL     1      20.914 -13.126  25.842  1.00  0.00     0.007 C 
HETATM   23  C1  UNL     1      20.902 -13.745  27.012  1.00  0.00     0.012 C 
ENDBRANCH  21  22
ENDBRANCH  19  21
ENDBRANCH  14  19
ENDBRANCH   1  10
BRANCH   4  24
HETATM   24  C13 UNL     1      13.368 -11.287  20.011  1.00  0.00     0.340 C 
BRANCH  24  25
HETATM   25  C14 UNL     1      13.037 -10.023  20.638  1.00  0.00     0.262 C 
HETATM   26  O3  UNL     1      12.415  -9.118  20.071  1.00  0.00    -0.271 OA
HETATM   27  N4  UNL     1      13.469  -9.835  22.000  1.00  0.00    -0.158 N 
ATOM     28  H4  UNL     1      14.395  -9.447  22.183  1.00  0.00     0.187 HD
BRANCH  27  29
HETATM   29  C15 UNL     1      12.705 -10.148  22.992  1.00  0.00     0.684 A 
HETATM   30  N5  UNL     1      12.498  -9.339  24.049  1.00  0.00    -0.200 N 
HETATM   31  C16 UNL     1      11.659  -9.964  24.892  1.00  0.00     0.123 A 
ATOM     32  H5  UNL     1      12.907  -8.414  24.186  1.00  0.00     0.183 HD
HETATM   33  C17 UNL     1      11.335 -11.181  24.355  1.00  0.00     0.123 A 
HETATM   34  N6  UNL     1      11.994 -11.265  23.186  1.00  0.00    -0.200 N 
ATOM     35  H6  UNL     1      11.957 -12.058  22.546  1.00  0.00     0.183 HD
ENDBRANCH  27  29
ENDBRANCH  24  25
ENDBRANCH   4  24
TORSDOF 8
ENDMDL
MODEL 2
REMARK VINA RESULT: -8.812489968      2.528      3.752
REMARK  8 active torsions:
REMARK  status: ('A' for Active; 'I' for Inactive)
REMARK    1  A    between atoms: C2_2  and  C3_3 
REMARK    2  A    between atoms: C3_3  and  N1_4 
REMARK    3  A    between atoms: N1_4  and  C5_6 
REMARK    4  A    between atoms: C7_8  and  C8_9 
REMARK    5  A    between atoms: C10_13  and  N2_14 
REMARK    6  A    between atoms: N3_17  and  C13_18 
REMARK    7  A    between atoms: C13_18  and  C14_19 
REMARK       I    between atoms: C14_19  and  N4_21 
REMARK    8  A    between atoms: N4_21  and  C15_23 
ROOT
HETATM    1  N2  UNL     1      15.060 -12.454  19.469  1.00  0.00    -0.054 N 
HETATM    2  C11 UNL     1      14.207 -11.429  18.820  1.00  0.00     0.266 C 
HETATM    3  C12 UNL     1      13.178 -10.872  19.772  1.00  0.00     0.266 C 
HETATM    4  N3  UNL     1      12.842 -11.939  20.687  1.00  0.00    -0.054 N 
HETATM    5  C18 UNL     1      13.971 -12.031  21.616  1.00  0.00     0.266 C 
HETATM    6  C19 UNL     1      15.235 -11.925  20.824  1.00  0.00     0.266 C 
HETATM    7  C20 UNL     1      12.807 -13.160  19.941  1.00  0.00     0.271 C 
HETATM    8  C21 UNL     1      14.222 -13.616  19.543  1.00  0.00     0.213 C 
HETATM    9  C22 UNL     1      14.631 -14.670  20.504  1.00  0.00     0.042 C 
ENDROOT
BRANCH   1  10
HETATM   10  C10 UNL     1      16.258 -12.576  18.727  1.00  0.00     0.194 C 
HETATM   11  C9  UNL     1      16.105 -12.526  17.238  1.00  0.00     0.049 C 
HETATM   12  C7  UNL     1      17.280 -12.077  16.450  1.00  0.00     0.091 C 
HETATM   13  C6  UNL     1      18.616 -12.200  17.079  1.00  0.00     0.040 C 
HETATM   14  C5  UNL     1      18.659 -12.366  18.549  1.00  0.00     0.086 C 
HETATM   15  C23 UNL     1      17.420 -11.700  19.169  1.00  0.00     0.058 C 
BRANCH  12  16
HETATM   16  C8  UNL     1      17.074 -10.714  15.833  1.00  0.00     0.177 C 
HETATM   17  O1  UNL     1      15.898 -10.294  15.759  1.00  0.00    -0.648 OA
HETATM   18  O2  UNL     1      18.094  -9.937  15.361  1.00  0.00    -0.648 OA
ENDBRANCH  12  16
BRANCH  14  19
HETATM   19  N1  UNL     1      19.874 -11.958  19.100  1.00  0.00    -0.390 N 
HETATM   20  C4  UNL     1      21.046 -12.106  18.334  1.00  0.00     0.149 C 
BRANCH  19  21
HETATM   21  C3  UNL     1      20.003 -11.754  20.480  1.00  0.00     0.084 C 
BRANCH  21  22
HETATM   22  C2  UNL     1      21.315 -12.292  20.971  1.00  0.00     0.007 C 
HETATM   23  C1  UNL     1      21.399 -13.075  22.036  1.00  0.00     0.012 C 
ENDBRANCH  21  22
ENDBRANCH  19  21
ENDBRANCH  14  19
ENDBRANCH   1  10
BRANCH   4  24
HETATM   24  C13 UNL     1      11.698 -11.708  21.501  1.00  0.00     0.340 C 
BRANCH  24  25
HETATM   25  C14 UNL     1      11.843 -11.775  22.943  1.00  0.00     0.262 C 
HETATM   26  O3  UNL     1      12.546 -12.609  23.523  1.00  0.00    -0.271 OA
HETATM   27  N4  UNL     1      11.117 -10.802  23.719  1.00  0.00    -0.158 N 
ATOM     28  H4  UNL     1      10.162 -11.007  24.012  1.00  0.00     0.187 HD
BRANCH  27  29
HETATM   29  C15 UNL     1      11.654  -9.675  24.049  1.00  0.00     0.684 A 
HETATM   30  N5  UNL     1      10.964  -8.667  24.617  1.00  0.00    -0.200 N 
HETATM   31  C16 UNL     1      11.816  -7.650  24.829  1.00  0.00     0.123 A 
ATOM     32  H5  UNL     1       9.970  -8.675  24.846  1.00  0.00     0.183 HD
HETATM   33  C17 UNL     1      13.056  -8.026  24.389  1.00  0.00     0.123 A 
HETATM   34  N6  UNL     1      12.924  -9.277  23.914  1.00  0.00    -0.200 N 
ATOM     35  H6  UNL     1      13.677  -9.837  23.513  1.00  0.00     0.183 HD
ENDBRANCH  27  29
ENDBRANCH  24  25
ENDBRANCH   4  24
TORSDOF 8
ENDMDL
MODEL 3
REMARK VINA RESULT: -8.797513742      1.653      2.158
REMARK  8 active torsions:
REMARK  status: ('A' for Active; 'I' for Inactive)
REMARK    1  A    between atoms: C2_2  and  C3_3 
REMARK    2  A    between atoms: C3_3  and  N1_4 
REMARK    3  A    between atoms: N1_4  and  C5_6 
REMARK    4  A    between atoms: C7_8  and  C8_9 
REMARK    5  A    between atoms: C10_13  and  N2_14 
REMARK    6  A    between atoms: N3_17  and  C13_18 
REMARK    7  A    between atoms: C13_18  and  C14_19 
REMARK       I    between atoms: C14_19  and  N4_21 
REMARK    8  A    between atoms: N4_21  and  C15_23 
ROOT
HETATM    1  N2  UNL     1      17.287 -13.561  21.185  1.00  0.00    -0.054 N 
HETATM    2  C11 UNL     1      17.833 -12.302  20.623  1.00  0.00     0.266 C 
HETATM    3  C12 UNL     1      16.768 -11.241  20.490  1.00  0.00     0.266 C 
HETATM    4  N3  UNL     1      15.526 -11.934  20.227  1.00  0.00    -0.054 N 
HETATM    5  C18 UNL     1      15.111 -12.498  21.514  1.00  0.00     0.266 C 
HETATM    6  C19 UNL     1      16.317 -13.087  22.175  1.00  0.00     0.266 C 
HETATM    7  C20 UNL     1      15.814 -13.032  19.356  1.00  0.00     0.271 C 
HETATM    8  C21 UNL     1      16.568 -14.153  20.095  1.00  0.00     0.213 C 
HETATM    9  C22 UNL     1      15.572 -15.196  20.444  1.00  0.00     0.042 C 
ENDROOT
BRANCH   1  10
HETATM   10  C10 UNL     1      18.357 -14.312  21.726  1.00  0.00     0.194 C 
HETATM   11  C9  UNL     1      19.657 -14.212  20.988  1.00  0.00     0.049 C 
HETATM   12  C7  UNL     1      20.898 -14.466  21.761  1.00  0.00     0.091 C 
HETATM   13  C6  UNL     1      20.782 -15.268  23.001  1.00  0.00     0.040 C 
HETATM   14  C5  UNL     1      19.433 -15.409  23.592  1.00  0.00     0.086 C 
HETATM   15  C23 UNL     1      18.589 -14.178  23.224  1.00  0.00     0.058 C 
BRANCH  12  16
HETATM   16  C8  UNL     1      21.709 -13.211  21.978  1.00  0.00     0.177 C 
HETATM   17  O1  UNL     1      22.492 -13.200  22.954  1.00  0.00    -0.648 OA
HETATM   18  O2  UNL     1      21.628 -12.110  21.173  1.00  0.00    -0.648 OA
ENDBRANCH  12  16
BRANCH  14  19
HETATM   19  N1  UNL     1      19.472 -15.699  24.956  1.00  0.00    -0.390 N 
HETATM   20  C4  UNL     1      18.257 -15.782  25.663  1.00  0.00     0.149 C 
BRANCH  19  21
HETATM   21  C3  UNL     1      20.659 -15.552  25.687  1.00  0.00     0.084 C 
BRANCH  21  22
HETATM   22  C2  UNL     1      20.588 -14.338  26.567  1.00  0.00     0.007 C 
HETATM   23  C1  UNL     1      21.062 -13.163  26.182  1.00  0.00     0.012 C 
ENDBRANCH  21  22
ENDBRANCH  19  21
ENDBRANCH  14  19
ENDBRANCH   1  10
BRANCH   4  24
HETATM   24  C13 UNL     1      14.444 -11.110  19.807  1.00  0.00     0.340 C 
BRANCH  24  25
HETATM   25  C14 UNL     1      13.088 -11.569  20.038  1.00  0.00     0.262 C 
HETATM   26  O3  UNL     1      12.682 -12.693  19.725  1.00  0.00    -0.271 OA
HETATM   27  N4  UNL     1      12.184 -10.643  20.670  1.00  0.00    -0.158 N 
ATOM     28  H4  UNL     1      11.647  -9.995  20.093  1.00  0.00     0.187 HD
BRANCH  27  29
HETATM   29  C15 UNL     1      12.041 -10.618  21.953  1.00  0.00     0.684 A 
HETATM   30  N5  UNL     1      11.510 -11.637  22.656  1.00  0.00    -0.200 N 
HETATM   31  C16 UNL     1      11.508 -11.288  23.954  1.00  0.00     0.123 A 
ATOM     32  H5  UNL     1      11.168 -12.518  22.272  1.00  0.00     0.183 HD
HETATM   33  C17 UNL     1      12.046 -10.035  24.065  1.00  0.00     0.123 A 
HETATM   34  N6  UNL     1      12.365  -9.649  22.817  1.00  0.00    -0.200 N 
ATOM     35  H6  UNL     1      12.789  -8.756  22.567  1.00  0.00     0.183 HD
ENDBRANCH  27  29
ENDBRANCH  24  25
ENDBRANCH   4  24
TORSDOF 8
ENDMDL
MODEL 4
REMARK VINA RESULT: -8.584067776      2.883      4.566
REMARK  8 active torsions:
REMARK  status: ('A' for Active; 'I' for Inactive)
REMARK    1  A    between atoms: C2_2  and  C3_3 
REMARK    2  A    between atoms: C3_3  and  N1_4 
REMARK    3  A    between atoms: N1_4  and  C5_6 
REMARK    4  A    between atoms: C7_8  and  C8_9 
REMARK    5  A    between atoms: C10_13  and  N2_14 
REMARK    6  A    between atoms: N3_17  and  C13_18 
REMARK    7  A    between atoms: C13_18  and  C14_19 
REMARK       I    between atoms: C14_19  and  N4_21 
REMARK    8  A    between atoms: N4_21  and  C15_23 
ROOT
HETATM    1  N2  UNL     1      20.059 -13.799  22.055  1.00  0.00    -0.054 N 
HETATM    2  C11 UNL     1      18.946 -13.518  22.993  1.00  0.00     0.266 C 
HETATM    3  C12 UNL     1      17.613 -13.491  22.288  1.00  0.00     0.266 C 
HETATM    4  N3  UNL     1      17.864 -13.009  20.949  1.00  0.00    -0.054 N 
HETATM    5  C18 UNL     1      18.466 -14.135  20.232  1.00  0.00     0.266 C 
HETATM    6  C19 UNL     1      19.474 -14.776  21.133  1.00  0.00     0.266 C 
HETATM    7  C20 UNL     1      18.856 -11.981  21.033  1.00  0.00     0.271 C 
HETATM    8  C21 UNL     1      20.245 -12.566  21.347  1.00  0.00     0.213 C 
HETATM    9  C22 UNL     1      20.990 -12.640  20.066  1.00  0.00     0.042 C 
ENDROOT
BRANCH   1  10
HETATM   10  C10 UNL     1      21.162 -14.282  22.798  1.00  0.00     0.194 C 
HETATM   11  C9  UNL     1      21.956 -13.242  23.526  1.00  0.00     0.049 C 
HETATM   12  C7  UNL     1      22.712 -13.682  24.726  1.00  0.00     0.091 C 
HETATM   13  C6  UNL     1      23.053 -15.120  24.832  1.00  0.00     0.040 C 
HETATM   14  C5  UNL     1      22.292 -16.061  23.981  1.00  0.00     0.086 C 
HETATM   15  C23 UNL     1      20.897 -15.476  23.702  1.00  0.00     0.058 C 
BRANCH  12  16
HETATM   16  C8  UNL     1      22.120 -13.150  26.009  1.00  0.00     0.177 C 
HETATM   17  O1  UNL     1      21.204 -12.305  25.906  1.00  0.00    -0.648 OA
HETATM   18  O2  UNL     1      22.534 -13.542  27.251  1.00  0.00    -0.648 OA
ENDBRANCH  12  16
BRANCH  14  19
HETATM   19  N1  UNL     1      22.285 -17.360  24.489  1.00  0.00    -0.390 N 
HETATM   20  C4  UNL     1      21.945 -18.420  23.628  1.00  0.00     0.149 C 
BRANCH  19  21
HETATM   21  C3  UNL     1      22.252 -17.589  25.872  1.00  0.00     0.084 C 
BRANCH  21  22
HETATM   22  C2  UNL     1      20.943 -18.205  26.271  1.00  0.00     0.007 C 
HETATM   23  C1  UNL     1      19.931 -17.476  26.714  1.00  0.00     0.012 C 
ENDBRANCH  21  22
ENDBRANCH  19  21
ENDBRANCH  14  19
ENDBRANCH   1  10
BRANCH   4  24
HETATM   24  C13 UNL     1      16.707 -12.656  20.199  1.00  0.00     0.340 C 
BRANCH  24  25
HETATM   25  C14 UNL     1      16.425 -11.252  19.971  1.00  0.00     0.262 C 
HETATM   26  O3  UNL     1      16.620 -10.680  18.894  1.00  0.00    -0.271 OA
HETATM   27  N4  UNL     1      15.887 -10.505  21.080  1.00  0.00    -0.158 N 
ATOM     28  H4  UNL     1      16.525 -10.058  21.739  1.00  0.00     0.187 HD
BRANCH  27  29
HETATM   29  C15 UNL     1      14.612 -10.392  21.253  1.00  0.00     0.684 A 
HETATM   30  N5  UNL     1      13.703 -10.923  20.414  1.00  0.00    -0.200 N 
HETATM   31  C16 UNL     1      12.481 -10.622  20.883  1.00  0.00     0.123 A 
ATOM     32  H5  UNL     1      13.906 -11.460  19.571  1.00  0.00     0.183 HD
HETATM   33  C17 UNL     1      12.626  -9.893  22.032  1.00  0.00     0.123 A 
HETATM   34  N6  UNL     1      13.949  -9.768  22.234  1.00  0.00    -0.200 N 
ATOM     35  H6  UNL     1      14.382  -9.274  23.015  1.00  0.00     0.183 HD
ENDBRANCH  27  29
ENDBRANCH  24  25
ENDBRANCH   4  24
TORSDOF 8
ENDMDL
MODEL 5
REMARK VINA RESULT: -8.477272389      2.994      4.788
REMARK  8 active torsions:
REMARK  status: ('A' for Active; 'I' for Inactive)
REMARK    1  A    between atoms: C2_2  and  C3_3 
REMARK    2  A    between atoms: C3_3  and  N1_4 
REMARK    3  A    between atoms: N1_4  and  C5_6 
REMARK    4  A    between atoms: C7_8  and  C8_9 
REMARK    5  A    between atoms: C10_13  and  N2_14 
REMARK    6  A    between atoms: N3_17  and  C13_18 
REMARK    7  A    between atoms: C13_18  and  C14_19 
REMARK       I    between atoms: C14_19  and  N4_21 
REMARK    8  A    between atoms: N4_21  and  C15_23 
ROOT
HETATM    1  N2  UNL     1      20.063 -13.764  22.090  1.00  0.00    -0.054 N 
HETATM    2  C11 UNL     1      18.963 -13.495  23.046  1.00  0.00     0.266 C 
HETATM    3  C12 UNL     1      17.618 -13.482  22.362  1.00  0.00     0.266 C 
HETATM    4  N3  UNL     1      17.842 -12.996  21.019  1.00  0.00    -0.054 N 
HETATM    5  C18 UNL     1      18.445 -14.116  20.292  1.00  0.00     0.266 C 
HETATM    6  C19 UNL     1      19.473 -14.746  21.177  1.00  0.00     0.266 C 
HETATM    7  C20 UNL     1      18.825 -11.959  21.088  1.00  0.00     0.271 C 
HETATM    8  C21 UNL     1      20.225 -12.528  21.380  1.00  0.00     0.213 C 
HETATM    9  C22 UNL     1      20.950 -12.595  20.087  1.00  0.00     0.042 C 
ENDROOT
BRANCH   1  10
HETATM   10  C10 UNL     1      21.183 -14.235  22.814  1.00  0.00     0.194 C 
HETATM   11  C9  UNL     1      21.958 -13.192  23.559  1.00  0.00     0.049 C 
HETATM   12  C7  UNL     1      22.733 -13.638  24.743  1.00  0.00     0.091 C 
HETATM   13  C6  UNL     1      23.109 -15.070  24.817  1.00  0.00     0.040 C 
HETATM   14  C5  UNL     1      22.364 -16.011  23.953  1.00  0.00     0.086 C 
HETATM   15  C23 UNL     1      20.954 -15.453  23.696  1.00  0.00     0.058 C 
BRANCH  12  16
HETATM   16  C8  UNL     1      22.139 -13.147  26.041  1.00  0.00     0.177 C 
HETATM   17  O1  UNL     1      21.190 -12.335  25.962  1.00  0.00    -0.648 OA
HETATM   18  O2  UNL     1      22.582 -13.541  27.272  1.00  0.00    -0.648 OA
ENDBRANCH  12  16
BRANCH  14  19
HETATM   19  N1  UNL     1      22.392 -17.319  24.434  1.00  0.00    -0.390 N 
HETATM   20  C4  UNL     1      23.051 -17.577  25.651  1.00  0.00     0.149 C 
BRANCH  19  21
HETATM   21  C3  UNL     1      22.110 -18.401  23.588  1.00  0.00     0.084 C 
BRANCH  21  22
HETATM   22  C2  UNL     1      23.062 -18.425  22.429  1.00  0.00     0.007 C 
HETATM   23  C1  UNL     1      22.640 -18.471  21.175  1.00  0.00     0.012 C 
ENDBRANCH  21  22
ENDBRANCH  19  21
ENDBRANCH  14  19
ENDBRANCH   1  10
BRANCH   4  24
HETATM   24  C13 UNL     1      16.669 -12.656  20.288  1.00  0.00     0.340 C 
BRANCH  24  25
HETATM   25  C14 UNL     1      16.389 -11.256  20.033  1.00  0.00     0.262 C 
HETATM   26  O3  UNL     1      16.595 -10.703  18.948  1.00  0.00    -0.271 OA
HETATM   27  N4  UNL     1      15.840 -10.490  21.123  1.00  0.00    -0.158 N 
ATOM     28  H4  UNL     1      16.471 -10.031  21.780  1.00  0.00     0.187 HD
BRANCH  27  29
HETATM   29  C15 UNL     1      14.564 -10.375  21.282  1.00  0.00     0.684 A 
HETATM   30  N5  UNL     1      13.663 -10.900  20.430  1.00  0.00    -0.200 N 
HETATM   31  C16 UNL     1      12.436 -10.598  20.885  1.00  0.00     0.123 A 
ATOM     32  H5  UNL     1      13.875 -11.433  19.586  1.00  0.00     0.183 HD
HETATM   33  C17 UNL     1      12.570  -9.875  22.040  1.00  0.00     0.123 A 
HETATM   34  N6  UNL     1      13.891  -9.754  22.258  1.00  0.00    -0.200 N 
ATOM     35  H6  UNL     1      14.315  -9.265  23.046  1.00  0.00     0.183 HD
ENDBRANCH  27  29
ENDBRANCH  24  25
ENDBRANCH   4  24
TORSDOF 8
ENDMDL
