MODEL 1
REMARK VINA RESULT: -8.223983169      0.000      0.000
REMARK  1 active torsions:
REMARK  status: ('A' for Active; 'I' for Inactive)
REMARK    1  A    between atoms: C4_6  and  N2_7 
ROOT
HETATM    1  N2  UNL     1     -24.935  31.141  -1.778  1.00  0.00    -0.284 N 
ATOM      2  H2  UNL     1     -24.788  30.713  -0.864  1.00  0.00     0.176 HD
HETATM    3  C5  UNL     1     -25.545  30.387  -2.782  1.00  0.00     0.180 C 
HETATM    4  N3  UNL     1     -26.047  29.761  -3.634  1.00  0.00    -0.172 NA
ENDROOT
BRANCH   1   5
HETATM    5  C4  UNL     1     -24.506  32.506  -1.986  1.00  0.00     0.337 C 
HETATM    6  N1  UNL     1     -25.460  33.362  -1.342  1.00  0.00    -0.363 N 
HETATM    7  C2  UNL     1     -25.219  34.761  -1.494  1.00  0.00     0.074 C 
ATOM      8  H1  UNL     1     -26.253  32.998  -0.814  1.00  0.00     0.159 HD
HETATM    9  C1  UNL     1     -24.680  35.271  -0.151  1.00  0.00     0.050 C 
HETATM   10  C3  UNL     1     -26.554  35.440  -1.738  1.00  0.00     0.050 C 
HETATM   11  S1  UNL     1     -24.062  35.193  -2.778  1.00  0.00    -0.093 SA
HETATM   12  C6  UNL     1     -23.611  33.755  -3.721  1.00  0.00     0.176 C 
HETATM   13  O1  UNL     1     -24.437  32.702  -3.360  1.00  0.00    -0.319 OA
HETATM   14  C7  UNL     1     -22.162  33.402  -3.611  1.00  0.00     0.025 A 
HETATM   15  C13 UNL     1     -23.745  33.945  -5.219  1.00  0.00     0.106 C 
HETATM   16  C8  UNL     1     -21.225  33.524  -2.605  1.00  0.00     0.038 A 
HETATM   17  C12 UNL     1     -21.840  32.856  -4.836  1.00  0.00     0.080 A 
HETATM   18  C9  UNL     1     -19.932  33.102  -2.795  1.00  0.00     0.034 A 
HETATM   19 CL1  UNL     1     -18.780  33.278  -1.488  1.00  0.00    -0.084 Cl
HETATM   20  C10 UNL     1     -19.600  32.558  -4.008  1.00  0.00     0.026 A 
HETATM   21  C11 UNL     1     -20.527  32.431  -5.018  1.00  0.00     0.039 A 
HETATM   22  O2  UNL     1     -22.946  32.842  -5.676  1.00  0.00    -0.336 OA
HETATM   23  C14 UNL     1     -25.161  33.810  -5.687  1.00  0.00     0.051 C 
HETATM   24  C15 UNL     1     -23.063  35.190  -5.707  1.00  0.00     0.051 C 
ENDBRANCH   1   5
TORSDOF 1
ENDMDL
MODEL 2
REMARK VINA RESULT: -7.500076516      3.144      5.395
REMARK  1 active torsions:
REMARK  status: ('A' for Active; 'I' for Inactive)
REMARK    1  A    between atoms: C4_6  and  N2_7 
ROOT
HETATM    1  N2  UNL     1     -25.740  30.271  -2.727  1.00  0.00    -0.284 N 
ATOM      2  H2  UNL     1     -25.765  30.479  -1.729  1.00  0.00     0.176 HD
HETATM    3  C5  UNL     1     -26.115  28.997  -3.158  1.00  0.00     0.180 C 
HETATM    4  N3  UNL     1     -26.419  27.929  -3.529  1.00  0.00    -0.172 NA
ENDROOT
BRANCH   1   5
HETATM    5  C4  UNL     1     -25.319  31.306  -3.645  1.00  0.00     0.337 C 
HETATM    6  N1  UNL     1     -24.625  30.668  -4.727  1.00  0.00    -0.363 N 
HETATM    7  C2  UNL     1     -24.087  31.554  -5.709  1.00  0.00     0.074 C 
ATOM      8  H1  UNL     1     -24.522  29.655  -4.790  1.00  0.00     0.159 HD
HETATM    9  C1  UNL     1     -24.984  31.446  -6.948  1.00  0.00     0.050 C 
HETATM   10  C3  UNL     1     -22.712  31.043  -6.094  1.00  0.00     0.050 C 
HETATM   11  S1  UNL     1     -23.995  33.264  -5.214  1.00  0.00    -0.093 SA
HETATM   12  C6  UNL     1     -24.429  33.441  -3.498  1.00  0.00     0.176 C 
HETATM   13  O1  UNL     1     -24.517  32.182  -2.924  1.00  0.00    -0.319 OA
HETATM   14  C7  UNL     1     -25.666  34.253  -3.278  1.00  0.00     0.025 A 
HETATM   15  C13 UNL     1     -23.419  34.237  -2.696  1.00  0.00     0.106 C 
HETATM   16  C8  UNL     1     -26.829  34.433  -4.001  1.00  0.00     0.038 A 
HETATM   17  C12 UNL     1     -25.456  34.894  -2.076  1.00  0.00     0.080 A 
HETATM   18  C9  UNL     1     -27.820  35.264  -3.539  1.00  0.00     0.034 A 
HETATM   19 CL1  UNL     1     -29.276  35.460  -4.491  1.00  0.00    -0.084 Cl
HETATM   20  C10 UNL     1     -27.622  35.906  -2.344  1.00  0.00     0.026 A 
HETATM   21  C11 UNL     1     -26.466  35.733  -1.616  1.00  0.00     0.039 A 
HETATM   22  O2  UNL     1     -24.218  34.552  -1.545  1.00  0.00    -0.336 OA
HETATM   23  C14 UNL     1     -22.225  33.421  -2.312  1.00  0.00     0.051 C 
HETATM   24  C15 UNL     1     -23.073  35.548  -3.341  1.00  0.00     0.051 C 
ENDBRANCH   1   5
TORSDOF 1
ENDMDL
MODEL 3
REMARK VINA RESULT: -7.387388963      1.653      2.080
REMARK  1 active torsions:
REMARK  status: ('A' for Active; 'I' for Inactive)
REMARK    1  A    between atoms: C4_6  and  N2_7 
ROOT
HETATM    1  N2  UNL     1     -25.636  31.447  -3.232  1.00  0.00    -0.284 N 
ATOM      2  H2  UNL     1     -26.342  31.209  -3.929  1.00  0.00     0.176 HD
HETATM    3  C5  UNL     1     -25.326  30.511  -2.243  1.00  0.00     0.180 C 
HETATM    4  N3  UNL     1     -25.064  29.737  -1.405  1.00  0.00    -0.172 NA
ENDROOT
BRANCH   1   5
HETATM    5  C4  UNL     1     -24.993  32.740  -3.304  1.00  0.00     0.337 C 
HETATM    6  N1  UNL     1     -25.461  33.517  -2.192  1.00  0.00    -0.363 N 
HETATM    7  C2  UNL     1     -24.964  34.855  -2.136  1.00  0.00     0.074 C 
ATOM      8  H1  UNL     1     -26.102  33.142  -1.493  1.00  0.00     0.159 HD
HETATM    9  C1  UNL     1     -23.917  34.897  -1.016  1.00  0.00     0.050 C 
HETATM   10  C3  UNL     1     -26.110  35.760  -1.724  1.00  0.00     0.050 C 
HETATM   11  S1  UNL     1     -24.219  35.448  -3.643  1.00  0.00    -0.093 SA
HETATM   12  C6  UNL     1     -24.445  34.270  -4.955  1.00  0.00     0.176 C 
HETATM   13  O1  UNL     1     -25.330  33.290  -4.535  1.00  0.00    -0.319 OA
HETATM   14  C7  UNL     1     -23.162  33.695  -5.465  1.00  0.00     0.025 A 
HETATM   15  C13 UNL     1     -25.010  34.877  -6.225  1.00  0.00     0.106 C 
HETATM   16  C8  UNL     1     -21.948  33.402  -4.877  1.00  0.00     0.038 A 
HETATM   17  C12 UNL     1     -23.390  33.462  -6.805  1.00  0.00     0.080 A 
HETATM   18  C9  UNL     1     -20.922  32.865  -5.614  1.00  0.00     0.034 A 
HETATM   19 CL1  UNL     1     -19.401  32.511  -4.822  1.00  0.00    -0.084 Cl
HETATM   20  C10 UNL     1     -21.137  32.629  -6.947  1.00  0.00     0.026 A 
HETATM   21  C11 UNL     1     -22.343  32.917  -7.544  1.00  0.00     0.039 A 
HETATM   22  O2  UNL     1     -24.680  33.837  -7.159  1.00  0.00    -0.336 OA
HETATM   23  C14 UNL     1     -26.490  35.081  -6.150  1.00  0.00     0.051 C 
HETATM   24  C15 UNL     1     -24.253  36.096  -6.668  1.00  0.00     0.051 C 
ENDBRANCH   1   5
TORSDOF 1
ENDMDL
MODEL 4
REMARK VINA RESULT: -7.289559089      1.817      2.488
REMARK  1 active torsions:
REMARK  status: ('A' for Active; 'I' for Inactive)
REMARK    1  A    between atoms: C4_6  and  N2_7 
ROOT
HETATM    1  N2  UNL     1     -24.351  31.652  -3.539  1.00  0.00    -0.284 N 
ATOM      2  H2  UNL     1     -24.531  30.910  -4.216  1.00  0.00     0.176 HD
HETATM    3  C5  UNL     1     -24.660  31.426  -2.196  1.00  0.00     0.180 C 
HETATM    4  N3  UNL     1     -24.923  31.251  -1.069  1.00  0.00    -0.172 NA
ENDROOT
BRANCH   1   5
HETATM    5  C4  UNL     1     -23.785  32.899  -4.005  1.00  0.00     0.337 C 
HETATM    6  N1  UNL     1     -24.866  33.827  -4.174  1.00  0.00    -0.363 N 
HETATM    7  C2  UNL     1     -24.492  35.106  -4.685  1.00  0.00     0.074 C 
ATOM      8  H1  UNL     1     -25.832  33.590  -3.946  1.00  0.00     0.159 HD
HETATM    9  C1  UNL     1     -24.558  36.093  -3.512  1.00  0.00     0.050 C 
HETATM   10  C3  UNL     1     -25.542  35.529  -5.696  1.00  0.00     0.050 C 
HETATM   11  S1  UNL     1     -22.867  35.184  -5.412  1.00  0.00    -0.093 SA
HETATM   12  C6  UNL     1     -22.147  33.561  -5.504  1.00  0.00     0.176 C 
HETATM   13  O1  UNL     1     -23.115  32.620  -5.189  1.00  0.00    -0.319 OA
HETATM   14  C7  UNL     1     -20.915  33.408  -4.669  1.00  0.00     0.025 A 
HETATM   15  C13 UNL     1     -21.605  33.214  -6.877  1.00  0.00     0.106 C 
HETATM   16  C8  UNL     1     -20.502  33.957  -3.471  1.00  0.00     0.038 A 
HETATM   17  C12 UNL     1     -20.130  32.512  -5.362  1.00  0.00     0.080 A 
HETATM   18  C9  UNL     1     -19.285  33.623  -2.929  1.00  0.00     0.034 A 
HETATM   19 CL1  UNL     1     -18.806  34.345  -1.408  1.00  0.00    -0.084 Cl
HETATM   20  C10 UNL     1     -18.497  32.731  -3.610  1.00  0.00     0.026 A 
HETATM   21  C11 UNL     1     -18.899  32.179  -4.804  1.00  0.00     0.039 A 
HETATM   22  O2  UNL     1     -20.761  32.105  -6.531  1.00  0.00    -0.336 OA
HETATM   23  C14 UNL     1     -22.683  32.792  -7.825  1.00  0.00     0.051 C 
HETATM   24  C15 UNL     1     -20.699  34.278  -7.426  1.00  0.00     0.051 C 
ENDBRANCH   1   5
TORSDOF 1
ENDMDL
MODEL 5
REMARK VINA RESULT: -7.157350187      2.946      4.959
REMARK  1 active torsions:
REMARK  status: ('A' for Active; 'I' for Inactive)
REMARK    1  A    between atoms: C4_6  and  N2_7 
ROOT
HETATM    1  N2  UNL     1     -23.787  30.562  -5.759  1.00  0.00    -0.284 N 
ATOM      2  H2  UNL     1     -23.155  29.780  -5.933  1.00  0.00     0.176 HD
HETATM    3  C5  UNL     1     -25.099  30.291  -5.366  1.00  0.00     0.180 C 
HETATM    4  N3  UNL     1     -26.203  30.076  -5.044  1.00  0.00    -0.172 NA
ENDROOT
BRANCH   1   5
HETATM    5  C4  UNL     1     -23.291  31.909  -5.928  1.00  0.00     0.337 C 
HETATM    6  N1  UNL     1     -23.025  32.100  -7.325  1.00  0.00    -0.363 N 
HETATM    7  C2  UNL     1     -22.473  33.371  -7.669  1.00  0.00     0.074 C 
ATOM      8  H1  UNL     1     -23.217  31.380  -8.022  1.00  0.00     0.159 HD
HETATM    9  C1  UNL     1     -23.593  34.180  -8.335  1.00  0.00     0.050 C 
HETATM   10  C3  UNL     1     -21.393  33.143  -8.710  1.00  0.00     0.050 C 
HETATM   11  S1  UNL     1     -21.824  34.308  -6.300  1.00  0.00    -0.093 SA
HETATM   12  C6  UNL     1     -21.844  33.334  -4.812  1.00  0.00     0.176 C 
HETATM   13  O1  UNL     1     -22.155  32.023  -5.136  1.00  0.00    -0.319 OA
HETATM   14  C7  UNL     1     -22.744  33.886  -3.752  1.00  0.00     0.025 A 
HETATM   15  C13 UNL     1     -20.516  33.319  -4.079  1.00  0.00     0.106 C 
HETATM   16  C8  UNL     1     -23.933  34.587  -3.782  1.00  0.00     0.038 A 
HETATM   17  C12 UNL     1     -22.133  33.549  -2.563  1.00  0.00     0.080 A 
HETATM   18  C9  UNL     1     -24.549  34.973  -2.617  1.00  0.00     0.034 A 
HETATM   19 CL1  UNL     1     -26.056  35.860  -2.706  1.00  0.00    -0.084 Cl
HETATM   20  C10 UNL     1     -23.950  34.644  -1.428  1.00  0.00     0.026 A 
HETATM   21  C11 UNL     1     -22.765  33.945  -1.388  1.00  0.00     0.039 A 
HETATM   22  O2  UNL     1     -20.955  32.850  -2.794  1.00  0.00    -0.336 OA
HETATM   23  C14 UNL     1     -19.537  32.367  -4.691  1.00  0.00     0.051 C 
HETATM   24  C15 UNL     1     -19.963  34.697  -3.858  1.00  0.00     0.051 C 
ENDBRANCH   1   5
TORSDOF 1
ENDMDL
