MODEL 1
REMARK VINA RESULT: -7.494240903      0.000      0.000
REMARK  6 active torsions:
REMARK  status: ('A' for Active; 'I' for Inactive)
REMARK    1  A    between atoms: C2_2  and  C3_3 
REMARK    2  A    between atoms: C3_3  and  C4_4 
REMARK    3  A    between atoms: C4_4  and  N1_5 
REMARK       I    between atoms: C5_7  and  N3_9 
REMARK    4  A    between atoms: N3_9  and  C6_11 
REMARK    5  A    between atoms: C6_11  and  C7_12 
REMARK    6  A    between atoms: C7_12  and  N4_13 
ROOT
HETATM    1  N4  UNL     1     -10.595  37.334  19.534  1.00  0.00     0.100 N 
HETATM    2  C8  UNL     1     -11.618  38.317  19.522  1.00  0.00     0.330 C 
HETATM    3  C9  UNL     1     -12.754  37.670  18.818  1.00  0.00     0.048 A 
HETATM    4  N5  UNL     1     -14.074  37.791  18.491  1.00  0.00    -0.355 N 
ATOM      5  H5  UNL     1     -14.681  38.569  18.747  1.00  0.00     0.166 HD
HETATM    6  C10 UNL     1     -14.439  36.714  17.778  1.00  0.00     0.068 A 
HETATM    7  C11 UNL     1     -15.491  36.102  17.120  1.00  0.00    -0.005 A 
HETATM    8  C12 UNL     1     -15.044  34.903  16.581  1.00  0.00     0.020 A 
HETATM    9  N6  UNL     1     -13.760  34.794  16.905  1.00  0.00    -0.357 N 
ATOM     10  H6  UNL     1     -13.158  34.012  16.647  1.00  0.00     0.166 HD
HETATM   11  C13 UNL     1     -13.369  35.861  17.620  1.00  0.00     0.070 A 
HETATM   12  C14 UNL     1     -12.311  36.485  18.286  1.00  0.00     0.023 A 
HETATM   13  C15 UNL     1     -10.888  36.297  18.605  1.00  0.00     0.316 C 
HETATM   14  C16 UNL     1     -15.846  33.931  15.797  1.00  0.00     0.085 C 
HETATM   15  C17 UNL     1     -17.249  34.406  15.596  1.00  0.00     0.242 C 
HETATM   16  N7  UNL     1     -18.008  34.502  16.811  1.00  0.00    -0.074 N 
HETATM   17  C18 UNL     1     -17.642  33.375  17.679  1.00  0.00     0.272 C 
HETATM   18  C19 UNL     1     -19.414  34.290  16.463  1.00  0.00     0.272 C 
HETATM   19  C20 UNL     1     -17.913  35.736  17.505  1.00  0.00     0.241 C 
HETATM   20  C21 UNL     1     -16.846  36.665  17.028  1.00  0.00     0.071 C 
ENDROOT
BRANCH   1  21
HETATM   21  C7  UNL     1      -9.273  37.876  19.252  1.00  0.00     0.293 C 
BRANCH  21  22
HETATM   22  C6  UNL     1      -9.416  39.334  18.940  1.00  0.00     0.152 C 
BRANCH  22  23
HETATM   23  N3  UNL     1      -9.187  39.614  17.553  1.00  0.00    -0.363 N 
HETATM   24  C5  UNL     1      -8.318  40.658  17.168  1.00  0.00     0.184 C 
HETATM   25  N1  UNL     1      -7.167  40.348  16.654  1.00  0.00    -0.365 N 
HETATM   26  N2  UNL     1      -8.650  42.052  17.318  1.00  0.00    -0.064 NA
ATOM     27  H1  UNL     1      -6.517  41.078  16.364  1.00  0.00     0.162 HD
ATOM     28  H3  UNL     1      -9.655  39.054  16.839  1.00  0.00     0.162 HD
BRANCH  25  29
HETATM   29  C4  UNL     1      -6.820  38.958  16.498  1.00  0.00     0.122 C 
BRANCH  29  30
HETATM   30  C3  UNL     1      -6.047  38.870  15.175  1.00  0.00     0.019 C 
BRANCH  30  31
HETATM   31  C2  UNL     1      -5.005  37.772  15.240  1.00  0.00    -0.003 C 
HETATM   32  C1  UNL     1      -5.205  36.933  16.482  1.00  0.00     0.005 C 
ENDBRANCH  30  31
ENDBRANCH  29  30
ENDBRANCH  25  29
ENDBRANCH  22  23
ENDBRANCH  21  22
ENDBRANCH   1  21
TORSDOF 6
ENDMDL
MODEL 2
REMARK VINA RESULT: -7.337217095      4.697      6.054
REMARK  6 active torsions:
REMARK  status: ('A' for Active; 'I' for Inactive)
REMARK    1  A    between atoms: C2_2  and  C3_3 
REMARK    2  A    between atoms: C3_3  and  C4_4 
REMARK    3  A    between atoms: C4_4  and  N1_5 
REMARK       I    between atoms: C5_7  and  N3_9 
REMARK    4  A    between atoms: N3_9  and  C6_11 
REMARK    5  A    between atoms: C6_11  and  C7_12 
REMARK    6  A    between atoms: C7_12  and  N4_13 
ROOT
HETATM    1  N4  UNL     1     -11.377  39.041  19.313  1.00  0.00     0.100 N 
HETATM    2  C8  UNL     1     -11.185  40.375  19.754  1.00  0.00     0.330 C 
HETATM    3  C9  UNL     1     -11.881  41.210  18.743  1.00  0.00     0.048 A 
HETATM    4  N5  UNL     1     -12.302  42.474  18.444  1.00  0.00    -0.355 N 
ATOM      5  H5  UNL     1     -12.176  43.298  19.032  1.00  0.00     0.166 HD
HETATM    6  C10 UNL     1     -12.912  42.451  17.249  1.00  0.00     0.068 A 
HETATM    7  C11 UNL     1     -13.561  43.219  16.300  1.00  0.00    -0.005 A 
HETATM    8  C12 UNL     1     -13.933  42.402  15.240  1.00  0.00     0.020 A 
HETATM    9  N6  UNL     1     -13.519  41.177  15.540  1.00  0.00    -0.357 N 
ATOM     10  H6  UNL     1     -13.649  40.356  14.949  1.00  0.00     0.166 HD
HETATM   11  C13 UNL     1     -12.904  41.173  16.735  1.00  0.00     0.070 A 
HETATM   12  C14 UNL     1     -12.247  40.402  17.697  1.00  0.00     0.023 A 
HETATM   13  C15 UNL     1     -11.817  39.020  17.960  1.00  0.00     0.316 C 
HETATM   14  C16 UNL     1     -14.653  42.818  14.011  1.00  0.00     0.085 C 
HETATM   15  C17 UNL     1     -14.925  44.288  14.000  1.00  0.00     0.242 C 
HETATM   16  N7  UNL     1     -15.827  44.719  15.031  1.00  0.00    -0.074 N 
HETATM   17  C18 UNL     1     -16.868  43.696  15.195  1.00  0.00     0.272 C 
HETATM   18  C19 UNL     1     -16.520  45.909  14.533  1.00  0.00     0.272 C 
HETATM   19  C20 UNL     1     -15.233  45.051  16.276  1.00  0.00     0.241 C 
HETATM   20  C21 UNL     1     -13.799  44.665  16.431  1.00  0.00     0.071 C 
ENDROOT
BRANCH   1  21
HETATM   21  C7  UNL     1     -10.186  38.213  19.446  1.00  0.00     0.293 C 
BRANCH  21  22
HETATM   22  C6  UNL     1      -8.993  39.039  19.072  1.00  0.00     0.152 C 
BRANCH  22  23
HETATM   23  N3  UNL     1      -8.883  39.217  17.654  1.00  0.00    -0.363 N 
HETATM   24  C5  UNL     1      -8.175  40.318  17.124  1.00  0.00     0.184 C 
HETATM   25  N1  UNL     1      -7.027  40.101  16.558  1.00  0.00    -0.365 N 
HETATM   26  N2  UNL     1      -8.668  41.671  17.180  1.00  0.00    -0.064 NA
ATOM     27  H1  UNL     1      -6.491  40.874  16.164  1.00  0.00     0.162 HD
ATOM     28  H3  UNL     1      -9.319  38.544  17.024  1.00  0.00     0.162 HD
BRANCH  25  29
HETATM   29  C4  UNL     1      -6.520  38.754  16.494  1.00  0.00     0.122 C 
BRANCH  29  30
HETATM   30  C3  UNL     1      -5.932  38.601  15.084  1.00  0.00     0.019 C 
BRANCH  30  31
HETATM   31  C2  UNL     1      -4.683  37.742  15.121  1.00  0.00    -0.003 C 
HETATM   32  C1  UNL     1      -4.813  36.672  16.181  1.00  0.00     0.005 C 
ENDBRANCH  30  31
ENDBRANCH  29  30
ENDBRANCH  25  29
ENDBRANCH  22  23
ENDBRANCH  21  22
ENDBRANCH   1  21
TORSDOF 6
ENDMDL
MODEL 3
REMARK VINA RESULT: -7.275749267      4.236      6.090
REMARK  6 active torsions:
REMARK  status: ('A' for Active; 'I' for Inactive)
REMARK    1  A    between atoms: C2_2  and  C3_3 
REMARK    2  A    between atoms: C3_3  and  C4_4 
REMARK    3  A    between atoms: C4_4  and  N1_5 
REMARK       I    between atoms: C5_7  and  N3_9 
REMARK    4  A    between atoms: N3_9  and  C6_11 
REMARK    5  A    between atoms: C6_11  and  C7_12 
REMARK    6  A    between atoms: C7_12  and  N4_13 
ROOT
HETATM    1  N4  UNL     1     -11.590  37.378  19.072  1.00  0.00     0.100 N 
HETATM    2  C8  UNL     1     -11.501  38.579  19.823  1.00  0.00     0.330 C 
HETATM    3  C9  UNL     1     -11.968  39.639  18.893  1.00  0.00     0.048 A 
HETATM    4  N5  UNL     1     -12.321  40.954  18.793  1.00  0.00    -0.355 N 
ATOM      5  H5  UNL     1     -12.326  41.628  19.559  1.00  0.00     0.166 HD
HETATM    6  C10 UNL     1     -12.661  41.211  17.521  1.00  0.00     0.068 A 
HETATM    7  C11 UNL     1     -13.096  42.191  16.646  1.00  0.00    -0.005 A 
HETATM    8  C12 UNL     1     -13.229  41.634  15.381  1.00  0.00     0.020 A 
HETATM    9  N6  UNL     1     -12.884  40.356  15.489  1.00  0.00    -0.357 N 
ATOM     10  H6  UNL     1     -12.882  39.686  14.720  1.00  0.00     0.166 HD
HETATM   11  C13 UNL     1     -12.539  40.072  16.756  1.00  0.00     0.070 A 
HETATM   12  C14 UNL     1     -12.099  39.087  17.644  1.00  0.00     0.023 A 
HETATM   13  C15 UNL     1     -11.730  37.664  17.686  1.00  0.00     0.316 C 
HETATM   14  C16 UNL     1     -13.671  42.332  14.148  1.00  0.00     0.085 C 
HETATM   15  C17 UNL     1     -13.940  43.781  14.400  1.00  0.00     0.242 C 
HETATM   16  N7  UNL     1     -15.043  44.021  15.286  1.00  0.00    -0.074 N 
HETATM   17  C18 UNL     1     -16.091  43.031  15.004  1.00  0.00     0.272 C 
HETATM   18  C19 UNL     1     -15.618  45.317  14.924  1.00  0.00     0.272 C 
HETATM   19  C20 UNL     1     -14.730  44.056  16.670  1.00  0.00     0.241 C 
HETATM   20  C21 UNL     1     -13.361  43.584  17.035  1.00  0.00     0.071 C 
ENDROOT
BRANCH   1  21
HETATM   21  C7  UNL     1     -10.452  36.492  19.269  1.00  0.00     0.293 C 
BRANCH  21  22
HETATM   22  C6  UNL     1      -9.467  36.733  18.166  1.00  0.00     0.152 C 
BRANCH  22  23
HETATM   23  N3  UNL     1      -8.391  37.585  18.580  1.00  0.00    -0.363 N 
HETATM   24  C5  UNL     1      -7.518  38.152  17.625  1.00  0.00     0.184 C 
HETATM   25  N1  UNL     1      -7.606  39.424  17.385  1.00  0.00    -0.365 N 
HETATM   26  N2  UNL     1      -6.534  37.383  16.907  1.00  0.00    -0.064 NA
ATOM     27  H1  UNL     1      -6.989  39.864  16.702  1.00  0.00     0.162 HD
ATOM     28  H3  UNL     1      -8.255  37.784  19.572  1.00  0.00     0.162 HD
BRANCH  25  29
HETATM   29  C4  UNL     1      -8.585  40.207  18.095  1.00  0.00     0.122 C 
BRANCH  29  30
HETATM   30  C3  UNL     1      -8.678  41.539  17.338  1.00  0.00     0.019 C 
BRANCH  30  31
HETATM   31  C2  UNL     1      -8.942  42.679  18.300  1.00  0.00    -0.003 C 
HETATM   32  C1  UNL     1      -8.854  42.191  19.728  1.00  0.00     0.005 C 
ENDBRANCH  30  31
ENDBRANCH  29  30
ENDBRANCH  25  29
ENDBRANCH  22  23
ENDBRANCH  21  22
ENDBRANCH   1  21
TORSDOF 6
ENDMDL
MODEL 4
REMARK VINA RESULT: -7.256954365      1.091      1.987
REMARK  6 active torsions:
REMARK  status: ('A' for Active; 'I' for Inactive)
REMARK    1  A    between atoms: C2_2  and  C3_3 
REMARK    2  A    between atoms: C3_3  and  C4_4 
REMARK    3  A    between atoms: C4_4  and  N1_5 
REMARK       I    between atoms: C5_7  and  N3_9 
REMARK    4  A    between atoms: N3_9  and  C6_11 
REMARK    5  A    between atoms: C6_11  and  C7_12 
REMARK    6  A    between atoms: C7_12  and  N4_13 
ROOT
HETATM    1  N4  UNL     1     -11.214  38.217  18.403  1.00  0.00     0.100 N 
HETATM    2  C8  UNL     1     -11.282  36.811  18.577  1.00  0.00     0.330 C 
HETATM    3  C9  UNL     1     -12.641  36.438  18.110  1.00  0.00     0.048 A 
HETATM    4  N5  UNL     1     -13.465  35.393  17.807  1.00  0.00    -0.355 N 
ATOM      5  H5  UNL     1     -13.219  34.405  17.866  1.00  0.00     0.166 HD
HETATM    6  C10 UNL     1     -14.653  35.882  17.418  1.00  0.00     0.068 A 
HETATM    7  C11 UNL     1     -15.922  35.547  16.983  1.00  0.00    -0.005 A 
HETATM    8  C12 UNL     1     -16.644  36.713  16.767  1.00  0.00     0.020 A 
HETATM    9  N6  UNL     1     -15.834  37.723  17.064  1.00  0.00    -0.357 N 
ATOM     10  H6  UNL     1     -16.086  38.710  17.001  1.00  0.00     0.166 HD
HETATM   11  C13 UNL     1     -14.637  37.259  17.456  1.00  0.00     0.070 A 
HETATM   12  C14 UNL     1     -13.353  37.592  17.897  1.00  0.00     0.023 A 
HETATM   13  C15 UNL     1     -12.515  38.760  18.208  1.00  0.00     0.316 C 
HETATM   14  C16 UNL     1     -18.048  36.812  16.295  1.00  0.00     0.085 C 
HETATM   15  C17 UNL     1     -18.661  35.463  16.099  1.00  0.00     0.242 C 
HETATM   16  N7  UNL     1     -18.051  34.695  15.050  1.00  0.00    -0.074 N 
HETATM   17  C18 UNL     1     -17.704  35.604  13.949  1.00  0.00     0.272 C 
HETATM   18  C19 UNL     1     -19.076  33.800  14.512  1.00  0.00     0.272 C 
HETATM   19  C20 UNL     1     -16.937  33.901  15.430  1.00  0.00     0.241 C 
HETATM   20  C21 UNL     1     -16.391  34.166  16.794  1.00  0.00     0.071 C 
ENDROOT
BRANCH   1  21
HETATM   21  C7  UNL     1     -10.566  38.903  19.512  1.00  0.00     0.293 C 
BRANCH  21  22
HETATM   22  C6  UNL     1      -9.168  39.250  19.101  1.00  0.00     0.152 C 
BRANCH  22  23
HETATM   23  N3  UNL     1      -9.062  39.483  17.690  1.00  0.00    -0.363 N 
HETATM   24  C5  UNL     1      -8.279  40.550  17.197  1.00  0.00     0.184 C 
HETATM   25  N1  UNL     1      -7.158  40.273  16.604  1.00  0.00    -0.365 N 
HETATM   26  N2  UNL     1      -8.668  41.932  17.320  1.00  0.00    -0.064 NA
ATOM     27  H1  UNL     1      -6.571  41.021  16.236  1.00  0.00     0.162 HD
ATOM     28  H3  UNL     1      -9.556  38.873  17.038  1.00  0.00     0.162 HD
BRANCH  25  29
HETATM   29  C4  UNL     1      -6.755  38.896  16.473  1.00  0.00     0.122 C 
BRANCH  29  30
HETATM   30  C3  UNL     1      -5.958  38.821  15.164  1.00  0.00     0.019 C 
BRANCH  30  31
HETATM   31  C2  UNL     1      -4.859  37.783  15.270  1.00  0.00    -0.003 C 
HETATM   32  C1  UNL     1      -5.128  36.851  16.430  1.00  0.00     0.005 C 
ENDBRANCH  30  31
ENDBRANCH  29  30
ENDBRANCH  25  29
ENDBRANCH  22  23
ENDBRANCH  21  22
ENDBRANCH   1  21
TORSDOF 6
ENDMDL
MODEL 5
REMARK VINA RESULT: -7.202567143      4.284      5.814
REMARK  6 active torsions:
REMARK  status: ('A' for Active; 'I' for Inactive)
REMARK    1  A    between atoms: C2_2  and  C3_3 
REMARK    2  A    between atoms: C3_3  and  C4_4 
REMARK    3  A    between atoms: C4_4  and  N1_5 
REMARK       I    between atoms: C5_7  and  N3_9 
REMARK    4  A    between atoms: N3_9  and  C6_11 
REMARK    5  A    between atoms: C6_11  and  C7_12 
REMARK    6  A    between atoms: C7_12  and  N4_13 
ROOT
HETATM    1  N4  UNL     1     -11.324  37.819  19.193  1.00  0.00     0.100 N 
HETATM    2  C8  UNL     1     -10.989  39.073  19.767  1.00  0.00     0.330 C 
HETATM    3  C9  UNL     1     -11.613  40.077  18.869  1.00  0.00     0.048 A 
HETATM    4  N5  UNL     1     -11.908  41.401  18.716  1.00  0.00    -0.355 N 
ATOM      5  H5  UNL     1     -11.688  42.140  19.384  1.00  0.00     0.166 HD
HETATM    6  C10 UNL     1     -12.536  41.568  17.542  1.00  0.00     0.068 A 
HETATM    7  C11 UNL     1     -13.119  42.495  16.698  1.00  0.00    -0.005 A 
HETATM    8  C12 UNL     1     -13.590  41.838  15.568  1.00  0.00     0.020 A 
HETATM    9  N6  UNL     1     -13.298  40.552  15.726  1.00  0.00    -0.357 N 
ATOM     10  H6  UNL     1     -13.522  39.817  15.055  1.00  0.00     0.166 HD
HETATM   11  C13 UNL     1     -12.668  40.358  16.897  1.00  0.00     0.070 A 
HETATM   12  C14 UNL     1     -12.077  39.426  17.753  1.00  0.00     0.023 A 
HETATM   13  C15 UNL     1     -11.786  37.989  17.858  1.00  0.00     0.316 C 
HETATM   14  C16 UNL     1     -14.284  42.454  14.410  1.00  0.00     0.085 C 
HETATM   15  C17 UNL     1     -14.404  43.936  14.562  1.00  0.00     0.242 C 
HETATM   16  N7  UNL     1     -15.241  44.342  15.656  1.00  0.00    -0.074 N 
HETATM   17  C18 UNL     1     -16.378  43.416  15.741  1.00  0.00     0.272 C 
HETATM   18  C19 UNL     1     -15.816  45.641  15.306  1.00  0.00     0.272 C 
HETATM   19  C20 UNL     1     -14.595  44.477  16.912  1.00  0.00     0.241 C 
HETATM   20  C21 UNL     1     -13.205  43.935  16.987  1.00  0.00     0.071 C 
ENDROOT
BRANCH   1  21
HETATM   21  C7  UNL     1     -10.222  36.868  19.205  1.00  0.00     0.293 C 
BRANCH  21  22
HETATM   22  C6  UNL     1      -8.938  37.630  19.085  1.00  0.00     0.152 C 
BRANCH  22  23
HETATM   23  N3  UNL     1      -8.583  37.878  17.719  1.00  0.00    -0.363 N 
HETATM   24  C5  UNL     1      -7.685  38.918  17.389  1.00  0.00     0.184 C 
HETATM   25  N1  UNL     1      -6.491  38.601  16.991  1.00  0.00    -0.365 N 
HETATM   26  N2  UNL     1      -8.034  40.313  17.474  1.00  0.00    -0.064 NA
ATOM     27  H1  UNL     1      -5.820  39.328  16.744  1.00  0.00     0.162 HD
ATOM     28  H3  UNL     1      -8.982  37.299  16.979  1.00  0.00     0.162 HD
BRANCH  25  29
HETATM   29  C4  UNL     1      -6.127  37.210  16.901  1.00  0.00     0.122 C 
BRANCH  29  30
HETATM   30  C3  UNL     1      -4.906  37.161  15.972  1.00  0.00     0.019 C 
BRANCH  30  31
HETATM   31  C2  UNL     1      -4.459  35.729  15.758  1.00  0.00    -0.003 C 
HETATM   32  C1  UNL     1      -2.982  35.591  16.050  1.00  0.00     0.005 C 
ENDBRANCH  30  31
ENDBRANCH  29  30
ENDBRANCH  25  29
ENDBRANCH  22  23
ENDBRANCH  21  22
ENDBRANCH   1  21
TORSDOF 6
ENDMDL
