MODEL 1
REMARK VINA RESULT: -7.143811987      0.000      0.000
REMARK  8 active torsions:
REMARK  status: ('A' for Active; 'I' for Inactive)
REMARK    1  A    between atoms: N1_4  and  C4_5 
REMARK    2  A    between atoms: C4_5  and  N2_7 
REMARK    3  A    between atoms: N2_7  and  C5_9 
REMARK    4  A    between atoms: C14_18  and  C15_19 
REMARK       I    between atoms: C15_19  and  N3_21 
REMARK    5  A    between atoms: N3_21  and  C16_23 
REMARK    6  A    between atoms: C16_23  and  C17_24 
REMARK    7  A    between atoms: C17_24  and  C18_25 
REMARK    8  A    between atoms: C18_25  and  N4_26 
ROOT
HETATM    1  C1  UNL     1      -8.381  41.233  17.300  1.00  0.00     0.012 C 
HETATM    2  C2  UNL     1      -9.665  40.759  17.922  1.00  0.00     0.012 C 
HETATM    3  C3  UNL     1     -10.692  40.625  16.827  1.00  0.00     0.130 C 
HETATM    4  N1  UNL     1     -11.978  40.162  17.333  1.00  0.00    -0.358 N 
HETATM    5  C12 UNL     1     -12.012  39.538  18.633  1.00  0.00     0.126 C 
HETATM    6  C13 UNL     1     -10.765  38.644  18.676  1.00  0.00     0.034 C 
HETATM    7  C14 UNL     1      -9.590  39.611  18.841  1.00  0.00     0.084 C 
ENDROOT
BRANCH   7   8
HETATM    8  C15 UNL     1      -8.395  38.761  18.776  1.00  0.00     0.222 C 
HETATM    9  O1  UNL     1      -7.651  38.605  19.749  1.00  0.00    -0.273 OA
HETATM   10  N3  UNL     1      -8.081  38.101  17.571  1.00  0.00    -0.361 N 
ATOM     11  H3  UNL     1      -8.712  38.250  16.783  1.00  0.00     0.162 HD
BRANCH  10  12
HETATM   12  C16 UNL     1      -6.963  37.245  17.351  1.00  0.00     0.124 C 
BRANCH  12  13
HETATM   13  C17 UNL     1      -6.031  37.837  16.336  1.00  0.00     0.039 C 
BRANCH  13  14
HETATM   14  C18 UNL     1      -5.243  36.800  15.597  1.00  0.00     0.123 C 
BRANCH  14  15
HETATM   15  N4  UNL     1      -4.051  36.352  16.220  1.00  0.00    -0.367 N 
HETATM   16  C19 UNL     1      -3.298  35.381  15.872  1.00  0.00     0.196 C 
HETATM   17  N5  UNL     1      -3.573  34.574  14.744  1.00  0.00    -0.067 NA
HETATM   18  N6  UNL     1      -2.139  35.099  16.644  1.00  0.00    -0.067 NA
ATOM     19  H4  UNL     1      -3.759  36.868  17.050  1.00  0.00     0.161 HD
ENDBRANCH  14  15
ENDBRANCH  13  14
ENDBRANCH  12  13
ENDBRANCH  10  12
ENDBRANCH   7   8
BRANCH   4  20
HETATM   20  C4  UNL     1     -13.114  40.356  16.525  1.00  0.00     0.170 C 
HETATM   21  S1  UNL     1     -14.520  39.662  16.980  1.00  0.00    -0.041 SA
BRANCH  20  22
HETATM   22  N2  UNL     1     -13.073  41.149  15.363  1.00  0.00    -0.362 N 
ATOM     23  H2  UNL     1     -12.437  40.901  14.605  1.00  0.00     0.162 HD
BRANCH  22  24
HETATM   24  C5  UNL     1     -13.943  42.341  15.229  1.00  0.00     0.084 C 
HETATM   25  C6  UNL     1     -13.991  42.719  13.852  1.00  0.00     0.026 C 
HETATM   26  C7  UNL     1     -15.200  43.399  13.196  1.00  0.00     0.013 C 
HETATM   27  C8  UNL     1     -15.553  44.749  13.917  1.00  0.00     0.080 C 
HETATM   28  C9  UNL     1     -14.929  44.683  15.172  1.00  0.00    -0.183 C 
HETATM   29  C10 UNL     1     -14.280  44.580  16.412  1.00  0.00     0.082 C 
HETATM   30  C11 UNL     1     -13.456  43.246  16.346  1.00  0.00     0.036 C 
ENDBRANCH  22  24
ENDBRANCH  20  22
ENDBRANCH   4  20
TORSDOF 8
ENDMDL
MODEL 2
REMARK VINA RESULT: -7.140027240      4.620      8.456
REMARK  8 active torsions:
REMARK  status: ('A' for Active; 'I' for Inactive)
REMARK    1  A    between atoms: N1_4  and  C4_5 
REMARK    2  A    between atoms: C4_5  and  N2_7 
REMARK    3  A    between atoms: N2_7  and  C5_9 
REMARK    4  A    between atoms: C14_18  and  C15_19 
REMARK       I    between atoms: C15_19  and  N3_21 
REMARK    5  A    between atoms: N3_21  and  C16_23 
REMARK    6  A    between atoms: C16_23  and  C17_24 
REMARK    7  A    between atoms: C17_24  and  C18_25 
REMARK    8  A    between atoms: C18_25  and  N4_26 
ROOT
HETATM    1  C1  UNL     1     -13.369  38.925  16.922  1.00  0.00     0.012 C 
HETATM    2  C2  UNL     1     -12.290  37.943  17.283  1.00  0.00     0.012 C 
HETATM    3  C3  UNL     1     -11.335  38.625  18.229  1.00  0.00     0.130 C 
HETATM    4  N1  UNL     1     -10.250  37.745  18.644  1.00  0.00    -0.358 N 
HETATM    5  C12 UNL     1     -10.417  36.324  18.458  1.00  0.00     0.126 C 
HETATM    6  C13 UNL     1     -11.873  36.042  18.854  1.00  0.00     0.034 C 
HETATM    7  C14 UNL     1     -12.712  36.594  17.698  1.00  0.00     0.084 C 
ENDROOT
BRANCH   7   8
HETATM    8  C15 UNL     1     -14.104  36.417  18.130  1.00  0.00     0.222 C 
HETATM    9  O1  UNL     1     -14.469  36.681  19.280  1.00  0.00    -0.273 OA
HETATM   10  N3  UNL     1     -15.056  35.930  17.213  1.00  0.00    -0.361 N 
ATOM     11  H3  UNL     1     -14.726  35.717  16.271  1.00  0.00     0.162 HD
BRANCH  10  12
HETATM   12  C16 UNL     1     -16.438  35.706  17.479  1.00  0.00     0.124 C 
BRANCH  12  13
HETATM   13  C17 UNL     1     -17.159  35.285  16.233  1.00  0.00     0.039 C 
BRANCH  13  14
HETATM   14  C18 UNL     1     -16.291  34.504  15.295  1.00  0.00     0.123 C 
BRANCH  14  15
HETATM   15  N4  UNL     1     -16.012  33.163  15.664  1.00  0.00    -0.367 N 
HETATM   16  C19 UNL     1     -14.875  32.634  15.905  1.00  0.00     0.196 C 
HETATM   17  N5  UNL     1     -13.667  33.364  15.831  1.00  0.00    -0.067 NA
HETATM   18  N6  UNL     1     -14.818  31.260  16.262  1.00  0.00    -0.067 NA
ATOM     19  H4  UNL     1     -16.819  32.545  15.747  1.00  0.00     0.161 HD
ENDBRANCH  14  15
ENDBRANCH  13  14
ENDBRANCH  12  13
ENDBRANCH  10  12
ENDBRANCH   7   8
BRANCH   4  20
HETATM   20  C4  UNL     1      -9.097  38.335  19.198  1.00  0.00     0.170 C 
HETATM   21  S1  UNL     1      -9.278  39.376  20.442  1.00  0.00    -0.041 SA
BRANCH  20  22
HETATM   22  N2  UNL     1      -7.807  38.027  18.729  1.00  0.00    -0.362 N 
ATOM     23  H2  UNL     1      -7.124  37.615  19.365  1.00  0.00     0.162 HD
BRANCH  22  24
HETATM   24  C5  UNL     1      -7.429  38.294  17.321  1.00  0.00     0.084 C 
HETATM   25  C6  UNL     1      -6.170  37.672  17.060  1.00  0.00     0.026 C 
HETATM   26  C7  UNL     1      -5.753  37.135  15.685  1.00  0.00     0.013 C 
HETATM   27  C8  UNL     1      -5.788  38.268  14.597  1.00  0.00     0.080 C 
HETATM   28  C9  UNL     1      -6.589  39.285  15.137  1.00  0.00    -0.183 C 
HETATM   29  C10 UNL     1      -7.387  40.283  15.718  1.00  0.00     0.082 C 
HETATM   30  C11 UNL     1      -7.693  39.781  17.174  1.00  0.00     0.036 C 
ENDBRANCH  22  24
ENDBRANCH  20  22
ENDBRANCH   4  20
TORSDOF 8
ENDMDL
MODEL 3
REMARK VINA RESULT: -6.917706472      2.154      2.883
REMARK  8 active torsions:
REMARK  status: ('A' for Active; 'I' for Inactive)
REMARK    1  A    between atoms: N1_4  and  C4_5 
REMARK    2  A    between atoms: C4_5  and  N2_7 
REMARK    3  A    between atoms: N2_7  and  C5_9 
REMARK    4  A    between atoms: C14_18  and  C15_19 
REMARK       I    between atoms: C15_19  and  N3_21 
REMARK    5  A    between atoms: N3_21  and  C16_23 
REMARK    6  A    between atoms: C16_23  and  C17_24 
REMARK    7  A    between atoms: C17_24  and  C18_25 
REMARK    8  A    between atoms: C18_25  and  N4_26 
ROOT
HETATM    1  C1  UNL     1      -8.532  39.651  20.984  1.00  0.00     0.012 C 
HETATM    2  C2  UNL     1      -9.696  38.871  20.440  1.00  0.00     0.012 C 
HETATM    3  C3  UNL     1     -10.915  39.756  20.493  1.00  0.00     0.130 C 
HETATM    4  N1  UNL     1     -12.103  39.086  19.979  1.00  0.00    -0.358 N 
HETATM    5  C12 UNL     1     -11.921  37.911  19.162  1.00  0.00     0.126 C 
HETATM    6  C13 UNL     1     -10.730  38.242  18.252  1.00  0.00     0.034 C 
HETATM    7  C14 UNL     1      -9.501  38.164  19.163  1.00  0.00     0.084 C 
ENDROOT
BRANCH   7   8
HETATM    8  C15 UNL     1      -8.380  38.584  18.314  1.00  0.00     0.222 C 
HETATM    9  O1  UNL     1      -8.111  39.775  18.130  1.00  0.00    -0.273 OA
HETATM   10  N3  UNL     1      -7.585  37.606  17.684  1.00  0.00    -0.361 N 
ATOM     11  H3  UNL     1      -7.832  36.631  17.851  1.00  0.00     0.162 HD
BRANCH  10  12
HETATM   12  C16 UNL     1      -6.467  37.853  16.835  1.00  0.00     0.124 C 
BRANCH  12  13
HETATM   13  C17 UNL     1      -5.705  36.588  16.578  1.00  0.00     0.039 C 
BRANCH  13  14
HETATM   14  C18 UNL     1      -4.502  36.800  15.712  1.00  0.00     0.123 C 
BRANCH  14  15
HETATM   15  N4  UNL     1      -3.291  36.214  16.160  1.00  0.00    -0.367 N 
HETATM   16  C19 UNL     1      -2.756  35.121  15.773  1.00  0.00     0.196 C 
HETATM   17  N5  UNL     1      -3.339  34.299  14.781  1.00  0.00    -0.067 NA
HETATM   18  N6  UNL     1      -1.528  34.712  16.358  1.00  0.00    -0.067 NA
ATOM     19  H4  UNL     1      -2.785  36.728  16.881  1.00  0.00     0.161 HD
ENDBRANCH  14  15
ENDBRANCH  13  14
ENDBRANCH  12  13
ENDBRANCH  10  12
ENDBRANCH   7   8
BRANCH   4  20
HETATM   20  C4  UNL     1     -13.361  39.623  20.313  1.00  0.00     0.170 C 
HETATM   21  S1  UNL     1     -13.743  39.783  21.892  1.00  0.00    -0.041 SA
BRANCH  20  22
HETATM   22  N2  UNL     1     -14.273  40.047  19.329  1.00  0.00    -0.362 N 
ATOM     23  H2  UNL     1     -15.232  39.702  19.348  1.00  0.00     0.162 HD
BRANCH  22  24
HETATM   24  C5  UNL     1     -13.854  40.990  18.266  1.00  0.00     0.084 C 
HETATM   25  C6  UNL     1     -14.550  42.224  18.450  1.00  0.00     0.026 C 
HETATM   26  C7  UNL     1     -13.979  43.592  18.054  1.00  0.00     0.013 C 
HETATM   27  C8  UNL     1     -13.629  43.641  16.523  1.00  0.00     0.080 C 
HETATM   28  C9  UNL     1     -13.550  42.303  16.110  1.00  0.00    -0.183 C 
HETATM   29  C10 UNL     1     -13.492  40.951  15.737  1.00  0.00     0.082 C 
HETATM   30  C11 UNL     1     -13.935  40.144  17.009  1.00  0.00     0.036 C 
ENDBRANCH  22  24
ENDBRANCH  20  22
ENDBRANCH   4  20
TORSDOF 8
ENDMDL
MODEL 4
REMARK VINA RESULT: -6.740486398      1.673      2.017
REMARK  8 active torsions:
REMARK  status: ('A' for Active; 'I' for Inactive)
REMARK    1  A    between atoms: N1_4  and  C4_5 
REMARK    2  A    between atoms: C4_5  and  N2_7 
REMARK    3  A    between atoms: N2_7  and  C5_9 
REMARK    4  A    between atoms: C14_18  and  C15_19 
REMARK       I    between atoms: C15_19  and  N3_21 
REMARK    5  A    between atoms: N3_21  and  C16_23 
REMARK    6  A    between atoms: C16_23  and  C17_24 
REMARK    7  A    between atoms: C17_24  and  C18_25 
REMARK    8  A    between atoms: C18_25  and  N4_26 
ROOT
HETATM    1  C1  UNL     1      -8.584  42.727  18.418  1.00  0.00     0.012 C 
HETATM    2  C2  UNL     1      -9.645  41.716  18.753  1.00  0.00     0.012 C 
HETATM    3  C3  UNL     1     -10.977  42.280  18.331  1.00  0.00     0.130 C 
HETATM    4  N1  UNL     1     -12.075  41.364  18.612  1.00  0.00    -0.358 N 
HETATM    5  C12 UNL     1     -11.759  39.977  18.854  1.00  0.00     0.126 C 
HETATM    6  C13 UNL     1     -10.672  39.634  17.826  1.00  0.00     0.034 C 
HETATM    7  C14 UNL     1      -9.406  40.322  18.343  1.00  0.00     0.084 C 
ENDROOT
BRANCH   7   8
HETATM    8  C15 UNL     1      -8.399  40.078  17.304  1.00  0.00     0.222 C 
HETATM    9  O1  UNL     1      -8.267  40.830  16.334  1.00  0.00    -0.273 OA
HETATM   10  N3  UNL     1      -7.555  38.954  17.408  1.00  0.00    -0.361 N 
ATOM     11  H3  UNL     1      -7.688  38.349  18.218  1.00  0.00     0.162 HD
BRANCH  10  12
HETATM   12  C16 UNL     1      -6.533  38.585  16.486  1.00  0.00     0.124 C 
BRANCH  12  13
HETATM   13  C17 UNL     1      -6.058  37.187  16.750  1.00  0.00     0.039 C 
BRANCH  13  14
HETATM   14  C18 UNL     1      -5.037  36.722  15.758  1.00  0.00     0.123 C 
BRANCH  14  15
HETATM   15  N4  UNL     1      -3.825  36.214  16.292  1.00  0.00    -0.367 N 
HETATM   16  C19 UNL     1      -3.135  35.225  15.872  1.00  0.00     0.196 C 
HETATM   17  N5  UNL     1      -3.514  34.458  14.747  1.00  0.00    -0.067 NA
HETATM   18  N6  UNL     1      -1.941  34.880  16.560  1.00  0.00    -0.067 NA
ATOM     19  H4  UNL     1      -3.461  36.697  17.113  1.00  0.00     0.161 HD
ENDBRANCH  14  15
ENDBRANCH  13  14
ENDBRANCH  12  13
ENDBRANCH  10  12
ENDBRANCH   7   8
BRANCH   4  20
HETATM   20  C4  UNL     1     -13.382  41.887  18.636  1.00  0.00     0.170 C 
HETATM   21  S1  UNL     1     -13.839  42.780  19.924  1.00  0.00    -0.041 SA
BRANCH  20  22
HETATM   22  N2  UNL     1     -14.282  41.686  17.573  1.00  0.00    -0.362 N 
ATOM     23  H2  UNL     1     -14.969  40.934  17.630  1.00  0.00     0.162 HD
BRANCH  22  24
HETATM   24  C5  UNL     1     -14.243  42.555  16.374  1.00  0.00     0.084 C 
HETATM   25  C6  UNL     1     -15.503  43.218  16.249  1.00  0.00     0.026 C 
HETATM   26  C7  UNL     1     -15.675  44.609  15.625  1.00  0.00     0.013 C 
HETATM   27  C8  UNL     1     -15.143  44.640  14.147  1.00  0.00     0.080 C 
HETATM   28  C9  UNL     1     -14.304  43.523  14.024  1.00  0.00    -0.183 C 
HETATM   29  C10 UNL     1     -13.481  42.388  13.941  1.00  0.00     0.082 C 
HETATM   30  C11 UNL     1     -13.649  41.646  15.314  1.00  0.00     0.036 C 
ENDBRANCH  22  24
ENDBRANCH  20  22
ENDBRANCH   4  20
TORSDOF 8
ENDMDL
MODEL 5
REMARK VINA RESULT: -6.730281134      4.416      8.420
REMARK  8 active torsions:
REMARK  status: ('A' for Active; 'I' for Inactive)
REMARK    1  A    between atoms: N1_4  and  C4_5 
REMARK    2  A    between atoms: C4_5  and  N2_7 
REMARK    3  A    between atoms: N2_7  and  C5_9 
REMARK    4  A    between atoms: C14_18  and  C15_19 
REMARK       I    between atoms: C15_19  and  N3_21 
REMARK    5  A    between atoms: N3_21  and  C16_23 
REMARK    6  A    between atoms: C16_23  and  C17_24 
REMARK    7  A    between atoms: C17_24  and  C18_25 
REMARK    8  A    between atoms: C18_25  and  N4_26 
ROOT
HETATM    1  C1  UNL     1      -8.735  42.431  20.537  1.00  0.00     0.012 C 
HETATM    2  C2  UNL     1      -9.476  41.538  19.581  1.00  0.00     0.012 C 
HETATM    3  C3  UNL     1      -8.976  40.130  19.776  1.00  0.00     0.130 C 
HETATM    4  N1  UNL     1      -9.643  39.182  18.891  1.00  0.00    -0.358 N 
HETATM    5  C12 UNL     1     -10.887  39.583  18.279  1.00  0.00     0.126 C 
HETATM    6  C13 UNL     1     -11.652  40.322  19.386  1.00  0.00     0.034 C 
HETATM    7  C14 UNL     1     -10.941  41.671  19.526  1.00  0.00     0.084 C 
ENDROOT
BRANCH   7   8
HETATM    8  C15 UNL     1     -11.611  42.329  20.655  1.00  0.00     0.222 C 
HETATM    9  O1  UNL     1     -11.941  43.518  20.614  1.00  0.00    -0.273 OA
HETATM   10  N3  UNL     1     -11.885  41.590  21.822  1.00  0.00    -0.361 N 
ATOM     11  H3  UNL     1     -11.599  40.611  21.829  1.00  0.00     0.162 HD
BRANCH  10  12
HETATM   12  C16 UNL     1     -12.526  42.083  22.996  1.00  0.00     0.124 C 
BRANCH  12  13
HETATM   13  C17 UNL     1     -11.517  42.610  23.972  1.00  0.00     0.039 C 
BRANCH  13  14
HETATM   14  C18 UNL     1     -10.384  41.659  24.207  1.00  0.00     0.123 C 
BRANCH  14  15
HETATM   15  N4  UNL     1     -10.717  40.420  24.812  1.00  0.00    -0.367 N 
HETATM   16  C19 UNL     1     -10.727  39.262  24.276  1.00  0.00     0.196 C 
HETATM   17  N5  UNL     1     -10.385  39.048  22.922  1.00  0.00    -0.067 NA
HETATM   18  N6  UNL     1     -11.095  38.141  25.069  1.00  0.00    -0.067 NA
ATOM     19  H4  UNL     1     -10.981  40.460  25.796  1.00  0.00     0.161 HD
ENDBRANCH  14  15
ENDBRANCH  13  14
ENDBRANCH  12  13
ENDBRANCH  10  12
ENDBRANCH   7   8
BRANCH   4  20
HETATM   20  C4  UNL     1      -9.031  37.932  18.681  1.00  0.00     0.170 C 
HETATM   21  S1  UNL     1      -9.977  36.602  18.633  1.00  0.00    -0.041 SA
BRANCH  20  22
HETATM   22  N2  UNL     1      -7.643  37.808  18.484  1.00  0.00    -0.362 N 
ATOM     23  H2  UNL     1      -7.033  37.651  19.286  1.00  0.00     0.162 HD
BRANCH  22  24
HETATM   24  C5  UNL     1      -7.060  37.903  17.126  1.00  0.00     0.084 C 
HETATM   25  C6  UNL     1      -5.793  37.243  17.125  1.00  0.00     0.026 C 
HETATM   26  C7  UNL     1      -5.197  36.543  15.897  1.00  0.00     0.013 C 
HETATM   27  C8  UNL     1      -5.045  37.539  14.692  1.00  0.00     0.080 C 
HETATM   28  C9  UNL     1      -5.888  38.621  14.987  1.00  0.00    -0.183 C 
HETATM   29  C10 UNL     1      -6.735  39.687  15.327  1.00  0.00     0.082 C 
HETATM   30  C11 UNL     1      -7.261  39.365  16.770  1.00  0.00     0.036 C 
ENDBRANCH  22  24
ENDBRANCH  20  22
ENDBRANCH   4  20
TORSDOF 8
ENDMDL
