MODEL 1
REMARK VINA RESULT: -6.606631455      0.000      0.000
REMARK  2 active torsions:
REMARK  status: ('A' for Active; 'I' for Inactive)
REMARK    1  A    between atoms: C2_2  and  N1_3 
REMARK       I    between atoms: C3_5  and  N2_6 
REMARK       I    between atoms: C3_5  and  N7_18 
REMARK    2  A    between atoms: N7_18  and  C9_20 
ROOT
HETATM    1  N1  UNL     1      30.977  35.313  47.779  1.00  0.00    -0.226 N 
ATOM      2  H1  UNL     1      31.314  35.686  48.666  1.00  0.00     0.177 HD
HETATM    3  C3  UNL     1      30.056  34.439  47.759  1.00  0.00     0.688 C 
HETATM    4  N2  UNL     1      29.594  33.931  46.553  1.00  0.00    -0.022 N 
ATOM      5  H2  UNL     1      28.997  34.571  46.030  1.00  0.00     0.203 HD
HETATM    6  C4  UNL     1      29.780  32.818  45.989  1.00  0.00     0.701 A 
HETATM    7  N3  UNL     1      29.199  32.561  44.779  1.00  0.00    -0.175 N 
ATOM      8  H3  UNL     1      28.601  33.197  44.251  1.00  0.00     0.185 HD
HETATM    9  C5  UNL     1      29.557  31.321  44.410  1.00  0.00     0.170 A 
HETATM   10  N4  UNL     1      29.187  30.625  43.216  1.00  0.00    -0.079 NA
HETATM   11  C6  UNL     1      30.362  30.832  45.414  1.00  0.00     0.173 A 
HETATM   12  C7  UNL     1      30.967  29.527  45.421  1.00  0.00     0.122 C 
HETATM   13  N5  UNL     1      31.468  28.470  45.430  1.00  0.00    -0.190 NA
HETATM   14  N6  UNL     1      30.501  31.768  46.400  1.00  0.00    -0.174 N 
HETATM   15  C8  UNL     1      31.279  31.563  47.585  1.00  0.00     0.176 C 
HETATM   16  N7  UNL     1      29.505  33.999  48.977  1.00  0.00    -0.226 N 
ATOM     17  H7  UNL     1      30.139  33.678  49.708  1.00  0.00     0.177 HD
ENDROOT
BRANCH   1  18
HETATM   18  C2  UNL     1      31.540  35.771  46.528  1.00  0.00     0.133 C 
HETATM   19  C1  UNL     1      32.089  37.163  46.630  1.00  0.00     0.027 C 
ENDBRANCH   1  18
BRANCH  16  20
HETATM   20  C9  UNL     1      28.081  33.980  49.242  1.00  0.00     0.133 C 
HETATM   21  C10 UNL     1      27.496  35.361  49.158  1.00  0.00     0.027 C 
ENDBRANCH  16  20
TORSDOF 2
ENDMDL
MODEL 2
REMARK VINA RESULT: -6.591057699      1.660      2.045
REMARK  2 active torsions:
REMARK  status: ('A' for Active; 'I' for Inactive)
REMARK    1  A    between atoms: C2_2  and  N1_3 
REMARK       I    between atoms: C3_5  and  N2_6 
REMARK       I    between atoms: C3_5  and  N7_18 
REMARK    2  A    between atoms: N7_18  and  C9_20 
ROOT
HETATM    1  N1  UNL     1      29.976  34.081  48.661  1.00  0.00    -0.226 N 
ATOM      2  H1  UNL     1      30.395  34.309  49.562  1.00  0.00     0.177 HD
HETATM    3  C3  UNL     1      29.527  32.915  48.439  1.00  0.00     0.688 C 
HETATM    4  N2  UNL     1      28.954  32.602  47.214  1.00  0.00    -0.022 N 
ATOM      5  H2  UNL     1      28.019  32.987  47.079  1.00  0.00     0.203 HD
HETATM    6  C4  UNL     1      29.382  31.927  46.239  1.00  0.00     0.701 A 
HETATM    7  N3  UNL     1      28.605  31.766  45.127  1.00  0.00    -0.175 N 
ATOM      8  H3  UNL     1      27.669  32.148  44.986  1.00  0.00     0.185 HD
HETATM    9  C5  UNL     1      29.293  31.014  44.253  1.00  0.00     0.170 A 
HETATM   10  N4  UNL     1      28.878  30.588  42.952  1.00  0.00    -0.079 NA
HETATM   11  C6  UNL     1      30.498  30.723  44.853  1.00  0.00     0.173 A 
HETATM   12  C7  UNL     1      31.543  29.934  44.259  1.00  0.00     0.122 C 
HETATM   13  N5  UNL     1      32.400  29.300  43.779  1.00  0.00    -0.190 NA
HETATM   14  N6  UNL     1      30.552  31.293  46.094  1.00  0.00    -0.174 N 
HETATM   15  C8  UNL     1      31.676  31.175  46.973  1.00  0.00     0.176 C 
HETATM   16  N7  UNL     1      29.611  31.945  49.456  1.00  0.00    -0.226 N 
ATOM     17  H7  UNL     1      30.515  31.785  49.899  1.00  0.00     0.177 HD
ENDROOT
BRANCH   1  18
HETATM   18  C2  UNL     1      29.884  35.080  47.620  1.00  0.00     0.133 C 
HETATM   19  C1  UNL     1      31.172  35.233  46.866  1.00  0.00     0.027 C 
ENDBRANCH   1  18
BRANCH  16  20
HETATM   20  C9  UNL     1      28.477  31.163  49.903  1.00  0.00     0.133 C 
HETATM   21  C10 UNL     1      28.796  30.420  51.169  1.00  0.00     0.027 C 
ENDBRANCH  16  20
TORSDOF 2
ENDMDL
MODEL 3
REMARK VINA RESULT: -6.283281613      1.813      2.361
REMARK  2 active torsions:
REMARK  status: ('A' for Active; 'I' for Inactive)
REMARK    1  A    between atoms: C2_2  and  N1_3 
REMARK       I    between atoms: C3_5  and  N2_6 
REMARK       I    between atoms: C3_5  and  N7_18 
REMARK    2  A    between atoms: N7_18  and  C9_20 
ROOT
HETATM    1  N1  UNL     1      28.958  33.988  49.240  1.00  0.00    -0.226 N 
ATOM      2  H1  UNL     1      29.219  34.056  50.223  1.00  0.00     0.177 HD
HETATM    3  C3  UNL     1      28.548  32.889  48.758  1.00  0.00     0.688 C 
HETATM    4  N2  UNL     1      28.190  32.795  47.420  1.00  0.00    -0.022 N 
ATOM      5  H2  UNL     1      27.294  33.227  47.195  1.00  0.00     0.203 HD
HETATM    6  C4  UNL     1      28.775  32.271  46.434  1.00  0.00     0.701 A 
HETATM    7  N3  UNL     1      28.198  32.315  45.196  1.00  0.00    -0.175 N 
ATOM      8  H3  UNL     1      27.302  32.746  44.965  1.00  0.00     0.185 HD
HETATM    9  C5  UNL     1      29.021  31.690  44.339  1.00  0.00     0.170 A 
HETATM   10  N4  UNL     1      28.832  31.492  42.935  1.00  0.00    -0.079 NA
HETATM   11  C6  UNL     1      30.104  31.268  45.077  1.00  0.00     0.173 A 
HETATM   12  C7  UNL     1      31.231  30.550  44.545  1.00  0.00     0.122 C 
HETATM   13  N5  UNL     1      32.154  29.973  44.118  1.00  0.00    -0.190 NA
HETATM   14  N6  UNL     1      29.949  31.630  46.385  1.00  0.00    -0.174 N 
HETATM   15  C8  UNL     1      30.906  31.335  47.409  1.00  0.00     0.176 C 
HETATM   16  N7  UNL     1      28.452  31.766  49.602  1.00  0.00    -0.226 N 
ATOM     17  H7  UNL     1      29.266  31.507  50.159  1.00  0.00     0.177 HD
ENDROOT
BRANCH   1  18
HETATM   18  C2  UNL     1      29.051  35.144  48.376  1.00  0.00     0.133 C 
HETATM   19  C1  UNL     1      30.471  35.578  48.159  1.00  0.00     0.027 C 
ENDBRANCH   1  18
BRANCH  16  20
HETATM   20  C9  UNL     1      27.254  30.960  49.719  1.00  0.00     0.133 C 
HETATM   21  C10 UNL     1      27.338  29.735  48.854  1.00  0.00     0.027 C 
ENDBRANCH  16  20
TORSDOF 2
ENDMDL
MODEL 4
REMARK VINA RESULT: -6.187703421      2.430      4.424
REMARK  2 active torsions:
REMARK  status: ('A' for Active; 'I' for Inactive)
REMARK    1  A    between atoms: C2_2  and  N1_3 
REMARK       I    between atoms: C3_5  and  N2_6 
REMARK       I    between atoms: C3_5  and  N7_18 
REMARK    2  A    between atoms: N7_18  and  C9_20 
ROOT
HETATM    1  N1  UNL     1      31.922  32.106  45.548  1.00  0.00    -0.226 N 
ATOM      2  H1  UNL     1      32.908  32.341  45.437  1.00  0.00     0.177 HD
HETATM    3  C3  UNL     1      31.153  32.863  46.216  1.00  0.00     0.688 C 
HETATM    4  N2  UNL     1      29.810  32.547  46.367  1.00  0.00    -0.022 N 
ATOM      5  H2  UNL     1      29.245  32.711  45.534  1.00  0.00     0.203 HD
HETATM    6  C4  UNL     1      29.163  32.094  47.350  1.00  0.00     0.701 A 
HETATM    7  N3  UNL     1      27.820  31.866  47.237  1.00  0.00    -0.175 N 
ATOM      8  H3  UNL     1      27.251  32.028  46.406  1.00  0.00     0.185 HD
HETATM    9  C5  UNL     1      27.387  31.392  48.415  1.00  0.00     0.170 A 
HETATM   10  N4  UNL     1      26.052  31.012  48.765  1.00  0.00    -0.079 NA
HETATM   11  C6  UNL     1      28.486  31.335  49.242  1.00  0.00     0.173 A 
HETATM   12  C7  UNL     1      28.466  30.880  50.607  1.00  0.00     0.122 C 
HETATM   13  N5  UNL     1      28.459  30.505  51.714  1.00  0.00    -0.190 NA
HETATM   14  N6  UNL     1      29.595  31.775  48.576  1.00  0.00    -0.174 N 
HETATM   15  C8  UNL     1      30.900  31.839  49.163  1.00  0.00     0.176 C 
HETATM   16  N7  UNL     1      31.680  34.032  46.797  1.00  0.00    -0.226 N 
ATOM     17  H7  UNL     1      32.517  33.952  47.374  1.00  0.00     0.177 HD
ENDROOT
BRANCH   1  18
HETATM   18  C2  UNL     1      31.380  30.908  44.946  1.00  0.00     0.133 C 
HETATM   19  C1  UNL     1      31.815  29.666  45.666  1.00  0.00     0.027 C 
ENDBRANCH   1  18
BRANCH  16  20
HETATM   20  C9  UNL     1      31.093  35.343  46.614  1.00  0.00     0.133 C 
HETATM   21  C10 UNL     1      30.490  35.850  47.893  1.00  0.00     0.027 C 
ENDBRANCH  16  20
TORSDOF 2
ENDMDL
MODEL 5
REMARK VINA RESULT: -6.146098119      1.838      3.829
REMARK  2 active torsions:
REMARK  status: ('A' for Active; 'I' for Inactive)
REMARK    1  A    between atoms: C2_2  and  N1_3 
REMARK       I    between atoms: C3_5  and  N2_6 
REMARK       I    between atoms: C3_5  and  N7_18 
REMARK    2  A    between atoms: N7_18  and  C9_20 
ROOT
HETATM    1  N1  UNL     1      28.963  32.199  49.975  1.00  0.00    -0.226 N 
ATOM      2  H1  UNL     1      28.230  32.725  50.451  1.00  0.00     0.177 HD
HETATM    3  C3  UNL     1      29.650  32.742  49.056  1.00  0.00     0.688 C 
HETATM    4  N2  UNL     1      30.649  32.029  48.409  1.00  0.00    -0.022 N 
ATOM      5  H2  UNL     1      31.496  31.897  48.962  1.00  0.00     0.203 HD
HETATM    6  C4  UNL     1      30.698  31.515  47.258  1.00  0.00     0.701 A 
HETATM    7  N3  UNL     1      31.823  30.852  46.854  1.00  0.00    -0.175 N 
ATOM      8  H3  UNL     1      32.672  30.718  47.403  1.00  0.00     0.185 HD
HETATM    9  C5  UNL     1      31.609  30.411  45.604  1.00  0.00     0.170 A 
HETATM   10  N4  UNL     1      32.507  29.665  44.777  1.00  0.00    -0.079 NA
HETATM   11  C6  UNL     1      30.339  30.815  45.259  1.00  0.00     0.173 A 
HETATM   12  C7  UNL     1      29.707  30.549  43.995  1.00  0.00     0.122 C 
HETATM   13  N5  UNL     1      29.183  30.330  42.973  1.00  0.00    -0.190 NA
HETATM   14  N6  UNL     1      29.771  31.505  46.293  1.00  0.00    -0.174 N 
HETATM   15  C8  UNL     1      28.452  32.060  46.246  1.00  0.00     0.176 C 
HETATM   16  N7  UNL     1      29.389  34.081  48.708  1.00  0.00    -0.226 N 
ATOM     17  H7  UNL     1      28.428  34.347  48.493  1.00  0.00     0.177 HD
ENDROOT
BRANCH   1  18
HETATM   18  C2  UNL     1      29.235  30.826  50.338  1.00  0.00     0.133 C 
HETATM   19  C1  UNL     1      28.543  30.429  51.610  1.00  0.00     0.027 C 
ENDBRANCH   1  18
BRANCH  16  20
HETATM   20  C9  UNL     1      30.417  35.098  48.639  1.00  0.00     0.133 C 
HETATM   21  C10 UNL     1      30.765  35.421  47.214  1.00  0.00     0.027 C 
ENDBRANCH  16  20
TORSDOF 2
ENDMDL
