MODEL 1
REMARK VINA RESULT: -5.872719498      0.000      0.000
REMARK  6 active torsions:
REMARK  status: ('A' for Active; 'I' for Inactive)
REMARK    1  A    between atoms: N1_2  and  C2_4 
REMARK    2  A    between atoms: C3_7  and  C4_8 
REMARK    3  A    between atoms: C8_14  and  N4_15 
REMARK    4  A    between atoms: N4_15  and  C9_17 
REMARK    5  A    between atoms: C9_17  and  C10_18 
REMARK    6  A    between atoms: C10_18  and  O1_19 
ROOT
HETATM    1  C2  UNL     1      30.586  31.971  48.549  1.00  0.00     0.693 A 
HETATM    2  N2  UNL     1      30.688  31.172  47.466  1.00  0.00    -0.179 N 
ATOM      3  H2  UNL     1      30.498  30.175  47.573  1.00  0.00     0.185 HD
HETATM    4  C3  UNL     1      31.028  31.638  46.254  1.00  0.00     0.121 A 
HETATM    5  N3  UNL     1      31.272  32.953  46.147  1.00  0.00    -0.179 N 
ATOM      6  H3  UNL     1      31.533  33.326  45.234  1.00  0.00     0.185 HD
HETATM    7  C8  UNL     1      31.188  33.797  47.183  1.00  0.00     0.694 A 
HETATM    8  N5  UNL     1      30.847  33.302  48.372  1.00  0.00    -0.022 N 
ATOM      9  H5  UNL     1      30.779  33.932  49.171  1.00  0.00     0.203 HD
ENDROOT
BRANCH   7  10
HETATM   10  N4  UNL     1      31.431  35.033  47.020  1.00  0.00    -0.224 N 
ATOM     11  H4  UNL     1      32.186  35.247  46.368  1.00  0.00     0.177 HD
BRANCH  10  12
HETATM   12  C9  UNL     1      30.806  36.161  47.612  1.00  0.00     0.164 C 
BRANCH  12  13
HETATM   13  C10 UNL     1      31.537  37.416  47.120  1.00  0.00     0.184 C 
BRANCH  13  14
HETATM   14  O1  UNL     1      32.688  37.590  47.884  1.00  0.00    -0.399 OA
ATOM     15  H1  UNL     1      33.178  36.777  47.886  1.00  0.00     0.209 HD
ENDBRANCH  13  14
ENDBRANCH  12  13
ENDBRANCH  10  12
ENDBRANCH   7  10
BRANCH   4  16
HETATM   16  C4  UNL     1      31.120  30.715  45.097  1.00  0.00     0.009 C 
HETATM   17  C5  UNL     1      31.172  29.311  45.717  1.00  0.00     0.022 C 
HETATM   18  C6  UNL     1      29.950  30.821  44.157  1.00  0.00     0.022 C 
HETATM   19  C7  UNL     1      32.409  30.891  44.352  1.00  0.00     0.022 C 
ENDBRANCH   4  16
BRANCH   1  20
HETATM   20  N1  UNL     1      30.260  31.547  49.719  1.00  0.00    -0.230 N 
HETATM   21  C1  UNL     1      28.953  31.141  50.138  1.00  0.00     0.165 C 
ATOM     22  H1  UNL     1      31.004  31.494  50.414  1.00  0.00     0.177 HD
ENDBRANCH   1  20
TORSDOF 6
ENDMDL
MODEL 2
REMARK VINA RESULT: -5.871398547      0.158      1.082
REMARK  6 active torsions:
REMARK  status: ('A' for Active; 'I' for Inactive)
REMARK    1  A    between atoms: N1_2  and  C2_4 
REMARK    2  A    between atoms: C3_7  and  C4_8 
REMARK    3  A    between atoms: C8_14  and  N4_15 
REMARK    4  A    between atoms: N4_15  and  C9_17 
REMARK    5  A    between atoms: C9_17  and  C10_18 
REMARK    6  A    between atoms: C10_18  and  O1_19 
ROOT
HETATM    1  C2  UNL     1      30.597  31.946  48.644  1.00  0.00     0.693 A 
HETATM    2  N2  UNL     1      30.757  31.128  47.582  1.00  0.00    -0.179 N 
ATOM      3  H2  UNL     1      30.604  30.127  47.706  1.00  0.00     0.185 HD
HETATM    4  C3  UNL     1      31.111  31.582  46.368  1.00  0.00     0.121 A 
HETATM    5  N3  UNL     1      31.306  32.903  46.239  1.00  0.00    -0.179 N 
ATOM      6  H3  UNL     1      31.576  33.267  45.325  1.00  0.00     0.185 HD
HETATM    7  C8  UNL     1      31.162  33.765  47.254  1.00  0.00     0.694 A 
HETATM    8  N5  UNL     1      30.810  33.282  48.444  1.00  0.00    -0.022 N 
ATOM      9  H5  UNL     1      30.697  33.925  49.227  1.00  0.00     0.203 HD
ENDROOT
BRANCH   7  10
HETATM   10  N4  UNL     1      31.362  35.006  47.069  1.00  0.00    -0.224 N 
ATOM     11  H4  UNL     1      32.035  35.236  46.338  1.00  0.00     0.177 HD
BRANCH  10  12
HETATM   12  C9  UNL     1      30.785  36.120  47.732  1.00  0.00     0.164 C 
BRANCH  12  13
HETATM   13  C10 UNL     1      31.485  37.385  47.222  1.00  0.00     0.184 C 
BRANCH  13  14
HETATM   14  O1  UNL     1      32.671  37.555  47.932  1.00  0.00    -0.399 OA
ATOM     15  H1  UNL     1      32.637  38.388  48.386  1.00  0.00     0.209 HD
ENDBRANCH  13  14
ENDBRANCH  12  13
ENDBRANCH  10  12
ENDBRANCH   7  10
BRANCH   4  16
HETATM   16  C4  UNL     1      31.269  30.639  45.235  1.00  0.00     0.009 C 
HETATM   17  C5  UNL     1      32.554  31.087  44.525  1.00  0.00     0.022 C 
HETATM   18  C6  UNL     1      31.391  29.204  45.669  1.00  0.00     0.022 C 
HETATM   19  C7  UNL     1      30.163  30.792  44.234  1.00  0.00     0.022 C 
ENDBRANCH   4  16
BRANCH   1  20
HETATM   20  N1  UNL     1      30.257  31.534  49.814  1.00  0.00    -0.230 N 
HETATM   21  C1  UNL     1      28.975  31.022  50.192  1.00  0.00     0.165 C 
ATOM     22  H1  UNL     1      30.969  31.577  50.542  1.00  0.00     0.177 HD
ENDBRANCH   1  20
TORSDOF 6
ENDMDL
MODEL 3
REMARK VINA RESULT: -5.852021160      1.948      2.165
REMARK  6 active torsions:
REMARK  status: ('A' for Active; 'I' for Inactive)
REMARK    1  A    between atoms: N1_2  and  C2_4 
REMARK    2  A    between atoms: C3_7  and  C4_8 
REMARK    3  A    between atoms: C8_14  and  N4_15 
REMARK    4  A    between atoms: N4_15  and  C9_17 
REMARK    5  A    between atoms: C9_17  and  C10_18 
REMARK    6  A    between atoms: C10_18  and  O1_19 
ROOT
HETATM    1  C2  UNL     1      29.063  34.006  47.445  1.00  0.00     0.693 A 
HETATM    2  N2  UNL     1      29.452  32.889  46.794  1.00  0.00    -0.179 N 
ATOM      3  H2  UNL     1      28.830  32.080  46.793  1.00  0.00     0.185 HD
HETATM    4  C3  UNL     1      30.626  32.801  46.148  1.00  0.00     0.121 A 
HETATM    5  N3  UNL     1      31.422  33.880  46.169  1.00  0.00    -0.179 N 
ATOM      6  H3  UNL     1      32.319  33.833  45.685  1.00  0.00     0.185 HD
HETATM    7  C8  UNL     1      31.093  35.017  46.797  1.00  0.00     0.694 A 
HETATM    8  N5  UNL     1      29.921  35.071  47.427  1.00  0.00    -0.022 N 
ATOM      9  H5  UNL     1      29.656  35.929  47.910  1.00  0.00     0.203 HD
ENDROOT
BRANCH   7  10
HETATM   10  N4  UNL     1      31.890  36.007  46.782  1.00  0.00    -0.224 N 
ATOM     11  H4  UNL     1      32.849  35.790  46.513  1.00  0.00     0.177 HD
BRANCH  10  12
HETATM   12  C9  UNL     1      31.639  37.370  47.087  1.00  0.00     0.164 C 
BRANCH  12  13
HETATM   13  C10 UNL     1      32.781  38.202  46.491  1.00  0.00     0.184 C 
BRANCH  13  14
HETATM   14  O1  UNL     1      32.807  38.001  45.113  1.00  0.00    -0.399 OA
ATOM     15  H1  UNL     1      33.518  38.512  44.745  1.00  0.00     0.209 HD
ENDBRANCH  13  14
ENDBRANCH  12  13
ENDBRANCH  10  12
ENDBRANCH   7  10
BRANCH   4  16
HETATM   16  C4  UNL     1      31.000  31.550  45.445  1.00  0.00     0.009 C 
HETATM   17  C5  UNL     1      31.152  30.503  46.558  1.00  0.00     0.022 C 
HETATM   18  C6  UNL     1      29.969  31.097  44.448  1.00  0.00     0.022 C 
HETATM   19  C7  UNL     1      32.345  31.666  44.792  1.00  0.00     0.022 C 
ENDBRANCH   4  16
BRANCH   1  20
HETATM   20  N1  UNL     1      27.943  34.113  48.067  1.00  0.00    -0.230 N 
HETATM   21  C1  UNL     1      27.493  35.250  48.811  1.00  0.00     0.165 C 
ATOM     22  H1  UNL     1      27.315  33.310  48.027  1.00  0.00     0.177 HD
ENDBRANCH   1  20
TORSDOF 6
ENDMDL
MODEL 4
REMARK VINA RESULT: -5.840609107      2.012      3.708
REMARK  6 active torsions:
REMARK  status: ('A' for Active; 'I' for Inactive)
REMARK    1  A    between atoms: N1_2  and  C2_4 
REMARK    2  A    between atoms: C3_7  and  C4_8 
REMARK    3  A    between atoms: C8_14  and  N4_15 
REMARK    4  A    between atoms: N4_15  and  C9_17 
REMARK    5  A    between atoms: C9_17  and  C10_18 
REMARK    6  A    between atoms: C10_18  and  O1_19 
ROOT
HETATM    1  C2  UNL     1      30.736  34.260  44.719  1.00  0.00     0.693 A 
HETATM    2  N2  UNL     1      30.674  33.049  45.312  1.00  0.00    -0.179 N 
ATOM      3  H2  UNL     1      30.441  32.235  44.741  1.00  0.00     0.185 HD
HETATM    4  C3  UNL     1      30.908  32.872  46.622  1.00  0.00     0.121 A 
HETATM    5  N3  UNL     1      31.211  33.961  47.345  1.00  0.00    -0.179 N 
ATOM      6  H3  UNL     1      31.392  33.848  48.342  1.00  0.00     0.185 HD
HETATM    7  C8  UNL     1      31.288  35.189  46.816  1.00  0.00     0.694 A 
HETATM    8  N5  UNL     1      31.051  35.329  45.512  1.00  0.00    -0.022 N 
ATOM      9  H5  UNL     1      31.106  36.258  45.095  1.00  0.00     0.203 HD
ENDROOT
BRANCH   7  10
HETATM   10  N4  UNL     1      31.580  36.183  47.552  1.00  0.00    -0.224 N 
ATOM     11  H4  UNL     1      32.064  35.956  48.420  1.00  0.00     0.177 HD
BRANCH  10  12
HETATM   12  C9  UNL     1      31.329  37.564  47.342  1.00  0.00     0.164 C 
BRANCH  12  13
HETATM   13  C10 UNL     1      32.625  38.203  46.828  1.00  0.00     0.184 C 
BRANCH  13  14
HETATM   14  O1  UNL     1      32.677  38.055  45.444  1.00  0.00    -0.399 OA
ATOM     15  H1  UNL     1      32.526  38.902  45.042  1.00  0.00     0.209 HD
ENDBRANCH  13  14
ENDBRANCH  12  13
ENDBRANCH  10  12
ENDBRANCH   7  10
BRANCH   4  16
HETATM   16  C4  UNL     1      30.831  31.517  47.219  1.00  0.00     0.009 C 
HETATM   17  C5  UNL     1      31.250  31.707  48.684  1.00  0.00     0.022 C 
HETATM   18  C6  UNL     1      29.455  30.914  47.149  1.00  0.00     0.022 C 
HETATM   19  C7  UNL     1      31.841  30.590  46.612  1.00  0.00     0.022 C 
ENDBRANCH   4  16
BRANCH   1  20
HETATM   20  N1  UNL     1      30.518  34.452  43.466  1.00  0.00    -0.230 N 
HETATM   21  C1  UNL     1      31.022  35.533  42.675  1.00  0.00     0.165 C 
ATOM     22  H1  UNL     1      29.930  33.768  42.992  1.00  0.00     0.177 HD
ENDBRANCH   1  20
TORSDOF 6
ENDMDL
MODEL 5
REMARK VINA RESULT: -5.831290146      1.932      2.397
REMARK  6 active torsions:
REMARK  status: ('A' for Active; 'I' for Inactive)
REMARK    1  A    between atoms: N1_2  and  C2_4 
REMARK    2  A    between atoms: C3_7  and  C4_8 
REMARK    3  A    between atoms: C8_14  and  N4_15 
REMARK    4  A    between atoms: N4_15  and  C9_17 
REMARK    5  A    between atoms: C9_17  and  C10_18 
REMARK    6  A    between atoms: C10_18  and  O1_19 
ROOT
HETATM    1  C2  UNL     1      29.088  34.013  47.429  1.00  0.00     0.693 A 
HETATM    2  N2  UNL     1      29.508  32.886  46.816  1.00  0.00    -0.179 N 
ATOM      3  H2  UNL     1      28.896  32.070  46.818  1.00  0.00     0.185 HD
HETATM    4  C3  UNL     1      30.701  32.797  46.206  1.00  0.00     0.121 A 
HETATM    5  N3  UNL     1      31.483  33.886  46.223  1.00  0.00    -0.179 N 
ATOM      6  H3  UNL     1      32.394  33.838  45.765  1.00  0.00     0.185 HD
HETATM    7  C8  UNL     1      31.124  35.033  46.813  1.00  0.00     0.694 A 
HETATM    8  N5  UNL     1      29.934  35.088  47.409  1.00  0.00    -0.022 N 
ATOM      9  H5  UNL     1      29.646  35.955  47.863  1.00  0.00     0.203 HD
ENDROOT
BRANCH   7  10
HETATM   10  N4  UNL     1      31.909  36.032  46.797  1.00  0.00    -0.224 N 
ATOM     11  H4  UNL     1      32.874  35.824  46.541  1.00  0.00     0.177 HD
BRANCH  10  12
HETATM   12  C9  UNL     1      31.639  37.396  47.082  1.00  0.00     0.164 C 
BRANCH  12  13
HETATM   13  C10 UNL     1      32.783  38.233  46.499  1.00  0.00     0.184 C 
BRANCH  13  14
HETATM   14  O1  UNL     1      32.827  38.030  45.122  1.00  0.00    -0.399 OA
ATOM     15  H1  UNL     1      33.526  38.561  44.758  1.00  0.00     0.209 HD
ENDBRANCH  13  14
ENDBRANCH  12  13
ENDBRANCH  10  12
ENDBRANCH   7  10
BRANCH   4  16
HETATM   16  C4  UNL     1      31.109  31.534  45.544  1.00  0.00     0.009 C 
HETATM   17  C5  UNL     1      29.966  31.213  44.570  1.00  0.00     0.022 C 
HETATM   18  C6  UNL     1      32.409  31.647  44.797  1.00  0.00     0.022 C 
HETATM   19  C7  UNL     1      31.161  30.395  46.518  1.00  0.00     0.022 C 
ENDBRANCH   4  16
BRANCH   1  20
HETATM   20  N1  UNL     1      27.950  34.122  48.017  1.00  0.00    -0.230 N 
HETATM   21  C1  UNL     1      27.508  35.229  48.808  1.00  0.00     0.165 C 
ATOM     22  H1  UNL     1      27.300  33.343  47.911  1.00  0.00     0.177 HD
ENDBRANCH   1  20
TORSDOF 6
ENDMDL
