MODEL 1
REMARK VINA RESULT: -6.702106176      0.000      0.000
REMARK  5 active torsions:
REMARK  status: ('A' for Active; 'I' for Inactive)
REMARK    1  A    between atoms: C5_6  and  C6_7 
REMARK    2  A    between atoms: C6_7  and  C7_8 
REMARK    3  A    between atoms: C7_8  and  C8_9 
REMARK    4  A    between atoms: C8_9  and  N2_10 
REMARK    5  A    between atoms: N2_10  and  C9_12 
ROOT
HETATM    1  C1  UNL     1      29.226  31.717  43.820  1.00  0.00     0.052 C 
HETATM    2  C2  UNL     1      29.772  32.261  45.084  1.00  0.00    -0.014 A 
HETATM    3  C3  UNL     1      30.362  33.495  45.134  1.00  0.00     0.087 A 
HETATM    4  C4  UNL     1      30.482  34.331  43.958  1.00  0.00     0.103 C 
HETATM    5  N1  UNL     1      30.572  34.987  43.002  1.00  0.00    -0.191 NA
HETATM    6  C5  UNL     1      30.882  34.026  46.310  1.00  0.00     0.110 A 
HETATM    7  N3  UNL     1      30.772  33.251  47.406  1.00  0.00    -0.333 N 
ATOM      8  H3  UNL     1      31.140  33.601  48.291  1.00  0.00     0.168 HD
HETATM    9  C10 UNL     1      30.199  32.040  47.382  1.00  0.00     0.121 A 
HETATM   10  N4  UNL     1      30.134  31.364  48.474  1.00  0.00    -0.384 N 
ATOM     11  H41 UNL     1      29.698  30.443  48.456  1.00  0.00     0.157 HD
ATOM     12  H42 UNL     1      30.518  31.761  49.332  1.00  0.00     0.157 HD
HETATM   13  C11 UNL     1      29.684  31.509  46.232  1.00  0.00     0.095 A 
HETATM   14  C12 UNL     1      29.062  30.190  46.213  1.00  0.00     0.104 C 
HETATM   15  N5  UNL     1      28.573  29.147  46.180  1.00  0.00    -0.191 NA
ENDROOT
BRANCH   6  16
HETATM   16  C6  UNL     1      31.493  35.326  46.318  1.00  0.00    -0.045 C 
BRANCH  16  17
HETATM   17  C7  UNL     1      32.019  36.412  46.310  1.00  0.00    -0.080 C 
BRANCH  17  18
HETATM   18  C8  UNL     1      32.682  37.734  46.285  1.00  0.00     0.216 C 
BRANCH  18  19
HETATM   19  N2  UNL     1      32.179  38.574  47.367  1.00  0.00    -0.358 N 
ATOM     20  H2  UNL     1      32.058  38.201  48.308  1.00  0.00     0.162 HD
BRANCH  19  21
HETATM   21  C9  UNL     1      31.859  39.937  47.068  1.00  0.00     0.349 C 
HETATM   22  O1  UNL     1      30.685  40.307  46.867  1.00  0.00    -0.284 OA
ENDBRANCH  19  21
ENDBRANCH  18  19
ENDBRANCH  17  18
ENDBRANCH  16  17
ENDBRANCH   6  16
TORSDOF 5
ENDMDL
MODEL 2
REMARK VINA RESULT: -6.669414688      1.882      2.728
REMARK  5 active torsions:
REMARK  status: ('A' for Active; 'I' for Inactive)
REMARK    1  A    between atoms: C5_6  and  C6_7 
REMARK    2  A    between atoms: C6_7  and  C7_8 
REMARK    3  A    between atoms: C7_8  and  C8_9 
REMARK    4  A    between atoms: C8_9  and  N2_10 
REMARK    5  A    between atoms: N2_10  and  C9_12 
ROOT
HETATM    1  C1  UNL     1      28.797  30.484  47.271  1.00  0.00     0.052 C 
HETATM    2  C2  UNL     1      29.838  31.386  46.731  1.00  0.00    -0.014 A 
HETATM    3  C3  UNL     1      29.877  32.713  47.064  1.00  0.00     0.087 A 
HETATM    4  C4  UNL     1      28.905  33.302  47.959  1.00  0.00     0.103 C 
HETATM    5  N1  UNL     1      28.113  33.759  48.679  1.00  0.00    -0.191 NA
HETATM    6  C5  UNL     1      30.846  33.579  46.568  1.00  0.00     0.110 A 
HETATM    7  N3  UNL     1      31.753  33.034  45.734  1.00  0.00    -0.333 N 
ATOM      8  H3  UNL     1      32.482  33.632  45.346  1.00  0.00     0.168 HD
HETATM    9  C10 UNL     1      31.736  31.738  45.393  1.00  0.00     0.121 A 
HETATM   10  N4  UNL     1      32.639  31.297  44.591  1.00  0.00    -0.384 N 
ATOM     11  H41 UNL     1      32.626  30.311  44.331  1.00  0.00     0.157 HD
ATOM     12  H42 UNL     1      33.346  31.939  44.231  1.00  0.00     0.157 HD
HETATM   13  C11 UNL     1      30.788  30.878  45.875  1.00  0.00     0.095 A 
HETATM   14  C12 UNL     1      30.775  29.469  45.500  1.00  0.00     0.104 C 
HETATM   15  N5  UNL     1      30.748  28.354  45.207  1.00  0.00    -0.191 NA
ENDROOT
BRANCH   6  16
HETATM   16  C6  UNL     1      30.850  34.965  46.943  1.00  0.00    -0.045 C 
BRANCH  16  17
HETATM   17  C7  UNL     1      30.872  36.128  47.264  1.00  0.00    -0.080 C 
BRANCH  17  18
HETATM   18  C8  UNL     1      30.924  37.555  47.652  1.00  0.00     0.216 C 
BRANCH  18  19
HETATM   19  N2  UNL     1      32.202  38.139  47.263  1.00  0.00    -0.358 N 
ATOM     20  H2  UNL     1      33.050  37.574  47.233  1.00  0.00     0.162 HD
BRANCH  19  21
HETATM   21  C9  UNL     1      32.232  39.531  46.926  1.00  0.00     0.349 C 
HETATM   22  O1  UNL     1      31.196  40.156  46.628  1.00  0.00    -0.284 OA
ENDBRANCH  19  21
ENDBRANCH  18  19
ENDBRANCH  17  18
ENDBRANCH  16  17
ENDBRANCH   6  16
TORSDOF 5
ENDMDL
MODEL 3
REMARK VINA RESULT: -6.295306476      3.014      3.818
REMARK  5 active torsions:
REMARK  status: ('A' for Active; 'I' for Inactive)
REMARK    1  A    between atoms: C5_6  and  C6_7 
REMARK    2  A    between atoms: C6_7  and  C7_8 
REMARK    3  A    between atoms: C7_8  and  C8_9 
REMARK    4  A    between atoms: C8_9  and  N2_10 
REMARK    5  A    between atoms: N2_10  and  C9_12 
ROOT
HETATM    1  C1  UNL     1      28.378  30.954  46.587  1.00  0.00     0.052 C 
HETATM    2  C2  UNL     1      29.196  32.188  46.579  1.00  0.00    -0.014 A 
HETATM    3  C3  UNL     1      29.588  32.777  45.408  1.00  0.00     0.087 A 
HETATM    4  C4  UNL     1      29.226  32.227  44.119  1.00  0.00     0.103 C 
HETATM    5  N1  UNL     1      28.928  31.768  43.093  1.00  0.00    -0.191 NA
HETATM    6  C5  UNL     1      30.356  33.937  45.377  1.00  0.00     0.110 A 
HETATM    7  N3  UNL     1      30.694  34.452  46.575  1.00  0.00    -0.333 N 
ATOM      8  H3  UNL     1      31.257  35.302  46.600  1.00  0.00     0.168 HD
HETATM    9  C10 UNL     1      30.322  33.894  47.735  1.00  0.00     0.121 A 
HETATM   10  N4  UNL     1      30.688  34.450  48.835  1.00  0.00    -0.384 N 
ATOM     11  H41 UNL     1      30.405  34.024  49.718  1.00  0.00     0.157 HD
ATOM     12  H42 UNL     1      31.251  35.300  48.803  1.00  0.00     0.157 HD
HETATM   13  C11 UNL     1      29.567  32.754  47.777  1.00  0.00     0.095 A 
HETATM   14  C12 UNL     1      29.166  32.152  49.042  1.00  0.00     0.104 C 
HETATM   15  N5  UNL     1      28.847  31.659  50.034  1.00  0.00    -0.191 NA
ENDROOT
BRANCH   6  16
HETATM   16  C6  UNL     1      30.746  34.523  44.125  1.00  0.00    -0.045 C 
BRANCH  16  17
HETATM   17  C7  UNL     1      31.076  35.033  43.082  1.00  0.00    -0.080 C 
BRANCH  17  18
HETATM   18  C8  UNL     1      31.500  35.668  41.816  1.00  0.00     0.216 C 
BRANCH  18  19
HETATM   19  N2  UNL     1      30.461  36.569  41.328  1.00  0.00    -0.358 N 
ATOM     20  H2  UNL     1      29.487  36.442  41.600  1.00  0.00     0.162 HD
BRANCH  19  21
HETATM   21  C9  UNL     1      30.850  37.638  40.458  1.00  0.00     0.349 C 
HETATM   22  O1  UNL     1      31.252  38.732  40.901  1.00  0.00    -0.284 OA
ENDBRANCH  19  21
ENDBRANCH  18  19
ENDBRANCH  17  18
ENDBRANCH  16  17
ENDBRANCH   6  16
TORSDOF 5
ENDMDL
MODEL 4
REMARK VINA RESULT: -6.222160755      3.387      6.843
REMARK  5 active torsions:
REMARK  status: ('A' for Active; 'I' for Inactive)
REMARK    1  A    between atoms: C5_6  and  C6_7 
REMARK    2  A    between atoms: C6_7  and  C7_8 
REMARK    3  A    between atoms: C7_8  and  C8_9 
REMARK    4  A    between atoms: C8_9  and  N2_10 
REMARK    5  A    between atoms: N2_10  and  C9_12 
ROOT
HETATM    1  C1  UNL     1      28.984  37.677  48.406  1.00  0.00     0.052 C 
HETATM    2  C2  UNL     1      30.113  36.969  47.761  1.00  0.00    -0.014 A 
HETATM    3  C3  UNL     1      30.140  35.604  47.667  1.00  0.00     0.087 A 
HETATM    4  C4  UNL     1      29.070  34.782  48.192  1.00  0.00     0.103 C 
HETATM    5  N1  UNL     1      28.202  34.138  48.622  1.00  0.00    -0.191 NA
HETATM    6  C5  UNL     1      31.190  34.918  47.065  1.00  0.00     0.110 A 
HETATM    7  N3  UNL     1      32.187  35.679  46.575  1.00  0.00    -0.333 N 
ATOM      8  H3  UNL     1      32.978  35.219  46.125  1.00  0.00     0.168 HD
HETATM    9  C10 UNL     1      32.184  37.017  46.655  1.00  0.00     0.121 A 
HETATM   10  N4  UNL     1      33.175  37.670  46.161  1.00  0.00    -0.384 N 
ATOM     11  H41 UNL     1      33.172  38.688  46.222  1.00  0.00     0.157 HD
ATOM     12  H42 UNL     1      33.942  37.159  45.722  1.00  0.00     0.157 HD
HETATM   13  C11 UNL     1      31.156  37.701  47.244  1.00  0.00     0.095 A 
HETATM   14  C12 UNL     1      31.158  39.157  47.327  1.00  0.00     0.104 C 
HETATM   15  N5  UNL     1      31.148  40.307  47.407  1.00  0.00    -0.191 NA
ENDROOT
BRANCH   6  16
HETATM   16  C6  UNL     1      31.179  33.484  46.988  1.00  0.00    -0.045 C 
BRANCH  16  17
HETATM   17  C7  UNL     1      31.189  32.279  46.922  1.00  0.00    -0.080 C 
BRANCH  17  18
HETATM   18  C8  UNL     1      31.220  30.803  46.823  1.00  0.00     0.216 C 
BRANCH  18  19
HETATM   19  N2  UNL     1      32.239  30.381  45.869  1.00  0.00    -0.358 N 
ATOM     20  H2  UNL     1      32.864  29.603  46.079  1.00  0.00     0.162 HD
BRANCH  19  21
HETATM   21  C9  UNL     1      32.336  31.090  44.629  1.00  0.00     0.349 C 
HETATM   22  O1  UNL     1      32.005  30.567  43.546  1.00  0.00    -0.284 OA
ENDBRANCH  19  21
ENDBRANCH  18  19
ENDBRANCH  17  18
ENDBRANCH  16  17
ENDBRANCH   6  16
TORSDOF 5
ENDMDL
MODEL 5
REMARK VINA RESULT: -6.197094494      1.731      2.013
REMARK  5 active torsions:
REMARK  status: ('A' for Active; 'I' for Inactive)
REMARK    1  A    between atoms: C5_6  and  C6_7 
REMARK    2  A    between atoms: C6_7  and  C7_8 
REMARK    3  A    between atoms: C7_8  and  C8_9 
REMARK    4  A    between atoms: C8_9  and  N2_10 
REMARK    5  A    between atoms: N2_10  and  C9_12 
ROOT
HETATM    1  C1  UNL     1      29.085  30.260  46.024  1.00  0.00     0.052 C 
HETATM    2  C2  UNL     1      29.161  31.448  46.904  1.00  0.00    -0.014 A 
HETATM    3  C3  UNL     1      29.894  32.550  46.556  1.00  0.00     0.087 A 
HETATM    4  C4  UNL     1      30.632  32.612  45.312  1.00  0.00     0.103 C 
HETATM    5  N1  UNL     1      31.221  32.643  44.310  1.00  0.00    -0.191 NA
HETATM    6  C5  UNL     1      29.978  33.677  47.367  1.00  0.00     0.110 A 
HETATM    7  N3  UNL     1      29.292  33.623  48.525  1.00  0.00    -0.333 N 
ATOM      8  H3  UNL     1      29.326  34.427  49.152  1.00  0.00     0.168 HD
HETATM    9  C10 UNL     1      28.567  32.555  48.888  1.00  0.00     0.121 A 
HETATM   10  N4  UNL     1      27.942  32.585  50.011  1.00  0.00    -0.384 N 
ATOM     11  H41 UNL     1      27.391  31.772  50.288  1.00  0.00     0.157 HD
ATOM     12  H42 UNL     1      28.009  33.415  50.600  1.00  0.00     0.157 HD
HETATM   13  C11 UNL     1      28.477  31.443  48.098  1.00  0.00     0.095 A 
HETATM   14  C12 UNL     1      27.688  30.285  48.500  1.00  0.00     0.104 C 
HETATM   15  N5  UNL     1      27.073  29.359  48.806  1.00  0.00    -0.191 NA
ENDROOT
BRANCH   6  16
HETATM   16  C6  UNL     1      30.759  34.813  46.963  1.00  0.00    -0.045 C 
BRANCH  16  17
HETATM   17  C7  UNL     1      31.416  35.773  46.642  1.00  0.00    -0.080 C 
BRANCH  17  18
HETATM   18  C8  UNL     1      32.233  36.936  46.233  1.00  0.00     0.216 C 
BRANCH  18  19
HETATM   19  N2  UNL     1      32.404  37.855  47.353  1.00  0.00    -0.358 N 
ATOM     20  H2  UNL     1      32.448  37.510  48.312  1.00  0.00     0.162 HD
BRANCH  19  21
HETATM   21  C9  UNL     1      32.508  39.254  47.067  1.00  0.00     0.349 C 
HETATM   22  O1  UNL     1      31.515  39.932  46.739  1.00  0.00    -0.284 OA
ENDBRANCH  19  21
ENDBRANCH  18  19
ENDBRANCH  17  18
ENDBRANCH  16  17
ENDBRANCH   6  16
TORSDOF 5
ENDMDL
