MODEL 1
REMARK VINA RESULT: -6.360903985      0.000      0.000
REMARK  4 active torsions:
REMARK  status: ('A' for Active; 'I' for Inactive)
REMARK    1  A    between atoms: C3_3  and  N1_4 
REMARK    2  A    between atoms: C5_9  and  N3_10 
REMARK    3  A    between atoms: C6_15  and  N5_16 
REMARK    4  A    between atoms: C7_18  and  C8_19 
ROOT
HETATM    1  C1  UNL     1      30.788  29.184  45.600  1.00  0.00     0.014 C 
HETATM    2  C2  UNL     1      29.998  30.096  45.611  1.00  0.00    -0.097 C 
HETATM    3  C3  UNL     1      29.010  31.204  45.627  1.00  0.00     0.245 C 
ENDROOT
BRANCH   3   4
HETATM    4  N1  UNL     1      29.687  32.405  46.043  1.00  0.00    -0.120 N 
HETATM    5  C4  UNL     1      30.167  33.171  45.014  1.00  0.00     0.355 A 
HETATM    6  O1  UNL     1      30.010  32.826  43.802  1.00  0.00    -0.245 OA
HETATM    7  N2  UNL     1      30.815  34.308  45.294  1.00  0.00    -0.140 N 
HETATM    8  C5  UNL     1      30.995  34.697  46.575  1.00  0.00     0.694 A 
ATOM      9  H2  UNL     1      31.175  34.885  44.534  1.00  0.00     0.189 HD
HETATM   10  N4  UNL     1      30.521  33.939  47.550  1.00  0.00    -0.022 N 
HETATM   11  C6  UNL     1      29.851  32.766  47.320  1.00  0.00     0.703 A 
ATOM     12  H4  UNL     1      30.661  34.240  48.514  1.00  0.00     0.203 HD
BRANCH   8  13
HETATM   13  N3  UNL     1      31.636  35.820  46.817  1.00  0.00    -0.234 N 
ATOM     14  H32 UNL     1      32.571  35.997  46.450  1.00  0.00     0.174 HD
ATOM     15  H31 UNL     1      31.184  36.535  47.389  1.00  0.00     0.174 HD
ENDBRANCH   8  13
BRANCH  11  16
HETATM   16  N5  UNL     1      29.444  32.152  48.306  1.00  0.00    -0.204 N 
HETATM   17  C7  UNL     1      29.758  31.539  49.483  1.00  0.00     0.087 C 
ATOM     18  H5  UNL     1      28.433  32.065  48.195  1.00  0.00     0.183 HD
BRANCH  17  19
HETATM   19  C8  UNL     1      28.574  31.042  50.305  1.00  0.00    -0.019 C 
HETATM   20  C9  UNL     1      27.674  32.140  50.753  1.00  0.00     0.020 C 
HETATM   21  C10 UNL     1      27.786  30.133  49.381  1.00  0.00     0.020 C 
HETATM   22  C11 UNL     1      29.021  30.220  51.479  1.00  0.00     0.020 C 
ENDBRANCH  17  19
ENDBRANCH  11  16
ENDBRANCH   3   4
TORSDOF 4
ENDMDL
MODEL 2
REMARK VINA RESULT: -6.356581652      0.056      1.021
REMARK  4 active torsions:
REMARK  status: ('A' for Active; 'I' for Inactive)
REMARK    1  A    between atoms: C3_3  and  N1_4 
REMARK    2  A    between atoms: C5_9  and  N3_10 
REMARK    3  A    between atoms: C6_15  and  N5_16 
REMARK    4  A    between atoms: C7_18  and  C8_19 
ROOT
HETATM    1  C1  UNL     1      30.839  29.157  45.611  1.00  0.00     0.014 C 
HETATM    2  C2  UNL     1      30.037  30.059  45.609  1.00  0.00    -0.097 C 
HETATM    3  C3  UNL     1      29.034  31.154  45.609  1.00  0.00     0.245 C 
ENDROOT
BRANCH   3   4
HETATM    4  N1  UNL     1      29.689  32.364  46.032  1.00  0.00    -0.120 N 
HETATM    5  C4  UNL     1      30.159  33.143  45.009  1.00  0.00     0.355 A 
HETATM    6  O1  UNL     1      30.013  32.800  43.795  1.00  0.00    -0.245 OA
HETATM    7  N2  UNL     1      30.786  34.289  45.296  1.00  0.00    -0.140 N 
HETATM    8  C5  UNL     1      30.955  34.676  46.580  1.00  0.00     0.694 A 
ATOM      9  H2  UNL     1      31.140  34.876  44.540  1.00  0.00     0.189 HD
HETATM   10  N4  UNL     1      30.491  33.906  47.549  1.00  0.00    -0.022 N 
HETATM   11  C6  UNL     1      29.842  32.722  47.312  1.00  0.00     0.703 A 
ATOM     12  H4  UNL     1      30.622  34.205  48.515  1.00  0.00     0.203 HD
BRANCH   8  13
HETATM   13  N3  UNL     1      31.576  35.809  46.829  1.00  0.00    -0.234 N 
ATOM     14  H32 UNL     1      32.579  35.919  46.678  1.00  0.00     0.174 HD
ATOM     15  H31 UNL     1      31.038  36.600  47.183  1.00  0.00     0.174 HD
ENDBRANCH   8  13
BRANCH  11  16
HETATM   16  N5  UNL     1      29.442  32.098  48.294  1.00  0.00    -0.204 N 
HETATM   17  C7  UNL     1      29.749  31.543  49.501  1.00  0.00     0.087 C 
ATOM     18  H5  UNL     1      28.450  31.917  48.137  1.00  0.00     0.183 HD
BRANCH  17  19
HETATM   19  C8  UNL     1      28.575  30.960  50.279  1.00  0.00    -0.019 C 
HETATM   20  C9  UNL     1      28.994  30.238  51.512  1.00  0.00     0.020 C 
HETATM   21  C10 UNL     1      27.728  32.148  50.693  1.00  0.00     0.020 C 
HETATM   22  C11 UNL     1      27.725  30.073  49.417  1.00  0.00     0.020 C 
ENDBRANCH  17  19
ENDBRANCH  11  16
ENDBRANCH   3   4
TORSDOF 4
ENDMDL
MODEL 3
REMARK VINA RESULT: -6.349890711      2.240      4.398
REMARK  4 active torsions:
REMARK  status: ('A' for Active; 'I' for Inactive)
REMARK    1  A    between atoms: C3_3  and  N1_4 
REMARK    2  A    between atoms: C5_9  and  N3_10 
REMARK    3  A    between atoms: C6_15  and  N5_16 
REMARK    4  A    between atoms: C7_18  and  C8_19 
ROOT
HETATM    1  C1  UNL     1      30.053  31.431  49.552  1.00  0.00     0.014 C 
HETATM    2  C2  UNL     1      29.490  32.396  49.097  1.00  0.00    -0.097 C 
HETATM    3  C3  UNL     1      28.782  33.581  48.550  1.00  0.00     0.245 C 
ENDROOT
BRANCH   3   4
HETATM    4  N1  UNL     1      29.751  34.427  47.905  1.00  0.00    -0.120 N 
HETATM    5  C4  UNL     1      30.120  35.526  48.634  1.00  0.00     0.355 A 
HETATM    6  O1  UNL     1      29.631  35.753  49.783  1.00  0.00    -0.245 OA
HETATM    7  N2  UNL     1      31.014  36.380  48.121  1.00  0.00    -0.140 N 
HETATM    8  C5  UNL     1      31.549  36.161  46.899  1.00  0.00     0.694 A 
ATOM      9  H2  UNL     1      31.295  37.201  48.657  1.00  0.00     0.189 HD
HETATM   10  N4  UNL     1      31.176  35.092  46.216  1.00  0.00    -0.022 N 
HETATM   11  C6  UNL     1      30.264  34.187  46.693  1.00  0.00     0.703 A 
ATOM     12  H4  UNL     1      31.584  34.935  45.295  1.00  0.00     0.203 HD
BRANCH   8  13
HETATM   13  N3  UNL     1      32.426  37.019  46.424  1.00  0.00    -0.234 N 
ATOM     14  H32 UNL     1      32.262  38.025  46.444  1.00  0.00     0.174 HD
ATOM     15  H31 UNL     1      33.296  36.666  46.024  1.00  0.00     0.174 HD
ENDBRANCH   8  13
BRANCH  11  16
HETATM   16  N5  UNL     1      30.006  33.222  45.973  1.00  0.00    -0.204 N 
HETATM   17  C7  UNL     1      30.310  32.524  44.842  1.00  0.00     0.087 C 
ATOM     18  H5  UNL     1      29.226  32.734  46.414  1.00  0.00     0.183 HD
BRANCH  17  19
HETATM   19  C8  UNL     1      29.535  31.227  44.638  1.00  0.00    -0.019 C 
HETATM   20  C9  UNL     1      28.549  31.307  43.525  1.00  0.00     0.020 C 
HETATM   21  C10 UNL     1      30.573  30.182  44.274  1.00  0.00     0.020 C 
HETATM   22  C11 UNL     1      28.862  30.779  45.902  1.00  0.00     0.020 C 
ENDBRANCH  17  19
ENDBRANCH  11  16
ENDBRANCH   3   4
TORSDOF 4
ENDMDL
MODEL 4
REMARK VINA RESULT: -6.349787934      2.241      4.391
REMARK  4 active torsions:
REMARK  status: ('A' for Active; 'I' for Inactive)
REMARK    1  A    between atoms: C3_3  and  N1_4 
REMARK    2  A    between atoms: C5_9  and  N3_10 
REMARK    3  A    between atoms: C6_15  and  N5_16 
REMARK    4  A    between atoms: C7_18  and  C8_19 
ROOT
HETATM    1  C1  UNL     1      30.050  31.418  49.546  1.00  0.00     0.014 C 
HETATM    2  C2  UNL     1      29.490  32.391  49.104  1.00  0.00    -0.097 C 
HETATM    3  C3  UNL     1      28.785  33.586  48.576  1.00  0.00     0.245 C 
ENDROOT
BRANCH   3   4
HETATM    4  N1  UNL     1      29.753  34.427  47.922  1.00  0.00    -0.120 N 
HETATM    5  C4  UNL     1      30.126  35.531  48.643  1.00  0.00     0.355 A 
HETATM    6  O1  UNL     1      29.642  35.764  49.793  1.00  0.00    -0.245 OA
HETATM    7  N2  UNL     1      31.019  36.380  48.122  1.00  0.00    -0.140 N 
HETATM    8  C5  UNL     1      31.549  36.153  46.899  1.00  0.00     0.694 A 
ATOM      9  H2  UNL     1      31.303  37.204  48.652  1.00  0.00     0.189 HD
HETATM   10  N4  UNL     1      31.172  35.081  46.224  1.00  0.00    -0.022 N 
HETATM   11  C6  UNL     1      30.261  34.179  46.709  1.00  0.00     0.703 A 
ATOM     12  H4  UNL     1      31.577  34.917  45.303  1.00  0.00     0.203 HD
BRANCH   8  13
HETATM   13  N3  UNL     1      32.426  37.007  46.416  1.00  0.00    -0.234 N 
ATOM     14  H32 UNL     1      32.501  37.961  46.770  1.00  0.00     0.174 HD
ATOM     15  H31 UNL     1      33.047  36.706  45.665  1.00  0.00     0.174 HD
ENDBRANCH   8  13
BRANCH  11  16
HETATM   16  N5  UNL     1      29.999  33.211  45.997  1.00  0.00    -0.204 N 
HETATM   17  C7  UNL     1      30.163  32.602  44.787  1.00  0.00     0.087 C 
ATOM     18  H5  UNL     1      29.401  32.598  46.551  1.00  0.00     0.183 HD
BRANCH  17  19
HETATM   19  C8  UNL     1      29.551  31.211  44.659  1.00  0.00    -0.019 C 
HETATM   20  C9  UNL     1      28.822  30.781  45.886  1.00  0.00     0.020 C 
HETATM   21  C10 UNL     1      28.549  31.307  43.524  1.00  0.00     0.020 C 
HETATM   22  C11 UNL     1      30.578  30.187  44.274  1.00  0.00     0.020 C 
ENDBRANCH  17  19
ENDBRANCH  11  16
ENDBRANCH   3   4
TORSDOF 4
ENDMDL
MODEL 5
REMARK VINA RESULT: -6.316240094      0.092      1.031
REMARK  4 active torsions:
REMARK  status: ('A' for Active; 'I' for Inactive)
REMARK    1  A    between atoms: C3_3  and  N1_4 
REMARK    2  A    between atoms: C5_9  and  N3_10 
REMARK    3  A    between atoms: C6_15  and  N5_16 
REMARK    4  A    between atoms: C7_18  and  C8_19 
ROOT
HETATM    1  C1  UNL     1      30.782  29.122  45.571  1.00  0.00     0.014 C 
HETATM    2  C2  UNL     1      29.985  30.028  45.593  1.00  0.00    -0.097 C 
HETATM    3  C3  UNL     1      28.987  31.127  45.623  1.00  0.00     0.245 C 
ENDROOT
BRANCH   3   4
HETATM    4  N1  UNL     1      29.657  32.332  46.037  1.00  0.00    -0.120 N 
HETATM    5  C4  UNL     1      30.147  33.091  45.007  1.00  0.00     0.355 A 
HETATM    6  O1  UNL     1      30.004  32.736  43.797  1.00  0.00    -0.245 OA
HETATM    7  N2  UNL     1      30.790  34.231  45.285  1.00  0.00    -0.140 N 
HETATM    8  C5  UNL     1      30.956  34.631  46.565  1.00  0.00     0.694 A 
ATOM      9  H2  UNL     1      31.158  34.803  44.525  1.00  0.00     0.189 HD
HETATM   10  N4  UNL     1      30.473  33.880  47.541  1.00  0.00    -0.022 N 
HETATM   11  C6  UNL     1      29.807  32.704  47.313  1.00  0.00     0.703 A 
ATOM     12  H4  UNL     1      30.602  34.189  48.504  1.00  0.00     0.203 HD
BRANCH   8  13
HETATM   13  N3  UNL     1      31.593  35.757  46.805  1.00  0.00    -0.234 N 
ATOM     14  H32 UNL     1      31.135  36.549  47.257  1.00  0.00     0.174 HD
ATOM     15  H31 UNL     1      32.572  35.839  46.532  1.00  0.00     0.174 HD
ENDBRANCH   8  13
BRANCH  11  16
HETATM   16  N5  UNL     1      29.389  32.098  48.299  1.00  0.00    -0.204 N 
HETATM   17  C7  UNL     1      29.680  31.553  49.516  1.00  0.00     0.087 C 
ATOM     18  H5  UNL     1      28.396  31.929  48.136  1.00  0.00     0.183 HD
BRANCH  17  19
HETATM   19  C8  UNL     1      28.490  30.998  50.291  1.00  0.00    -0.019 C 
HETATM   20  C9  UNL     1      27.678  30.033  49.499  1.00  0.00     0.020 C 
HETATM   21  C10 UNL     1      29.083  30.256  51.474  1.00  0.00     0.020 C 
HETATM   22  C11 UNL     1      27.620  32.094  50.832  1.00  0.00     0.020 C 
ENDBRANCH  17  19
ENDBRANCH  11  16
ENDBRANCH   3   4
TORSDOF 4
ENDMDL
