MODEL 1
REMARK VINA RESULT: -6.325299279      0.000      0.000
REMARK  6 active torsions:
REMARK  status: ('A' for Active; 'I' for Inactive)
REMARK    1  A    between atoms: C3_4  and  C4_5 
REMARK    2  A    between atoms: C4_5  and  O1_6 
REMARK    3  A    between atoms: C4_5  and  C5_8 
REMARK    4  A    between atoms: C5_8  and  N2_9 
REMARK    5  A    between atoms: C5_8  and  C6_13 
REMARK    6  A    between atoms: C9_21  and  N5_22 
ROOT
HETATM    1  C1  UNL     1     -13.753  -6.366  -6.591  1.00  0.00     0.157 C 
HETATM    2  N1  UNL     1     -12.927  -7.547  -6.373  1.00  0.00    -0.346 N 
HETATM    3  C2  UNL     1     -11.636  -7.586  -5.985  1.00  0.00     0.103 A 
HETATM    4  C3  UNL     1     -11.218  -8.905  -5.893  1.00  0.00     0.008 A 
HETATM    5  C7  UNL     1     -12.317  -9.652  -6.244  1.00  0.00     0.087 A 
HETATM    6  C8  UNL     1     -12.511 -11.004  -6.342  1.00  0.00     0.274 A 
HETATM    7  O3  UNL     1     -11.575 -11.797  -6.083  1.00  0.00    -0.267 OA
HETATM    8  N4  UNL     1     -13.682 -11.533  -6.711  1.00  0.00    -0.155 N 
ATOM      9  H4  UNL     1     -13.799 -12.544  -6.775  1.00  0.00     0.187 HD
HETATM   10  C9  UNL     1     -14.708 -10.700  -6.998  1.00  0.00     0.680 A 
HETATM   11  N6  UNL     1     -14.539  -9.360  -6.909  1.00  0.00    -0.176 N 
ATOM     12  H6  UNL     1     -15.328  -8.754  -7.130  1.00  0.00     0.186 HD
HETATM   13  C10 UNL     1     -13.380  -8.797  -6.542  1.00  0.00     0.139 A 
ENDROOT
BRANCH   4  14
HETATM   14  C4  UNL     1      -9.897  -9.436  -5.500  1.00  0.00     0.193 C 
BRANCH  14  15
HETATM   15  O1  UNL     1      -9.395 -10.402  -6.370  1.00  0.00    -0.388 OA
ATOM     16  H1  UNL     1      -8.634 -10.863  -6.036  1.00  0.00     0.210 HD
ENDBRANCH  14  15
BRANCH  14  17
HETATM   17  C5  UNL     1      -9.890  -9.926  -4.064  1.00  0.00     0.304 C 
BRANCH  17  18
HETATM   18  N2  UNL     1      -9.797 -11.368  -3.966  1.00  0.00    -0.064 N 
ATOM     19  H23 UNL     1     -10.705 -11.778  -3.745  1.00  0.00     0.275 HD
ATOM     20  H22 UNL     1      -9.643 -11.787  -4.882  1.00  0.00     0.275 HD
ATOM     21  H21 UNL     1      -9.087 -11.672  -3.300  1.00  0.00     0.275 HD
ENDBRANCH  17  18
BRANCH  17  22
HETATM   22  C6  UNL     1      -8.776  -9.347  -3.296  1.00  0.00     0.264 C 
HETATM   23  N3  UNL     1      -7.843 -10.165  -2.630  1.00  0.00    -0.060 NA
HETATM   24  O2  UNL     1      -8.659  -8.107  -3.236  1.00  0.00    -0.274 OA
ENDBRANCH  17  22
ENDBRANCH  14  17
ENDBRANCH   4  14
BRANCH  10  25
HETATM   25  N5  UNL     1     -15.815 -11.245  -7.347  1.00  0.00    -0.234 N 
ATOM     26  H52 UNL     1     -15.891 -11.904  -8.121  1.00  0.00     0.174 HD
ATOM     27  H51 UNL     1     -16.643 -10.990  -6.809  1.00  0.00     0.174 HD
ENDBRANCH  10  25
TORSDOF 6
ENDMDL
MODEL 2
REMARK VINA RESULT: -6.323645529      2.027      3.221
REMARK  6 active torsions:
REMARK  status: ('A' for Active; 'I' for Inactive)
REMARK    1  A    between atoms: C3_4  and  C4_5 
REMARK    2  A    between atoms: C4_5  and  O1_6 
REMARK    3  A    between atoms: C4_5  and  C5_8 
REMARK    4  A    between atoms: C5_8  and  N2_9 
REMARK    5  A    between atoms: C5_8  and  C6_13 
REMARK    6  A    between atoms: C9_21  and  N5_22 
ROOT
HETATM    1  C1  UNL     1     -15.704 -11.690  -6.700  1.00  0.00     0.157 C 
HETATM    2  N1  UNL     1     -14.667 -10.702  -6.430  1.00  0.00    -0.346 N 
HETATM    3  C2  UNL     1     -13.350 -10.925  -6.242  1.00  0.00     0.103 A 
HETATM    4  C3  UNL     1     -12.704  -9.720  -6.012  1.00  0.00     0.008 A 
HETATM    5  C7  UNL     1     -13.694  -8.768  -6.070  1.00  0.00     0.087 A 
HETATM    6  C8  UNL     1     -13.666  -7.407  -5.918  1.00  0.00     0.274 A 
HETATM    7  O3  UNL     1     -12.583  -6.820  -5.681  1.00  0.00    -0.267 OA
HETATM    8  N4  UNL     1     -14.766  -6.654  -6.013  1.00  0.00    -0.155 N 
ATOM      9  H4  UNL     1     -14.716  -5.642  -5.896  1.00  0.00     0.187 HD
HETATM   10  C9  UNL     1     -15.948  -7.262  -6.267  1.00  0.00     0.680 A 
HETATM   11  N6  UNL     1     -16.000  -8.606  -6.420  1.00  0.00    -0.176 N 
ATOM     12  H6  UNL     1     -16.903  -9.040  -6.610  1.00  0.00     0.186 HD
HETATM   13  C10 UNL     1     -14.917  -9.389  -6.331  1.00  0.00     0.139 A 
ENDROOT
BRANCH   4  14
HETATM   14  C4  UNL     1     -11.270  -9.466  -5.765  1.00  0.00     0.193 C 
BRANCH  14  15
HETATM   15  O1  UNL     1     -10.516  -9.309  -6.927  1.00  0.00    -0.388 OA
ATOM     16  H1  UNL     1      -9.952 -10.049  -7.123  1.00  0.00     0.210 HD
ENDBRANCH  14  15
BRANCH  14  17
HETATM   17  C5  UNL     1     -10.662 -10.508  -4.846  1.00  0.00     0.304 C 
BRANCH  17  18
HETATM   18  N2  UNL     1     -10.208 -11.685  -5.558  1.00  0.00    -0.064 N 
ATOM     19  H23 UNL     1     -10.062 -12.465  -4.917  1.00  0.00     0.275 HD
ATOM     20  H22 UNL     1     -10.955 -12.077  -6.130  1.00  0.00     0.275 HD
ATOM     21  H21 UNL     1      -9.373 -11.509  -6.117  1.00  0.00     0.275 HD
ENDBRANCH  17  18
BRANCH  17  22
HETATM   22  C6  UNL     1      -9.521  -9.968  -4.090  1.00  0.00     0.264 C 
HETATM   23  N3  UNL     1      -8.583  -9.109  -4.693  1.00  0.00    -0.060 NA
HETATM   24  O2  UNL     1      -9.385 -10.281  -2.890  1.00  0.00    -0.274 OA
ENDBRANCH  17  22
ENDBRANCH  14  17
ENDBRANCH   4  14
BRANCH  10  25
HETATM   25  N5  UNL     1     -16.980  -6.507  -6.350  1.00  0.00    -0.234 N 
ATOM     26  H52 UNL     1     -17.432  -6.089  -5.538  1.00  0.00     0.174 HD
ATOM     27  H51 UNL     1     -17.347  -6.330  -7.286  1.00  0.00     0.174 HD
ENDBRANCH  10  25
TORSDOF 6
ENDMDL
MODEL 3
REMARK VINA RESULT: -5.994274440      3.624      5.444
REMARK  6 active torsions:
REMARK  status: ('A' for Active; 'I' for Inactive)
REMARK    1  A    between atoms: C3_4  and  C4_5 
REMARK    2  A    between atoms: C4_5  and  O1_6 
REMARK    3  A    between atoms: C4_5  and  C5_8 
REMARK    4  A    between atoms: C5_8  and  N2_9 
REMARK    5  A    between atoms: C5_8  and  C6_13 
REMARK    6  A    between atoms: C9_21  and  N5_22 
ROOT
HETATM    1  C1  UNL     1     -17.288  -8.421  -3.942  1.00  0.00     0.157 C 
HETATM    2  N1  UNL     1     -16.127  -8.188  -4.793  1.00  0.00    -0.346 N 
HETATM    3  C2  UNL     1     -15.504  -7.014  -5.028  1.00  0.00     0.103 A 
HETATM    4  C3  UNL     1     -14.442  -7.218  -5.896  1.00  0.00     0.008 A 
HETATM    5  C7  UNL     1     -14.460  -8.565  -6.170  1.00  0.00     0.087 A 
HETATM    6  C8  UNL     1     -13.663  -9.349  -6.961  1.00  0.00     0.274 A 
HETATM    7  O3  UNL     1     -12.709  -8.841  -7.596  1.00  0.00    -0.267 OA
HETATM    8  N4  UNL     1     -13.858 -10.665  -7.093  1.00  0.00    -0.155 N 
ATOM      9  H4  UNL     1     -13.248 -11.225  -7.688  1.00  0.00     0.187 HD
HETATM   10  C9  UNL     1     -14.881 -11.238  -6.419  1.00  0.00     0.680 A 
HETATM   11  N6  UNL     1     -15.683 -10.484  -5.632  1.00  0.00    -0.176 N 
ATOM     12  H6  UNL     1     -16.447 -10.940  -5.134  1.00  0.00     0.186 HD
HETATM   13  C10 UNL     1     -15.515  -9.163  -5.478  1.00  0.00     0.139 A 
ENDROOT
BRANCH   4  14
HETATM   14  C4  UNL     1     -13.475  -6.237  -6.427  1.00  0.00     0.193 C 
BRANCH  14  15
HETATM   15  O1  UNL     1     -12.468  -5.892  -5.527  1.00  0.00    -0.388 OA
ATOM     16  H1  UNL     1     -12.786  -5.464  -4.740  1.00  0.00     0.210 HD
ENDBRANCH  14  15
BRANCH  14  17
HETATM   17  C5  UNL     1     -14.166  -5.007  -6.985  1.00  0.00     0.304 C 
BRANCH  17  18
HETATM   18  N2  UNL     1     -13.329  -3.827  -6.939  1.00  0.00    -0.064 N 
ATOM     19  H23 UNL     1     -13.502  -3.289  -6.090  1.00  0.00     0.275 HD
ATOM     20  H22 UNL     1     -12.353  -4.076  -6.781  1.00  0.00     0.275 HD
ATOM     21  H21 UNL     1     -13.427  -3.241  -7.769  1.00  0.00     0.275 HD
ENDBRANCH  17  18
BRANCH  17  22
HETATM   22  C6  UNL     1     -14.591  -5.207  -8.379  1.00  0.00     0.264 C 
HETATM   23  N3  UNL     1     -15.810  -4.685  -8.855  1.00  0.00    -0.060 NA
HETATM   24  O2  UNL     1     -13.855  -5.852  -9.153  1.00  0.00    -0.274 OA
ENDBRANCH  17  22
ENDBRANCH  14  17
ENDBRANCH   4  14
BRANCH  10  25
HETATM   25  N5  UNL     1     -15.036 -12.502  -6.570  1.00  0.00    -0.234 N 
ATOM     26  H52 UNL     1     -14.394 -13.192  -6.182  1.00  0.00     0.174 HD
ATOM     27  H51 UNL     1     -15.849 -12.805  -7.107  1.00  0.00     0.174 HD
ENDBRANCH  10  25
TORSDOF 6
ENDMDL
MODEL 4
REMARK VINA RESULT: -5.984130454      3.570      5.029
REMARK  6 active torsions:
REMARK  status: ('A' for Active; 'I' for Inactive)
REMARK    1  A    between atoms: C3_4  and  C4_5 
REMARK    2  A    between atoms: C4_5  and  O1_6 
REMARK    3  A    between atoms: C4_5  and  C5_8 
REMARK    4  A    between atoms: C5_8  and  N2_9 
REMARK    5  A    between atoms: C5_8  and  C6_13 
REMARK    6  A    between atoms: C9_21  and  N5_22 
ROOT
HETATM    1  C1  UNL     1     -17.246  -8.399  -3.963  1.00  0.00     0.157 C 
HETATM    2  N1  UNL     1     -16.075  -8.195  -4.806  1.00  0.00    -0.346 N 
HETATM    3  C2  UNL     1     -15.428  -7.036  -5.047  1.00  0.00     0.103 A 
HETATM    4  C3  UNL     1     -14.363  -7.268  -5.904  1.00  0.00     0.008 A 
HETATM    5  C7  UNL     1     -14.404  -8.618  -6.166  1.00  0.00     0.087 A 
HETATM    6  C8  UNL     1     -13.616  -9.423  -6.943  1.00  0.00     0.274 A 
HETATM    7  O3  UNL     1     -12.647  -8.940  -7.575  1.00  0.00    -0.267 OA
HETATM    8  N4  UNL     1     -13.835 -10.737  -7.064  1.00  0.00    -0.155 N 
ATOM      9  H4  UNL     1     -13.231 -11.314  -7.649  1.00  0.00     0.187 HD
HETATM   10  C9  UNL     1     -14.874 -11.284  -6.393  1.00  0.00     0.680 A 
HETATM   11  N6  UNL     1     -15.668 -10.507  -5.620  1.00  0.00    -0.176 N 
ATOM     12  H6  UNL     1     -16.445 -10.944  -5.125  1.00  0.00     0.186 HD
HETATM   13  C10 UNL     1     -15.476  -9.189  -5.477  1.00  0.00     0.139 A 
ENDROOT
BRANCH   4  14
HETATM   14  C4  UNL     1     -13.372  -6.311  -6.436  1.00  0.00     0.193 C 
BRANCH  14  15
HETATM   15  O1  UNL     1     -12.063  -6.570  -6.034  1.00  0.00    -0.388 OA
ATOM     16  H1  UNL     1     -11.649  -7.283  -6.506  1.00  0.00     0.210 HD
ENDBRANCH  14  15
BRANCH  14  17
HETATM   17  C5  UNL     1     -13.765  -4.874  -6.151  1.00  0.00     0.304 C 
BRANCH  17  18
HETATM   18  N2  UNL     1     -13.069  -4.320  -5.009  1.00  0.00    -0.064 N 
ATOM     19  H23 UNL     1     -13.632  -4.402  -4.162  1.00  0.00     0.275 HD
ATOM     20  H22 UNL     1     -12.280  -4.908  -4.741  1.00  0.00     0.275 HD
ATOM     21  H21 UNL     1     -12.772  -3.356  -5.159  1.00  0.00     0.275 HD
ENDBRANCH  17  18
BRANCH  17  22
HETATM   22  C6  UNL     1     -13.508  -4.000  -7.306  1.00  0.00     0.264 C 
HETATM   23  N3  UNL     1     -12.237  -3.940  -7.911  1.00  0.00    -0.060 NA
HETATM   24  O2  UNL     1     -14.436  -3.298  -7.756  1.00  0.00    -0.274 OA
ENDBRANCH  17  22
ENDBRANCH  14  17
ENDBRANCH   4  14
BRANCH  10  25
HETATM   25  N5  UNL     1     -15.052 -12.546  -6.534  1.00  0.00    -0.234 N 
ATOM     26  H52 UNL     1     -14.846 -13.045  -7.398  1.00  0.00     0.174 HD
ATOM     27  H51 UNL     1     -15.420 -13.051  -5.727  1.00  0.00     0.174 HD
ENDBRANCH  10  25
TORSDOF 6
ENDMDL
MODEL 5
REMARK VINA RESULT: -5.819338815      3.713      5.344
REMARK  6 active torsions:
REMARK  status: ('A' for Active; 'I' for Inactive)
REMARK    1  A    between atoms: C3_4  and  C4_5 
REMARK    2  A    between atoms: C4_5  and  O1_6 
REMARK    3  A    between atoms: C4_5  and  C5_8 
REMARK    4  A    between atoms: C5_8  and  N2_9 
REMARK    5  A    between atoms: C5_8  and  C6_13 
REMARK    6  A    between atoms: C9_21  and  N5_22 
ROOT
HETATM    1  C1  UNL     1     -17.309  -8.482  -3.878  1.00  0.00     0.157 C 
HETATM    2  N1  UNL     1     -16.162  -8.230  -4.741  1.00  0.00    -0.346 N 
HETATM    3  C2  UNL     1     -15.549  -7.050  -4.969  1.00  0.00     0.103 A 
HETATM    4  C3  UNL     1     -14.497  -7.236  -5.853  1.00  0.00     0.008 A 
HETATM    5  C7  UNL     1     -14.510  -8.579  -6.145  1.00  0.00     0.087 A 
HETATM    6  C8  UNL     1     -13.719  -9.348  -6.957  1.00  0.00     0.274 A 
HETATM    7  O3  UNL     1     -12.776  -8.826  -7.598  1.00  0.00    -0.267 OA
HETATM    8  N4  UNL     1     -13.908 -10.663  -7.102  1.00  0.00    -0.155 N 
ATOM      9  H4  UNL     1     -13.303 -11.211  -7.713  1.00  0.00     0.187 HD
HETATM   10  C9  UNL     1     -14.919 -11.252  -6.423  1.00  0.00     0.680 A 
HETATM   11  N6  UNL     1     -15.714 -10.512  -5.615  1.00  0.00    -0.176 N 
ATOM     12  H6  UNL     1     -16.469 -10.979  -5.114  1.00  0.00     0.186 HD
HETATM   13  C10 UNL     1     -15.552  -9.193  -5.446  1.00  0.00     0.139 A 
ENDROOT
BRANCH   4  14
HETATM   14  C4  UNL     1     -13.543  -6.242  -6.385  1.00  0.00     0.193 C 
BRANCH  14  15
HETATM   15  O1  UNL     1     -13.142  -5.288  -5.451  1.00  0.00    -0.388 OA
ATOM     16  H1  UNL     1     -12.200  -5.234  -5.335  1.00  0.00     0.210 HD
ENDBRANCH  14  15
BRANCH  14  17
HETATM   17  C5  UNL     1     -14.053  -5.592  -7.656  1.00  0.00     0.304 C 
BRANCH  17  18
HETATM   18  N2  UNL     1     -15.498  -5.601  -7.748  1.00  0.00    -0.064 N 
ATOM     19  H23 UNL     1     -15.868  -6.541  -7.604  1.00  0.00     0.275 HD
ATOM     20  H22 UNL     1     -15.918  -5.133  -6.946  1.00  0.00     0.275 HD
ATOM     21  H21 UNL     1     -15.841  -5.204  -8.623  1.00  0.00     0.275 HD
ENDBRANCH  17  18
BRANCH  17  22
HETATM   22  C6  UNL     1     -13.602  -4.196  -7.774  1.00  0.00     0.264 C 
HETATM   23  N3  UNL     1     -14.434  -3.123  -7.401  1.00  0.00    -0.060 NA
HETATM   24  O2  UNL     1     -12.458  -3.962  -8.213  1.00  0.00    -0.274 OA
ENDBRANCH  17  22
ENDBRANCH  14  17
ENDBRANCH   4  14
BRANCH  10  25
HETATM   25  N5  UNL     1     -15.068 -12.514  -6.588  1.00  0.00    -0.234 N 
ATOM     26  H52 UNL     1     -14.566 -13.046  -7.298  1.00  0.00     0.174 HD
ATOM     27  H51 UNL     1     -15.727 -12.984  -5.967  1.00  0.00     0.174 HD
ENDBRANCH  10  25
TORSDOF 6
ENDMDL
