MODEL 1
REMARK VINA RESULT: -6.356697437      0.000      0.000
REMARK  4 active torsions:
REMARK  status: ('A' for Active; 'I' for Inactive)
REMARK       I    between atoms: N1_1  and  C1_4 
REMARK       I    between atoms: C1_4  and  N3_6 
REMARK    1  A    between atoms: N3_6  and  N4_8 
REMARK       I    between atoms: N4_8  and  C2_10 
REMARK    2  A    between atoms: C2_10  and  C3_12 
REMARK    3  A    between atoms: C3_12  and  N5_13 
REMARK    4  A    between atoms: C6_18  and  N7_19 
ROOT
HETATM    1  N5  UNL     1     -14.950  -6.262  -5.944  1.00  0.00    -0.318 N 
HETATM    2  C4  UNL     1     -15.801  -6.376  -4.904  1.00  0.00     0.185 A 
HETATM    3  N6  UNL     1     -16.981  -5.812  -5.212  1.00  0.00    -0.346 N 
ATOM      4  H6  UNL     1     -17.800  -5.760  -4.606  1.00  0.00     0.167 HD
HETATM    5  C5  UNL     1     -16.888  -5.325  -6.473  1.00  0.00     0.122 A 
HETATM    6  C6  UNL     1     -17.766  -4.656  -7.306  1.00  0.00     0.131 A 
HETATM    7  N8  UNL     1     -17.380  -4.292  -8.534  1.00  0.00    -0.337 N 
ATOM      8  H8  UNL     1     -18.022  -3.799  -9.155  1.00  0.00     0.168 HD
HETATM    9  C7  UNL     1     -16.133  -4.587  -8.936  1.00  0.00     0.183 A 
HETATM   10  N9  UNL     1     -15.235  -5.234  -8.175  1.00  0.00    -0.336 N 
ATOM     11  H9  UNL     1     -14.298  -5.436  -8.524  1.00  0.00     0.168 HD
HETATM   12  C8  UNL     1     -15.615  -5.612  -6.917  1.00  0.00     0.141 A 
ENDROOT
BRANCH   1  13
HETATM   13  C3  UNL     1     -13.584  -6.744  -6.004  1.00  0.00     0.235 C 
BRANCH  13  14
HETATM   14  C2  UNL     1     -13.535  -8.228  -6.000  1.00  0.00     0.254 C 
HETATM   15  N4  UNL     1     -13.977  -9.002  -7.111  1.00  0.00    -0.266 N 
ATOM     16  H4  UNL     1     -14.340  -8.533  -7.941  1.00  0.00     0.190 HD
HETATM   17  O1  UNL     1     -13.092  -8.821  -4.993  1.00  0.00    -0.270 OA
BRANCH  15  18
HETATM   18  N3  UNL     1     -13.919 -10.394  -7.075  1.00  0.00    -0.271 N 
HETATM   19  C1  UNL     1     -15.057 -11.172  -6.757  1.00  0.00     0.200 C 
HETATM   20  N1  UNL     1     -16.185 -10.598  -6.517  1.00  0.00    -0.372 N 
HETATM   21  N2  UNL     1     -14.996 -12.594  -6.695  1.00  0.00    -0.062 NA
ATOM     22  H12 UNL     1     -17.005 -11.158  -6.288  1.00  0.00     0.158 HD
ATOM     23  H11 UNL     1     -16.228  -9.579  -6.562  1.00  0.00     0.158 HD
ATOM     24  H3  UNL     1     -13.037 -10.862  -7.282  1.00  0.00     0.189 HD
ENDBRANCH  15  18
ENDBRANCH  13  14
ENDBRANCH   1  13
BRANCH   6  25
HETATM   25  N7  UNL     1     -18.941  -4.422  -6.822  1.00  0.00    -0.383 N 
ATOM     26  H72 UNL     1     -19.487  -5.108  -6.299  1.00  0.00     0.157 HD
ATOM     27  H71 UNL     1     -19.317  -3.488  -6.989  1.00  0.00     0.157 HD
ENDBRANCH   6  25
TORSDOF 4
ENDMDL
MODEL 2
REMARK VINA RESULT: -6.275667477      4.158      6.247
REMARK  4 active torsions:
REMARK  status: ('A' for Active; 'I' for Inactive)
REMARK       I    between atoms: N1_1  and  C1_4 
REMARK       I    between atoms: C1_4  and  N3_6 
REMARK    1  A    between atoms: N3_6  and  N4_8 
REMARK       I    between atoms: N4_8  and  C2_10 
REMARK    2  A    between atoms: C2_10  and  C3_12 
REMARK    3  A    between atoms: C3_12  and  N5_13 
REMARK    4  A    between atoms: C6_18  and  N7_19 
ROOT
HETATM    1  N5  UNL     1     -12.171 -10.268  -6.058  1.00  0.00    -0.318 N 
HETATM    2  C4  UNL     1     -12.054  -8.928  -5.955  1.00  0.00     0.185 A 
HETATM    3  N6  UNL     1     -13.270  -8.356  -5.998  1.00  0.00    -0.346 N 
ATOM      4  H6  UNL     1     -13.468  -7.357  -5.941  1.00  0.00     0.167 HD
HETATM    5  C5  UNL     1     -14.185  -9.346  -6.134  1.00  0.00     0.122 A 
HETATM    6  C6  UNL     1     -15.565  -9.365  -6.231  1.00  0.00     0.131 A 
HETATM    7  N8  UNL     1     -16.213 -10.528  -6.358  1.00  0.00    -0.337 N 
ATOM      8  H8  UNL     1     -17.230 -10.551  -6.429  1.00  0.00     0.168 HD
HETATM    9  C7  UNL     1     -15.501 -11.666  -6.390  1.00  0.00     0.183 A 
HETATM   10  N9  UNL     1     -14.161 -11.714  -6.301  1.00  0.00    -0.336 N 
ATOM     11  H9  UNL     1     -13.664 -12.605  -6.330  1.00  0.00     0.168 HD
HETATM   12  C8  UNL     1     -13.485 -10.534  -6.170  1.00  0.00     0.141 A 
ENDROOT
BRANCH   1  13
HETATM   13  C3  UNL     1     -11.091 -11.235  -6.051  1.00  0.00     0.235 C 
BRANCH  13  14
HETATM   14  C2  UNL     1     -10.345 -11.202  -4.767  1.00  0.00     0.254 C 
HETATM   15  N4  UNL     1      -9.593 -10.063  -4.359  1.00  0.00    -0.266 N 
ATOM     16  H4  UNL     1      -9.559  -9.239  -4.958  1.00  0.00     0.190 HD
HETATM   17  O1  UNL     1     -10.375 -12.202  -4.018  1.00  0.00    -0.270 OA
BRANCH  15  18
HETATM   18  N3  UNL     1      -8.903 -10.065  -3.148  1.00  0.00    -0.271 N 
HETATM   19  C1  UNL     1      -8.145  -8.947  -2.729  1.00  0.00     0.200 C 
HETATM   20  N1  UNL     1      -8.100  -7.887  -3.460  1.00  0.00    -0.372 N 
HETATM   21  N2  UNL     1      -7.418  -8.953  -1.504  1.00  0.00    -0.062 NA
ATOM     22  H12 UNL     1      -7.554  -7.081  -3.158  1.00  0.00     0.158 HD
ATOM     23  H11 UNL     1      -8.621  -7.882  -4.338  1.00  0.00     0.158 HD
ATOM     24  H3  UNL     1      -8.946 -10.891  -2.551  1.00  0.00     0.189 HD
ENDBRANCH  15  18
ENDBRANCH  13  14
ENDBRANCH   1  13
BRANCH   6  25
HETATM   25  N7  UNL     1     -16.153  -8.215  -6.188  1.00  0.00    -0.383 N 
ATOM     26  H72 UNL     1     -17.164  -8.095  -6.128  1.00  0.00     0.157 HD
ATOM     27  H71 UNL     1     -15.541  -7.398  -6.217  1.00  0.00     0.157 HD
ENDBRANCH   6  25
TORSDOF 4
ENDMDL
MODEL 3
REMARK VINA RESULT: -6.138558991      3.045      4.291
REMARK  4 active torsions:
REMARK  status: ('A' for Active; 'I' for Inactive)
REMARK       I    between atoms: N1_1  and  C1_4 
REMARK       I    between atoms: C1_4  and  N3_6 
REMARK    1  A    between atoms: N3_6  and  N4_8 
REMARK       I    between atoms: N4_8  and  C2_10 
REMARK    2  A    between atoms: C2_10  and  C3_12 
REMARK    3  A    between atoms: C3_12  and  N5_13 
REMARK    4  A    between atoms: C6_18  and  N7_19 
ROOT
HETATM    1  N5  UNL     1     -14.407  -9.164  -6.300  1.00  0.00    -0.318 N 
HETATM    2  C4  UNL     1     -15.433  -9.889  -5.810  1.00  0.00     0.185 A 
HETATM    3  N6  UNL     1     -16.282  -9.089  -5.141  1.00  0.00    -0.346 N 
ATOM      4  H6  UNL     1     -17.140  -9.380  -4.672  1.00  0.00     0.167 HD
HETATM    5  C5  UNL     1     -15.792  -7.828  -5.201  1.00  0.00     0.122 A 
HETATM    6  C6  UNL     1     -16.225  -6.610  -4.707  1.00  0.00     0.131 A 
HETATM    7  N8  UNL     1     -15.512  -5.502  -4.935  1.00  0.00    -0.337 N 
ATOM      8  H8  UNL     1     -15.825  -4.600  -4.575  1.00  0.00     0.168 HD
HETATM    9  C7  UNL     1     -14.377  -5.597  -5.646  1.00  0.00     0.183 A 
HETATM   10  N9  UNL     1     -13.903  -6.748  -6.151  1.00  0.00    -0.336 N 
ATOM     11  H9  UNL     1     -13.034  -6.770  -6.686  1.00  0.00     0.168 HD
HETATM   12  C8  UNL     1     -14.622  -7.889  -5.927  1.00  0.00     0.141 A 
ENDROOT
BRANCH   1  13
HETATM   13  C3  UNL     1     -13.288  -9.660  -7.078  1.00  0.00     0.235 C 
BRANCH  13  14
HETATM   14  C2  UNL     1     -12.336 -10.420  -6.230  1.00  0.00     0.254 C 
HETATM   15  N4  UNL     1     -11.461  -9.774  -5.310  1.00  0.00    -0.266 N 
ATOM     16  H4  UNL     1     -11.481  -8.758  -5.221  1.00  0.00     0.190 HD
HETATM   17  O1  UNL     1     -12.296 -11.666  -6.322  1.00  0.00    -0.270 OA
BRANCH  15  18
HETATM   18  N3  UNL     1     -10.577 -10.517  -4.529  1.00  0.00    -0.271 N 
HETATM   19  C1  UNL     1      -9.325  -9.994  -4.131  1.00  0.00     0.200 C 
HETATM   20  N1  UNL     1      -8.988  -8.797  -4.471  1.00  0.00    -0.372 N 
HETATM   21  N2  UNL     1      -8.408 -10.758  -3.354  1.00  0.00    -0.062 NA
ATOM     22  H12 UNL     1      -8.085  -8.420  -4.184  1.00  0.00     0.158 HD
ATOM     23  H11 UNL     1      -9.645  -8.250  -5.027  1.00  0.00     0.158 HD
ATOM     24  H3  UNL     1     -10.840 -11.459  -4.238  1.00  0.00     0.189 HD
ENDBRANCH  15  18
ENDBRANCH  13  14
ENDBRANCH   1  13
BRANCH   6  25
HETATM   25  N7  UNL     1     -17.330  -6.630  -4.038  1.00  0.00    -0.383 N 
ATOM     26  H72 UNL     1     -18.224  -6.300  -4.405  1.00  0.00     0.157 HD
ATOM     27  H71 UNL     1     -17.273  -7.005  -3.090  1.00  0.00     0.157 HD
ENDBRANCH   6  25
TORSDOF 4
ENDMDL
MODEL 4
REMARK VINA RESULT: -6.106454778      0.946      2.090
REMARK  4 active torsions:
REMARK  status: ('A' for Active; 'I' for Inactive)
REMARK       I    between atoms: N1_1  and  C1_4 
REMARK       I    between atoms: C1_4  and  N3_6 
REMARK    1  A    between atoms: N3_6  and  N4_8 
REMARK       I    between atoms: N4_8  and  C2_10 
REMARK    2  A    between atoms: C2_10  and  C3_12 
REMARK    3  A    between atoms: C3_12  and  N5_13 
REMARK    4  A    between atoms: C6_18  and  N7_19 
ROOT
HETATM    1  N5  UNL     1     -14.207  -6.237  -6.753  1.00  0.00    -0.318 N 
HETATM    2  C4  UNL     1     -14.424  -5.716  -7.978  1.00  0.00     0.185 A 
HETATM    3  N6  UNL     1     -15.661  -5.194  -8.043  1.00  0.00    -0.346 N 
ATOM      4  H6  UNL     1     -16.081  -4.738  -8.853  1.00  0.00     0.167 HD
HETATM    5  C5  UNL     1     -16.251  -5.383  -6.838  1.00  0.00     0.122 A 
HETATM    6  C6  UNL     1     -17.493  -5.064  -6.322  1.00  0.00     0.131 A 
HETATM    7  N8  UNL     1     -17.799  -5.385  -5.060  1.00  0.00    -0.337 N 
ATOM      8  H8  UNL     1     -18.713  -5.152  -4.672  1.00  0.00     0.168 HD
HETATM    9  C7  UNL     1     -16.881  -6.020  -4.313  1.00  0.00     0.183 A 
HETATM   10  N9  UNL     1     -15.659  -6.358  -4.756  1.00  0.00    -0.336 N 
ATOM     11  H9  UNL     1     -14.995  -6.840  -4.149  1.00  0.00     0.168 HD
HETATM   12  C8  UNL     1     -15.332  -6.035  -6.043  1.00  0.00     0.141 A 
ENDROOT
BRANCH   1  13
HETATM   13  C3  UNL     1     -12.997  -6.887  -6.290  1.00  0.00     0.235 C 
BRANCH  13  14
HETATM   14  C2  UNL     1     -13.224  -8.333  -6.039  1.00  0.00     0.254 C 
HETATM   15  N4  UNL     1     -13.375  -9.271  -7.101  1.00  0.00    -0.266 N 
ATOM     16  H4  UNL     1     -13.326  -8.951  -8.068  1.00  0.00     0.190 HD
HETATM   17  O1  UNL     1     -13.286  -8.745  -4.860  1.00  0.00    -0.270 OA
BRANCH  15  18
HETATM   18  N3  UNL     1     -13.588 -10.621  -6.831  1.00  0.00    -0.271 N 
HETATM   19  C1  UNL     1     -14.890 -11.137  -6.628  1.00  0.00     0.200 C 
HETATM   20  N1  UNL     1     -15.913 -10.357  -6.715  1.00  0.00    -0.372 N 
HETATM   21  N2  UNL     1     -15.111 -12.511  -6.328  1.00  0.00    -0.062 NA
ATOM     22  H12 UNL     1     -16.851 -10.729  -6.569  1.00  0.00     0.158 HD
ATOM     23  H11 UNL     1     -15.754  -9.373  -6.931  1.00  0.00     0.158 HD
ATOM     24  H3  UNL     1     -12.788 -11.252  -6.778  1.00  0.00     0.189 HD
ENDBRANCH  15  18
ENDBRANCH  13  14
ENDBRANCH   1  13
BRANCH   6  25
HETATM   25  N7  UNL     1     -18.301  -4.452  -7.125  1.00  0.00    -0.383 N 
ATOM     26  H72 UNL     1     -18.457  -3.444  -7.116  1.00  0.00     0.157 HD
ATOM     27  H71 UNL     1     -18.796  -5.040  -7.796  1.00  0.00     0.157 HD
ENDBRANCH   6  25
TORSDOF 4
ENDMDL
MODEL 5
REMARK VINA RESULT: -6.021782247      2.805      4.358
REMARK  4 active torsions:
REMARK  status: ('A' for Active; 'I' for Inactive)
REMARK       I    between atoms: N1_1  and  C1_4 
REMARK       I    between atoms: C1_4  and  N3_6 
REMARK    1  A    between atoms: N3_6  and  N4_8 
REMARK       I    between atoms: N4_8  and  C2_10 
REMARK    2  A    between atoms: C2_10  and  C3_12 
REMARK    3  A    between atoms: C3_12  and  N5_13 
REMARK    4  A    between atoms: C6_18  and  N7_19 
ROOT
HETATM    1  N5  UNL     1     -14.310  -8.697  -6.561  1.00  0.00    -0.318 N 
HETATM    2  C4  UNL     1     -13.653  -7.558  -6.858  1.00  0.00     0.185 A 
HETATM    3  N6  UNL     1     -14.183  -6.530  -6.174  1.00  0.00    -0.346 N 
ATOM      4  H6  UNL     1     -13.875  -5.558  -6.213  1.00  0.00     0.167 HD
HETATM    5  C5  UNL     1     -15.200  -7.016  -5.424  1.00  0.00     0.122 A 
HETATM    6  C6  UNL     1     -16.093  -6.442  -4.536  1.00  0.00     0.131 A 
HETATM    7  N8  UNL     1     -17.013  -7.198  -3.927  1.00  0.00    -0.337 N 
ATOM      8  H8  UNL     1     -17.674  -6.782  -3.270  1.00  0.00     0.168 HD
HETATM    9  C7  UNL     1     -17.052  -8.513  -4.194  1.00  0.00     0.183 A 
HETATM   10  N9  UNL     1     -16.215  -9.129  -5.045  1.00  0.00    -0.336 N 
ATOM     11  H9  UNL     1     -16.284 -10.133  -5.216  1.00  0.00     0.168 HD
HETATM   12  C8  UNL     1     -15.268  -8.370  -5.675  1.00  0.00     0.141 A 
ENDROOT
BRANCH   1  13
HETATM   13  C3  UNL     1     -14.038 -10.019  -7.091  1.00  0.00     0.235 C 
BRANCH  13  14
HETATM   14  C2  UNL     1     -13.149 -10.792  -6.186  1.00  0.00     0.254 C 
HETATM   15  N4  UNL     1     -11.764 -10.490  -6.048  1.00  0.00    -0.266 N 
ATOM     16  H4  UNL     1     -11.359  -9.721  -6.581  1.00  0.00     0.190 HD
HETATM   17  O1  UNL     1     -13.627 -11.737  -5.523  1.00  0.00    -0.270 OA
BRANCH  15  18
HETATM   18  N3  UNL     1     -10.957 -11.236  -5.190  1.00  0.00    -0.271 N 
HETATM   19  C1  UNL     1      -9.849 -10.656  -4.529  1.00  0.00     0.200 C 
HETATM   20  N1  UNL     1      -9.580  -9.406  -4.695  1.00  0.00    -0.372 N 
HETATM   21  N2  UNL     1      -9.007 -11.419  -3.671  1.00  0.00    -0.062 NA
ATOM     22  H12 UNL     1      -8.782  -8.988  -4.219  1.00  0.00     0.158 HD
ATOM     23  H11 UNL     1     -10.184  -8.859  -5.309  1.00  0.00     0.158 HD
ATOM     24  H3  UNL     1     -11.170 -12.221  -5.036  1.00  0.00     0.189 HD
ENDBRANCH  15  18
ENDBRANCH  13  14
ENDBRANCH   1  13
BRANCH   6  25
HETATM   25  N7  UNL     1     -15.968  -5.169  -4.350  1.00  0.00    -0.383 N 
ATOM     26  H72 UNL     1     -15.768  -4.502  -5.096  1.00  0.00     0.157 HD
ATOM     27  H71 UNL     1     -16.082  -4.844  -3.389  1.00  0.00     0.157 HD
ENDBRANCH   6  25
TORSDOF 4
ENDMDL
