MODEL 1
REMARK VINA RESULT: -6.106063587      0.000      0.000
REMARK  5 active torsions:
REMARK  status: ('A' for Active; 'I' for Inactive)
REMARK    1  A    between atoms: C2_2  and  C3_3 
REMARK    2  A    between atoms: C4_4  and  C5_5 
REMARK    3  A    between atoms: C5_5  and  C6_6 
REMARK    4  A    between atoms: C6_6  and  N1_7 
REMARK    5  A    between atoms: N1_7  and  C7_10 
ROOT
HETATM    1  C6  UNL     1      18.121  92.472  34.929  1.00  0.00     0.236 C 
ENDROOT
BRANCH   1   2
HETATM    2  C5  UNL     1      19.100  93.420  34.274  1.00  0.00     0.054 C 
BRANCH   2   3
HETATM    3  C4  UNL     1      18.358  94.623  33.817  1.00  0.00    -0.025 C 
HETATM    4  C3  UNL     1      17.044  94.597  33.797  1.00  0.00    -0.005 C 
BRANCH   4   5
HETATM    5  C2  UNL     1      16.314  95.788  33.345  1.00  0.00    -0.011 C 
HETATM    6  C1  UNL     1      16.942  96.920  33.102  1.00  0.00     0.011 C 
ENDBRANCH   4   5
ENDBRANCH   2   3
ENDBRANCH   1   2
BRANCH   1   7
HETATM    7  N1  UNL     1      18.179  91.196  34.281  1.00  0.00    -0.071 N 
ATOM      8  H12 UNL     1      19.121  90.808  34.333  1.00  0.00     0.277 HD
ATOM      9  H11 UNL     1      17.675  90.494  34.823  1.00  0.00     0.277 HD
BRANCH   7  10
HETATM   10  C7  UNL     1      17.714  91.215  32.923  1.00  0.00     0.186 A 
HETATM   11  C8  UNL     1      17.216  89.952  32.274  1.00  0.00     0.035 A 
HETATM   12  C9  UNL     1      16.292  91.090  32.566  1.00  0.00     0.035 A 
ENDBRANCH   7  10
ENDBRANCH   1   7
TORSDOF 5
ENDMDL
MODEL 2
REMARK VINA RESULT: -6.071073709      1.304      4.376
REMARK  5 active torsions:
REMARK  status: ('A' for Active; 'I' for Inactive)
REMARK    1  A    between atoms: C2_2  and  C3_3 
REMARK    2  A    between atoms: C4_4  and  C5_5 
REMARK    3  A    between atoms: C5_5  and  C6_6 
REMARK    4  A    between atoms: C6_6  and  N1_7 
REMARK    5  A    between atoms: N1_7  and  C7_10 
ROOT
HETATM    1  C6  UNL     1      19.143  93.508  34.727  1.00  0.00     0.236 C 
ENDROOT
BRANCH   1   2
HETATM    2  C5  UNL     1      18.528  92.421  35.579  1.00  0.00     0.054 C 
BRANCH   2   3
HETATM    3  C4  UNL     1      17.495  91.719  34.774  1.00  0.00    -0.025 C 
HETATM    4  C3  UNL     1      17.733  91.461  33.508  1.00  0.00    -0.005 C 
BRANCH   4   5
HETATM    5  C2  UNL     1      16.709  90.768  32.716  1.00  0.00    -0.011 C 
HETATM    6  C1  UNL     1      17.042  89.969  31.723  1.00  0.00     0.011 C 
ENDBRANCH   4   5
ENDBRANCH   2   3
ENDBRANCH   1   2
BRANCH   1   7
HETATM    7  N1  UNL     1      18.385  94.716  34.866  1.00  0.00    -0.071 N 
ATOM      8  H12 UNL     1      17.643  94.597  35.556  1.00  0.00     0.277 HD
ATOM      9  H11 UNL     1      18.938  95.435  35.333  1.00  0.00     0.277 HD
BRANCH   7  10
HETATM   10  C7  UNL     1      17.851  95.211  33.629  1.00  0.00     0.186 A 
HETATM   11  C8  UNL     1      16.365  95.224  33.395  1.00  0.00     0.035 A 
HETATM   12  C9  UNL     1      17.140  96.495  33.526  1.00  0.00     0.035 A 
ENDBRANCH   7  10
ENDBRANCH   1   7
TORSDOF 5
ENDMDL
MODEL 3
REMARK VINA RESULT: -6.011531031      1.324      4.508
REMARK  5 active torsions:
REMARK  status: ('A' for Active; 'I' for Inactive)
REMARK    1  A    between atoms: C2_2  and  C3_3 
REMARK    2  A    between atoms: C4_4  and  C5_5 
REMARK    3  A    between atoms: C5_5  and  C6_6 
REMARK    4  A    between atoms: C6_6  and  N1_7 
REMARK    5  A    between atoms: N1_7  and  C7_10 
ROOT
HETATM    1  C6  UNL     1      18.862  93.839  34.949  1.00  0.00     0.236 C 
ENDROOT
BRANCH   1   2
HETATM    2  C5  UNL     1      19.093  92.379  34.632  1.00  0.00     0.054 C 
BRANCH   2   3
HETATM    3  C4  UNL     1      18.278  92.020  33.443  1.00  0.00    -0.025 C 
HETATM    4  C3  UNL     1      17.428  91.022  33.525  1.00  0.00    -0.005 C 
BRANCH   4   5
HETATM    5  C2  UNL     1      16.625  90.669  32.347  1.00  0.00    -0.011 C 
HETATM    6  C1  UNL     1      16.985  89.686  31.548  1.00  0.00     0.011 C 
ENDBRANCH   4   5
ENDBRANCH   2   3
ENDBRANCH   1   2
BRANCH   1   7
HETATM    7  N1  UNL     1      18.440  94.527  33.765  1.00  0.00    -0.071 N 
ATOM      8  H12 UNL     1      19.236  94.967  33.303  1.00  0.00     0.277 HD
ATOM      9  H11 UNL     1      18.167  93.863  33.041  1.00  0.00     0.277 HD
BRANCH   7  10
HETATM   10  C7  UNL     1      17.394  95.484  33.993  1.00  0.00     0.186 A 
HETATM   11  C8  UNL     1      17.258  96.686  33.098  1.00  0.00     0.035 A 
HETATM   12  C9  UNL     1      16.223  95.608  33.113  1.00  0.00     0.035 A 
ENDBRANCH   7  10
ENDBRANCH   1   7
TORSDOF 5
ENDMDL
MODEL 4
REMARK VINA RESULT: -5.933262861      1.135      1.384
REMARK  5 active torsions:
REMARK  status: ('A' for Active; 'I' for Inactive)
REMARK    1  A    between atoms: C2_2  and  C3_3 
REMARK    2  A    between atoms: C4_4  and  C5_5 
REMARK    3  A    between atoms: C5_5  and  C6_6 
REMARK    4  A    between atoms: C6_6  and  N1_7 
REMARK    5  A    between atoms: N1_7  and  C7_10 
ROOT
HETATM    1  C6  UNL     1      18.333  92.924  35.410  1.00  0.00     0.236 C 
ENDROOT
BRANCH   1   2
HETATM    2  C5  UNL     1      18.726  94.089  34.531  1.00  0.00     0.054 C 
BRANCH   2   3
HETATM    3  C4  UNL     1      17.493  94.672  33.941  1.00  0.00    -0.025 C 
HETATM    4  C3  UNL     1      17.506  95.919  33.529  1.00  0.00    -0.005 C 
BRANCH   4   5
HETATM    5  C2  UNL     1      16.286  96.492  32.948  1.00  0.00    -0.011 C 
HETATM    6  C1  UNL     1      15.580  97.393  33.599  1.00  0.00     0.011 C 
ENDBRANCH   4   5
ENDBRANCH   2   3
ENDBRANCH   1   2
BRANCH   1   7
HETATM    7  N1  UNL     1      17.009  92.491  35.073  1.00  0.00    -0.071 N 
ATOM      8  H12 UNL     1      16.412  92.484  35.900  1.00  0.00     0.277 HD
ATOM      9  H11 UNL     1      16.528  93.202  34.521  1.00  0.00     0.277 HD
BRANCH   7  10
HETATM   10  C7  UNL     1      16.967  91.220  34.407  1.00  0.00     0.186 A 
HETATM   11  C8  UNL     1      16.544  91.132  32.966  1.00  0.00     0.035 A 
HETATM   12  C9  UNL     1      17.946  90.825  33.383  1.00  0.00     0.035 A 
ENDBRANCH   7  10
ENDBRANCH   1   7
TORSDOF 5
ENDMDL
MODEL 5
REMARK VINA RESULT: -5.812788617      1.323      2.603
REMARK  5 active torsions:
REMARK  status: ('A' for Active; 'I' for Inactive)
REMARK    1  A    between atoms: C2_2  and  C3_3 
REMARK    2  A    between atoms: C4_4  and  C5_5 
REMARK    3  A    between atoms: C5_5  and  C6_6 
REMARK    4  A    between atoms: C6_6  and  N1_7 
REMARK    5  A    between atoms: N1_7  and  C7_10 
ROOT
HETATM    1  C6  UNL     1      17.309  91.976  33.755  1.00  0.00     0.236 C 
ENDROOT
BRANCH   1   2
HETATM    2  C5  UNL     1      16.877  93.051  34.728  1.00  0.00     0.054 C 
BRANCH   2   3
HETATM    3  C4  UNL     1      16.595  94.293  33.963  1.00  0.00    -0.025 C 
HETATM    4  C3  UNL     1      17.507  95.237  33.914  1.00  0.00    -0.005 C 
BRANCH   4   5
HETATM    5  C2  UNL     1      17.225  96.463  33.158  1.00  0.00    -0.011 C 
HETATM    6  C1  UNL     1      16.045  97.046  33.220  1.00  0.00     0.011 C 
ENDBRANCH   4   5
ENDBRANCH   2   3
ENDBRANCH   1   2
BRANCH   1   7
HETATM    7  N1  UNL     1      18.406  91.240  34.309  1.00  0.00    -0.071 N 
ATOM      8  H12 UNL     1      18.068  90.479  34.898  1.00  0.00     0.277 HD
ATOM      9  H11 UNL     1      18.877  90.698  33.584  1.00  0.00     0.277 HD
BRANCH   7  10
HETATM   10  C7  UNL     1      19.349  92.053  35.023  1.00  0.00     0.186 A 
HETATM   11  C8  UNL     1      20.810  91.693  35.030  1.00  0.00     0.035 A 
HETATM   12  C9  UNL     1      20.318  92.929  34.347  1.00  0.00     0.035 A 
ENDBRANCH   7  10
ENDBRANCH   1   7
TORSDOF 5
ENDMDL
