MODEL 1
REMARK VINA RESULT: -6.092290883      0.000      0.000
REMARK  4 active torsions:
REMARK  status: ('A' for Active; 'I' for Inactive)
REMARK    1  A    between atoms: C2_2  and  C3_3 
REMARK    2  A    between atoms: C3_3  and  C4_4 
REMARK    3  A    between atoms: C4_4  and  N1_5 
REMARK    4  A    between atoms: N1_5  and  C5_7 
ROOT
HETATM    1  N1  UNL     1      17.064  92.783  35.122  1.00  0.00    -0.417 N 
ATOM      2  H1  UNL     1      16.933  93.078  36.088  1.00  0.00     0.153 HD
ENDROOT
BRANCH   1   3
HETATM    3  C4  UNL     1      17.025  91.408  34.723  1.00  0.00     0.118 C 
BRANCH   3   4
HETATM    4  C3  UNL     1      17.634  91.230  33.335  1.00  0.00     0.045 C 
BRANCH   4   5
HETATM    5  C2  UNL     1      16.671  90.649  32.389  1.00  0.00    -0.035 C 
HETATM    6  C1  UNL     1      17.013  89.678  31.534  1.00  0.00     0.007 C 
ENDBRANCH   4   5
ENDBRANCH   3   4
ENDBRANCH   1   3
BRANCH   1   7
HETATM    7  C5  UNL     1      17.300  93.708  34.060  1.00  0.00     0.076 C 
HETATM    8  C6  UNL     1      18.244  94.809  34.385  1.00  0.00     0.024 C 
HETATM    9  C7  UNL     1      17.824  95.972  33.512  1.00  0.00     0.002 C 
HETATM   10  C8  UNL     1      16.353  95.767  33.227  1.00  0.00     0.002 C 
HETATM   11  C9  UNL     1      15.997  94.419  33.772  1.00  0.00     0.024 C 
ENDBRANCH   1   7
TORSDOF 4
ENDMDL
MODEL 2
REMARK VINA RESULT: -5.895405982      0.766      1.463
REMARK  4 active torsions:
REMARK  status: ('A' for Active; 'I' for Inactive)
REMARK    1  A    between atoms: C2_2  and  C3_3 
REMARK    2  A    between atoms: C3_3  and  C4_4 
REMARK    3  A    between atoms: C4_4  and  N1_5 
REMARK    4  A    between atoms: N1_5  and  C5_7 
ROOT
HETATM    1  N1  UNL     1      17.958  93.151  33.878  1.00  0.00    -0.417 N 
ATOM      2  H1  UNL     1      18.813  93.005  33.342  1.00  0.00     0.153 HD
ENDROOT
BRANCH   1   3
HETATM    3  C4  UNL     1      17.207  92.070  34.442  1.00  0.00     0.118 C 
BRANCH   3   4
HETATM    4  C3  UNL     1      17.480  90.772  33.687  1.00  0.00     0.045 C 
BRANCH   4   5
HETATM    5  C2  UNL     1      16.808  90.751  32.380  1.00  0.00    -0.035 C 
HETATM    6  C1  UNL     1      16.921  89.715  31.540  1.00  0.00     0.007 C 
ENDBRANCH   4   5
ENDBRANCH   3   4
ENDBRANCH   1   3
BRANCH   1   7
HETATM    7  C5  UNL     1      17.417  94.450  34.125  1.00  0.00     0.076 C 
HETATM    8  C6  UNL     1      16.099  94.712  33.491  1.00  0.00     0.024 C 
HETATM    9  C7  UNL     1      16.056  96.206  33.251  1.00  0.00     0.002 C 
HETATM   10  C8  UNL     1      17.497  96.648  33.129  1.00  0.00     0.002 C 
HETATM   11  C9  UNL     1      18.338  95.461  33.480  1.00  0.00     0.024 C 
ENDBRANCH   1   7
TORSDOF 4
ENDMDL
MODEL 3
REMARK VINA RESULT: -5.819920675      0.827      1.554
REMARK  4 active torsions:
REMARK  status: ('A' for Active; 'I' for Inactive)
REMARK    1  A    between atoms: C2_2  and  C3_3 
REMARK    2  A    between atoms: C3_3  and  C4_4 
REMARK    3  A    between atoms: C4_4  and  N1_5 
REMARK    4  A    between atoms: N1_5  and  C5_7 
ROOT
HETATM    1  N1  UNL     1      17.041  91.958  34.964  1.00  0.00    -0.417 N 
ATOM      2  H1  UNL     1      16.455  91.543  35.687  1.00  0.00     0.153 HD
ENDROOT
BRANCH   1   3
HETATM    3  C4  UNL     1      17.659  91.182  33.931  1.00  0.00     0.118 C 
BRANCH   3   4
HETATM    4  C3  UNL     1      16.653  90.848  32.833  1.00  0.00     0.045 C 
BRANCH   4   5
HETATM    5  C2  UNL     1      17.265  90.054  31.757  1.00  0.00    -0.035 C 
HETATM    6  C1  UNL     1      16.641  89.007  31.204  1.00  0.00     0.007 C 
ENDBRANCH   4   5
ENDBRANCH   3   4
ENDBRANCH   1   3
BRANCH   1   7
HETATM    7  C5  UNL     1      17.310  93.359  34.903  1.00  0.00     0.076 C 
HETATM    8  C6  UNL     1      16.319  94.156  34.134  1.00  0.00     0.024 C 
HETATM    9  C7  UNL     1      17.086  95.345  33.596  1.00  0.00     0.002 C 
HETATM   10  C8  UNL     1      18.527  94.897  33.496  1.00  0.00     0.002 C 
HETATM   11  C9  UNL     1      18.600  93.548  34.139  1.00  0.00     0.024 C 
ENDBRANCH   1   7
TORSDOF 4
ENDMDL
MODEL 4
REMARK VINA RESULT: -5.623144946      1.319      4.363
REMARK  4 active torsions:
REMARK  status: ('A' for Active; 'I' for Inactive)
REMARK    1  A    between atoms: C2_2  and  C3_3 
REMARK    2  A    between atoms: C3_3  and  C4_4 
REMARK    3  A    between atoms: C4_4  and  N1_5 
REMARK    4  A    between atoms: N1_5  and  C5_7 
ROOT
HETATM    1  N1  UNL     1      19.375  93.490  34.307  1.00  0.00    -0.417 N 
ATOM      2  H1  UNL     1      20.352  93.686  34.090  1.00  0.00     0.153 HD
ENDROOT
BRANCH   1   3
HETATM    3  C4  UNL     1      18.449  94.513  34.688  1.00  0.00     0.118 C 
BRANCH   3   4
HETATM    4  C3  UNL     1      18.055  95.361  33.481  1.00  0.00     0.045 C 
BRANCH   4   5
HETATM    5  C2  UNL     1      16.600  95.549  33.400  1.00  0.00    -0.035 C 
HETATM    6  C1  UNL     1      16.054  96.694  32.972  1.00  0.00     0.007 C 
ENDBRANCH   4   5
ENDBRANCH   3   4
ENDBRANCH   1   3
BRANCH   1   7
HETATM    7  C5  UNL     1      18.827  92.173  34.254  1.00  0.00     0.076 C 
HETATM    8  C6  UNL     1      18.226  91.794  32.949  1.00  0.00     0.024 C 
HETATM    9  C7  UNL     1      17.147  90.785  33.277  1.00  0.00     0.002 C 
HETATM   10  C8  UNL     1      16.717  91.086  34.695  1.00  0.00     0.002 C 
HETATM   11  C9  UNL     1      17.663  92.120  35.218  1.00  0.00     0.024 C 
ENDBRANCH   1   7
TORSDOF 4
ENDMDL
MODEL 5
REMARK VINA RESULT: -5.511061527      1.640      4.680
REMARK  4 active torsions:
REMARK  status: ('A' for Active; 'I' for Inactive)
REMARK    1  A    between atoms: C2_2  and  C3_3 
REMARK    2  A    between atoms: C3_3  and  C4_4 
REMARK    3  A    between atoms: C4_4  and  N1_5 
REMARK    4  A    between atoms: N1_5  and  C5_7 
ROOT
HETATM    1  N1  UNL     1      16.767  94.438  33.943  1.00  0.00    -0.417 N 
ATOM      2  H1  UNL     1      15.809  94.684  33.696  1.00  0.00     0.153 HD
ENDROOT
BRANCH   1   3
HETATM    3  C4  UNL     1      17.885  95.277  33.630  1.00  0.00     0.118 C 
BRANCH   3   4
HETATM    4  C3  UNL     1      17.415  96.664  33.201  1.00  0.00     0.045 C 
BRANCH   4   5
HETATM    5  C2  UNL     1      15.950  96.738  33.108  1.00  0.00    -0.035 C 
HETATM    6  C1  UNL     1      15.244  97.675  33.753  1.00  0.00     0.007 C 
ENDBRANCH   4   5
ENDBRANCH   3   4
ENDBRANCH   1   3
BRANCH   1   7
HETATM    7  C5  UNL     1      17.097  93.229  34.627  1.00  0.00     0.076 C 
HETATM    8  C6  UNL     1      18.451  93.204  35.240  1.00  0.00     0.024 C 
HETATM    9  C7  UNL     1      18.862  91.748  35.251  1.00  0.00     0.002 C 
HETATM   10  C8  UNL     1      18.101  91.093  34.120  1.00  0.00     0.002 C 
HETATM   11  C9  UNL     1      17.141  92.118  33.603  1.00  0.00     0.024 C 
ENDBRANCH   1   7
TORSDOF 4
ENDMDL
