MODEL 1
REMARK VINA RESULT: -6.641483069      0.000      0.000
REMARK  4 active torsions:
REMARK  status: ('A' for Active; 'I' for Inactive)
REMARK    1  A    between atoms: C2_2  and  C3_3 
REMARK    2  A    between atoms: C3_3  and  N1_4 
REMARK    3  A    between atoms: N1_4  and  C4_7 
REMARK    4  A    between atoms: C4_7  and  C5_8 
ROOT
HETATM    1  N1  UNL     1      17.999  92.390  34.980  1.00  0.00    -0.069 N 
ATOM      2  H11 UNL     1      18.643  92.012  35.675  1.00  0.00     0.277 HD
ATOM      3  H12 UNL     1      17.583  93.111  35.569  1.00  0.00     0.277 HD
ENDROOT
BRANCH   1   4
HETATM    4  C3  UNL     1      17.030  91.409  34.502  1.00  0.00     0.259 C 
BRANCH   4   5
HETATM    5  C2  UNL     1      17.474  90.976  33.161  1.00  0.00    -0.010 C 
HETATM    6  C1  UNL     1      16.623  90.500  32.258  1.00  0.00     0.008 C 
ENDBRANCH   4   5
ENDBRANCH   1   4
BRANCH   1   7
HETATM    7  C4  UNL     1      18.672  92.926  33.808  1.00  0.00     0.260 C 
BRANCH   7   8
HETATM    8  C5  UNL     1      18.754  94.401  33.968  1.00  0.00     0.003 C 
HETATM    9  C6  UNL     1      17.704  95.185  33.760  1.00  0.00    -0.082 C 
HETATM   10  C7  UNL     1      16.290  94.964  33.364  1.00  0.00     0.034 C 
HETATM   11  C9  UNL     1      17.407  96.639  33.818  1.00  0.00     0.034 C 
HETATM   12  C8  UNL     1      16.222  96.384  32.912  1.00  0.00     0.009 C 
ENDBRANCH   7   8
ENDBRANCH   1   7
TORSDOF 4
ENDMDL
MODEL 2
REMARK VINA RESULT: -6.532021572      1.019      1.474
REMARK  4 active torsions:
REMARK  status: ('A' for Active; 'I' for Inactive)
REMARK    1  A    between atoms: C2_2  and  C3_3 
REMARK    2  A    between atoms: C3_3  and  N1_4 
REMARK    3  A    between atoms: N1_4  and  C4_7 
REMARK    4  A    between atoms: C4_7  and  C5_8 
ROOT
HETATM    1  N1  UNL     1      17.089  91.583  34.921  1.00  0.00    -0.069 N 
ATOM      2  H11 UNL     1      17.215  91.068  35.793  1.00  0.00     0.277 HD
ATOM      3  H12 UNL     1      16.078  91.469  34.849  1.00  0.00     0.277 HD
ENDROOT
BRANCH   1   4
HETATM    4  C3  UNL     1      17.815  90.997  33.799  1.00  0.00     0.259 C 
BRANCH   4   5
HETATM    5  C2  UNL     1      16.823  90.708  32.742  1.00  0.00    -0.010 C 
HETATM    6  C1  UNL     1      17.103  89.914  31.715  1.00  0.00     0.008 C 
ENDBRANCH   4   5
ENDBRANCH   1   4
BRANCH   1   7
HETATM    7  C4  UNL     1      17.502  92.974  35.014  1.00  0.00     0.260 C 
BRANCH   7   8
HETATM    8  C5  UNL     1      16.456  93.802  34.361  1.00  0.00     0.003 C 
HETATM    9  C6  UNL     1      16.756  94.917  33.706  1.00  0.00    -0.082 C 
HETATM   10  C7  UNL     1      18.009  95.655  33.408  1.00  0.00     0.034 C 
HETATM   11  C9  UNL     1      16.019  95.966  32.955  1.00  0.00     0.034 C 
HETATM   12  C8  UNL     1      17.198  96.887  33.181  1.00  0.00     0.009 C 
ENDBRANCH   7   8
ENDBRANCH   1   7
TORSDOF 4
ENDMDL
MODEL 3
REMARK VINA RESULT: -5.855793827      1.414      2.232
REMARK  4 active torsions:
REMARK  status: ('A' for Active; 'I' for Inactive)
REMARK    1  A    between atoms: C2_2  and  C3_3 
REMARK    2  A    between atoms: C3_3  and  N1_4 
REMARK    3  A    between atoms: N1_4  and  C4_7 
REMARK    4  A    between atoms: C4_7  and  C5_8 
ROOT
HETATM    1  N1  UNL     1      17.683  92.598  35.316  1.00  0.00    -0.069 N 
ATOM      2  H11 UNL     1      17.051  93.264  35.760  1.00  0.00     0.277 HD
ATOM      3  H12 UNL     1      17.098  91.771  35.426  1.00  0.00     0.277 HD
ENDROOT
BRANCH   1   4
HETATM    4  C3  UNL     1      18.969  92.486  35.999  1.00  0.00     0.259 C 
BRANCH   4   5
HETATM    5  C2  UNL     1      19.887  91.776  35.084  1.00  0.00    -0.010 C 
HETATM    6  C1  UNL     1      21.190  92.032  35.058  1.00  0.00     0.008 C 
ENDBRANCH   4   5
ENDBRANCH   1   4
BRANCH   1   7
HETATM    7  C4  UNL     1      17.968  92.917  33.927  1.00  0.00     0.260 C 
BRANCH   7   8
HETATM    8  C5  UNL     1      18.358  94.349  33.862  1.00  0.00     0.003 C 
HETATM    9  C6  UNL     1      17.462  95.308  33.667  1.00  0.00    -0.082 C 
HETATM   10  C7  UNL     1      15.990  95.348  33.474  1.00  0.00     0.034 C 
HETATM   11  C9  UNL     1      17.466  96.790  33.550  1.00  0.00     0.034 C 
HETATM   12  C8  UNL     1      16.136  96.688  32.834  1.00  0.00     0.009 C 
ENDBRANCH   7   8
ENDBRANCH   1   7
TORSDOF 4
ENDMDL
MODEL 4
REMARK VINA RESULT: -5.719549570      1.484      2.517
REMARK  4 active torsions:
REMARK  status: ('A' for Active; 'I' for Inactive)
REMARK    1  A    between atoms: C2_2  and  C3_3 
REMARK    2  A    between atoms: C3_3  and  N1_4 
REMARK    3  A    between atoms: N1_4  and  C4_7 
REMARK    4  A    between atoms: C4_7  and  C5_8 
ROOT
HETATM    1  N1  UNL     1      17.573  92.659  35.699  1.00  0.00    -0.069 N 
ATOM      2  H11 UNL     1      17.289  93.535  36.139  1.00  0.00     0.277 HD
ATOM      3  H12 UNL     1      16.848  92.069  36.106  1.00  0.00     0.277 HD
ENDROOT
BRANCH   1   4
HETATM    4  C3  UNL     1      18.924  92.245  36.065  1.00  0.00     0.259 C 
BRANCH   4   5
HETATM    5  C2  UNL     1      19.772  92.419  34.868  1.00  0.00    -0.010 C 
HETATM    6  C1  UNL     1      21.068  92.126  34.877  1.00  0.00     0.008 C 
ENDBRANCH   4   5
ENDBRANCH   1   4
BRANCH   1   7
HETATM    7  C4  UNL     1      17.524  92.705  34.247  1.00  0.00     0.260 C 
BRANCH   7   8
HETATM    8  C5  UNL     1      16.454  93.661  33.860  1.00  0.00     0.003 C 
HETATM    9  C6  UNL     1      16.731  94.905  33.488  1.00  0.00    -0.082 C 
HETATM   10  C7  UNL     1      17.973  95.703  33.331  1.00  0.00     0.034 C 
HETATM   11  C9  UNL     1      15.968  96.101  33.047  1.00  0.00     0.034 C 
HETATM   12  C8  UNL     1      17.157  96.947  33.446  1.00  0.00     0.009 C 
ENDBRANCH   7   8
ENDBRANCH   1   7
TORSDOF 4
ENDMDL
MODEL 5
REMARK VINA RESULT: -5.656667137      1.150      1.477
REMARK  4 active torsions:
REMARK  status: ('A' for Active; 'I' for Inactive)
REMARK    1  A    between atoms: C2_2  and  C3_3 
REMARK    2  A    between atoms: C3_3  and  N1_4 
REMARK    3  A    between atoms: N1_4  and  C4_7 
REMARK    4  A    between atoms: C4_7  and  C5_8 
ROOT
HETATM    1  N1  UNL     1      16.597  91.624  33.459  1.00  0.00    -0.069 N 
ATOM      2  H11 UNL     1      15.670  91.327  33.766  1.00  0.00     0.277 HD
ATOM      3  H12 UNL     1      16.291  92.265  32.728  1.00  0.00     0.277 HD
ENDROOT
BRANCH   1   4
HETATM    4  C3  UNL     1      17.415  90.526  32.955  1.00  0.00     0.259 C 
BRANCH   4   5
HETATM    5  C2  UNL     1      16.740  89.996  31.752  1.00  0.00    -0.010 C 
HETATM    6  C1  UNL     1      17.296  89.063  30.988  1.00  0.00     0.008 C 
ENDBRANCH   4   5
ENDBRANCH   1   4
BRANCH   1   7
HETATM    7  C4  UNL     1      17.364  92.278  34.507  1.00  0.00     0.260 C 
BRANCH   7   8
HETATM    8  C5  UNL     1      18.053  93.447  33.903  1.00  0.00     0.003 C 
HETATM    9  C6  UNL     1      17.444  94.616  33.756  1.00  0.00    -0.082 C 
HETATM   10  C7  UNL     1      16.092  95.144  34.070  1.00  0.00     0.034 C 
HETATM   11  C9  UNL     1      17.787  95.960  33.221  1.00  0.00     0.034 C 
HETATM   12  C8  UNL     1      16.305  96.221  33.060  1.00  0.00     0.009 C 
ENDBRANCH   7   8
ENDBRANCH   1   7
TORSDOF 4
ENDMDL
