MODEL 1
REMARK VINA RESULT: -10.629896699      0.000      0.000
REMARK  14 active torsions:
REMARK  status: ('A' for Active; 'I' for Inactive)
REMARK    1  A    between atoms: C2_2  and  C3_3 
REMARK    2  A    between atoms: C5_5  and  C6_6 
REMARK    3  A    between atoms: C6_6  and  C7_7 
REMARK    4  A    between atoms: C8_8  and  C9_9 
REMARK    5  A    between atoms: C9_9  and  C11_11 
REMARK    6  A    between atoms: C11_11  and  C12_12 
REMARK    7  A    between atoms: C12_12  and  C13_13 
REMARK    8  A    between atoms: C13_13  and  C14_14 
REMARK    9  A    between atoms: C15_15  and  C17_17 
REMARK   10  A    between atoms: C17_17  and  C18_18 
REMARK   11  A    between atoms: C18_18  and  C19_19 
REMARK   12  A    between atoms: C20_20  and  C22_22 
REMARK   13  A    between atoms: C22_22  and  O1_23 
REMARK   14  A    between atoms: C30_34  and  O4_36 
ROOT
HETATM    1  C13 UNL     1       3.195  68.921  68.847  1.00  0.00     0.054 C 
ENDROOT
BRANCH   1   2
HETATM    2  C12 UNL     1       3.611  70.432  68.987  1.00  0.00    -0.022 C 
BRANCH   2   3
HETATM    3  C11 UNL     1       4.923  70.718  68.698  1.00  0.00     0.003 C 
BRANCH   3   4
HETATM    4  C9  UNL     1       5.686  70.013  67.829  1.00  0.00    -0.063 C 
HETATM    5  C10 UNL     1       7.173  70.766  68.652  1.00  0.00     0.048 C 
BRANCH   4   6
HETATM    6  C8  UNL     1       6.422  69.342  67.013  1.00  0.00     0.003 C 
HETATM    7  C7  UNL     1       6.588  69.097  65.755  1.00  0.00    -0.026 C 
BRANCH   7   8
HETATM    8  C6  UNL     1       5.969  69.489  64.501  1.00  0.00     0.031 C 
BRANCH   8   9
HETATM    9  C5  UNL     1       4.987  68.355  64.084  1.00  0.00    -0.008 C 
HETATM   10  C4  UNL     1       3.752  68.535  64.956  1.00  0.00     0.009 C 
HETATM   11  C3  UNL     1       2.713  67.510  64.684  1.00  0.00    -0.012 C 
HETATM   12  C32 UNL     1       2.421  67.296  63.242  1.00  0.00     0.042 C 
HETATM   13  C30 UNL     1       3.459  67.699  62.252  1.00  0.00     0.055 C 
HETATM   14  C29 UNL     1       4.443  68.727  62.697  1.00  0.00     0.042 C 
HETATM   15  C31 UNL     1       2.655  68.422  61.118  1.00  0.00     0.045 C 
BRANCH  11  16
HETATM   16  C2  UNL     1       2.825  66.235  65.471  1.00  0.00     0.000 C 
HETATM   17  C1  UNL     1       3.257  65.057  64.719  1.00  0.00     0.005 C 
ENDBRANCH  11  16
BRANCH  13  18
HETATM   18  O4  UNL     1       4.042  66.593  61.619  1.00  0.00    -0.390 OA
ATOM     19  H4  UNL     1       3.942  65.779  62.099  1.00  0.00     0.210 HD
ENDBRANCH  13  18
ENDBRANCH   8   9
ENDBRANCH   7   8
ENDBRANCH   4   6
ENDBRANCH   3   4
ENDBRANCH   2   3
ENDBRANCH   1   2
BRANCH   1  20
HETATM   20  C14 UNL     1       1.888  69.190  68.288  1.00  0.00    -0.021 C 
HETATM   21  C15 UNL     1       0.976  68.304  68.030  1.00  0.00    -0.087 C 
HETATM   22  C16 UNL     1      -0.315  68.827  67.423  1.00  0.00     0.043 C 
BRANCH  21  23
HETATM   23  C17 UNL     1       0.987  66.876  68.245  1.00  0.00     0.037 C 
BRANCH  23  24
HETATM   24  C18 UNL     1       0.887  66.568  69.724  1.00  0.00     0.032 C 
BRANCH  24  25
HETATM   25  C19 UNL     1       1.236  65.162  69.925  1.00  0.00    -0.020 C 
HETATM   26  C20 UNL     1       0.588  64.409  70.790  1.00  0.00    -0.040 C 
HETATM   27  C21 UNL     1      -0.520  64.903  71.610  1.00  0.00     0.047 C 
BRANCH  26  28
HETATM   28  C22 UNL     1       1.198  63.050  71.036  1.00  0.00     0.187 C 
HETATM   29  C23 UNL     1       2.624  63.028  71.352  1.00  0.00     0.025 C 
HETATM   30  C24 UNL     1       3.509  62.339  70.628  1.00  0.00     0.010 C 
HETATM   31  C25 UNL     1       3.071  61.559  69.461  1.00  0.00     0.081 C 
HETATM   32  C26 UNL     1       3.963  60.340  69.321  1.00  0.00     0.051 C 
HETATM   33  C27 UNL     1       3.148  62.295  68.143  1.00  0.00     0.051 C 
HETATM   34  O2  UNL     1       1.710  61.132  69.611  1.00  0.00    -0.304 OA
HETATM   35  C28 UNL     1       0.793  62.101  69.965  1.00  0.00     0.303 C 
HETATM   36  O3  UNL     1      -0.357  62.245  69.465  1.00  0.00    -0.261 OA
BRANCH  28  37
HETATM   37  O1  UNL     1       0.570  62.501  72.209  1.00  0.00    -0.372 OA
ATOM     38  H1  UNL     1       1.254  62.113  72.743  1.00  0.00     0.212 HD
ENDBRANCH  28  37
ENDBRANCH  26  28
ENDBRANCH  24  25
ENDBRANCH  23  24
ENDBRANCH  21  23
ENDBRANCH   1  20
TORSDOF 14
ENDMDL
MODEL 2
REMARK VINA RESULT: -10.573386336      1.505      2.430
REMARK  14 active torsions:
REMARK  status: ('A' for Active; 'I' for Inactive)
REMARK    1  A    between atoms: C2_2  and  C3_3 
REMARK    2  A    between atoms: C5_5  and  C6_6 
REMARK    3  A    between atoms: C6_6  and  C7_7 
REMARK    4  A    between atoms: C8_8  and  C9_9 
REMARK    5  A    between atoms: C9_9  and  C11_11 
REMARK    6  A    between atoms: C11_11  and  C12_12 
REMARK    7  A    between atoms: C12_12  and  C13_13 
REMARK    8  A    between atoms: C13_13  and  C14_14 
REMARK    9  A    between atoms: C15_15  and  C17_17 
REMARK   10  A    between atoms: C17_17  and  C18_18 
REMARK   11  A    between atoms: C18_18  and  C19_19 
REMARK   12  A    between atoms: C20_20  and  C22_22 
REMARK   13  A    between atoms: C22_22  and  O1_23 
REMARK   14  A    between atoms: C30_34  and  O4_36 
ROOT
HETATM    1  C13 UNL     1       1.651  67.482  66.831  1.00  0.00     0.054 C 
ENDROOT
BRANCH   1   2
HETATM    2  C12 UNL     1       1.575  68.940  67.418  1.00  0.00    -0.022 C 
BRANCH   2   3
HETATM    3  C11 UNL     1       2.635  69.322  68.203  1.00  0.00     0.003 C 
BRANCH   3   4
HETATM    4  C9  UNL     1       3.922  69.368  67.781  1.00  0.00    -0.063 C 
HETATM    5  C10 UNL     1       4.280  70.439  69.259  1.00  0.00     0.048 C 
BRANCH   4   6
HETATM    6  C8  UNL     1       5.149  69.414  67.395  1.00  0.00     0.003 C 
HETATM    7  C7  UNL     1       5.886  69.376  66.333  1.00  0.00    -0.026 C 
BRANCH   7   8
HETATM    8  C6  UNL     1       5.686  69.249  64.900  1.00  0.00     0.031 C 
BRANCH   8   9
HETATM    9  C5  UNL     1       4.472  68.300  64.675  1.00  0.00    -0.008 C 
HETATM   10  C4  UNL     1       3.920  68.653  63.302  1.00  0.00     0.009 C 
HETATM   11  C3  UNL     1       2.735  67.834  62.940  1.00  0.00    -0.012 C 
HETATM   12  C32 UNL     1       2.899  66.376  63.180  1.00  0.00     0.042 C 
HETATM   13  C30 UNL     1       3.933  65.941  64.162  1.00  0.00     0.055 C 
HETATM   14  C29 UNL     1       5.045  66.897  64.427  1.00  0.00     0.042 C 
HETATM   15  C31 UNL     1       4.643  64.730  63.467  1.00  0.00     0.045 C 
BRANCH  11  16
HETATM   16  C2  UNL     1       1.404  68.371  63.381  1.00  0.00     0.000 C 
HETATM   17  C1  UNL     1       0.552  68.914  62.323  1.00  0.00     0.005 C 
ENDBRANCH  11  16
BRANCH  13  18
HETATM   18  O4  UNL     1       3.364  65.397  65.320  1.00  0.00    -0.390 OA
ATOM     19  H4  UNL     1       2.807  64.644  65.159  1.00  0.00     0.210 HD
ENDBRANCH  13  18
ENDBRANCH   8   9
ENDBRANCH   7   8
ENDBRANCH   4   6
ENDBRANCH   3   4
ENDBRANCH   2   3
ENDBRANCH   1   2
BRANCH   1  20
HETATM   20  C14 UNL     1       0.304  67.112  67.213  1.00  0.00    -0.021 C 
HETATM   21  C15 UNL     1      -0.050  66.613  68.357  1.00  0.00    -0.087 C 
HETATM   22  C16 UNL     1      -1.524  66.284  68.519  1.00  0.00     0.043 C 
BRANCH  21  23
HETATM   23  C17 UNL     1       0.747  66.328  69.528  1.00  0.00     0.037 C 
BRANCH  23  24
HETATM   24  C18 UNL     1      -0.001  65.394  70.456  1.00  0.00     0.032 C 
BRANCH  24  25
HETATM   25  C19 UNL     1       0.814  64.194  70.654  1.00  0.00    -0.020 C 
HETATM   26  C20 UNL     1       0.312  62.988  70.488  1.00  0.00    -0.040 C 
HETATM   27  C21 UNL     1      -1.078  62.744  70.095  1.00  0.00     0.047 C 
BRANCH  26  28
HETATM   28  C22 UNL     1       1.209  61.857  70.932  1.00  0.00     0.187 C 
HETATM   29  C23 UNL     1       1.959  62.072  72.166  1.00  0.00     0.025 C 
HETATM   30  C24 UNL     1       3.290  62.001  72.218  1.00  0.00     0.010 C 
HETATM   31  C25 UNL     1       4.069  61.697  71.008  1.00  0.00     0.081 C 
HETATM   32  C26 UNL     1       5.311  60.921  71.405  1.00  0.00     0.051 C 
HETATM   33  C27 UNL     1       4.550  62.908  70.244  1.00  0.00     0.051 C 
HETATM   34  O2  UNL     1       3.298  60.912  70.087  1.00  0.00    -0.304 OA
HETATM   35  C28 UNL     1       2.032  61.373  69.791  1.00  0.00     0.303 C 
HETATM   36  O3  UNL     1       1.512  61.412  68.641  1.00  0.00    -0.261 OA
BRANCH  28  37
HETATM   37  O1  UNL     1       0.366  60.727  71.225  1.00  0.00    -0.372 OA
ATOM     38  H1  UNL     1      -0.481  61.065  71.490  1.00  0.00     0.212 HD
ENDBRANCH  28  37
ENDBRANCH  26  28
ENDBRANCH  24  25
ENDBRANCH  23  24
ENDBRANCH  21  23
ENDBRANCH   1  20
TORSDOF 14
ENDMDL
MODEL 3
REMARK VINA RESULT: -10.460183114      1.229      1.909
REMARK  14 active torsions:
REMARK  status: ('A' for Active; 'I' for Inactive)
REMARK    1  A    between atoms: C2_2  and  C3_3 
REMARK    2  A    between atoms: C5_5  and  C6_6 
REMARK    3  A    between atoms: C6_6  and  C7_7 
REMARK    4  A    between atoms: C8_8  and  C9_9 
REMARK    5  A    between atoms: C9_9  and  C11_11 
REMARK    6  A    between atoms: C11_11  and  C12_12 
REMARK    7  A    between atoms: C12_12  and  C13_13 
REMARK    8  A    between atoms: C13_13  and  C14_14 
REMARK    9  A    between atoms: C15_15  and  C17_17 
REMARK   10  A    between atoms: C17_17  and  C18_18 
REMARK   11  A    between atoms: C18_18  and  C19_19 
REMARK   12  A    between atoms: C20_20  and  C22_22 
REMARK   13  A    between atoms: C22_22  and  O1_23 
REMARK   14  A    between atoms: C30_34  and  O4_36 
ROOT
HETATM    1  C13 UNL     1       2.805  68.523  68.393  1.00  0.00     0.054 C 
ENDROOT
BRANCH   1   2
HETATM    2  C12 UNL     1       3.212  69.966  68.871  1.00  0.00    -0.022 C 
BRANCH   2   3
HETATM    3  C11 UNL     1       4.476  70.375  68.519  1.00  0.00     0.003 C 
BRANCH   3   4
HETATM    4  C9  UNL     1       5.227  69.794  67.553  1.00  0.00    -0.063 C 
HETATM    5  C10 UNL     1       6.696  70.662  68.290  1.00  0.00     0.048 C 
BRANCH   4   6
HETATM    6  C8  UNL     1       5.952  69.241  66.645  1.00  0.00     0.003 C 
HETATM    7  C7  UNL     1       5.946  68.914  65.394  1.00  0.00    -0.026 C 
BRANCH   7   8
HETATM    8  C6  UNL     1       5.031  69.010  64.270  1.00  0.00     0.031 C 
BRANCH   8   9
HETATM    9  C5  UNL     1       3.753  68.197  64.632  1.00  0.00    -0.008 C 
HETATM   10  C4  UNL     1       2.903  68.179  63.369  1.00  0.00     0.009 C 
HETATM   11  C3  UNL     1       1.627  67.442  63.556  1.00  0.00    -0.012 C 
HETATM   12  C32 UNL     1       1.772  66.119  64.218  1.00  0.00     0.042 C 
HETATM   13  C30 UNL     1       2.990  65.880  65.043  1.00  0.00     0.055 C 
HETATM   14  C29 UNL     1       4.179  66.726  64.739  1.00  0.00     0.042 C 
HETATM   15  C31 UNL     1       3.450  64.436  64.647  1.00  0.00     0.045 C 
BRANCH  11  16
HETATM   16  C2  UNL     1       0.470  68.250  64.071  1.00  0.00     0.000 C 
HETATM   17  C1  UNL     1      -0.576  68.561  63.096  1.00  0.00     0.005 C 
ENDBRANCH  11  16
BRANCH  13  18
HETATM   18  O4  UNL     1       2.692  65.791  66.409  1.00  0.00    -0.390 OA
ATOM     19  H4  UNL     1       2.309  66.582  66.771  1.00  0.00     0.210 HD
ENDBRANCH  13  18
ENDBRANCH   8   9
ENDBRANCH   7   8
ENDBRANCH   4   6
ENDBRANCH   3   4
ENDBRANCH   2   3
ENDBRANCH   1   2
BRANCH   1  20
HETATM   20  C14 UNL     1       1.494  68.905  67.913  1.00  0.00    -0.021 C 
HETATM   21  C15 UNL     1       0.444  68.142  67.886  1.00  0.00    -0.087 C 
HETATM   22  C16 UNL     1      -0.821  68.761  67.317  1.00  0.00     0.043 C 
BRANCH  21  23
HETATM   23  C17 UNL     1       0.281  66.777  68.332  1.00  0.00     0.037 C 
BRANCH  23  24
HETATM   24  C18 UNL     1       0.841  66.613  69.729  1.00  0.00     0.032 C 
BRANCH  24  25
HETATM   25  C19 UNL     1       1.188  65.204  69.921  1.00  0.00    -0.020 C 
HETATM   26  C20 UNL     1       0.553  64.453  70.797  1.00  0.00    -0.040 C 
HETATM   27  C21 UNL     1      -0.538  64.951  71.638  1.00  0.00     0.047 C 
BRANCH  26  28
HETATM   28  C22 UNL     1       1.160  63.091  71.030  1.00  0.00     0.187 C 
HETATM   29  C23 UNL     1       2.588  63.062  71.337  1.00  0.00     0.025 C 
HETATM   30  C24 UNL     1       3.467  62.377  70.603  1.00  0.00     0.010 C 
HETATM   31  C25 UNL     1       3.020  61.607  69.432  1.00  0.00     0.081 C 
HETATM   32  C26 UNL     1       3.909  60.386  69.279  1.00  0.00     0.051 C 
HETATM   33  C27 UNL     1       3.092  62.353  68.120  1.00  0.00     0.051 C 
HETATM   34  O2  UNL     1       1.659  61.182  69.587  1.00  0.00    -0.304 OA
HETATM   35  C28 UNL     1       0.747  62.151  69.953  1.00  0.00     0.303 C 
HETATM   36  O3  UNL     1      -0.406  62.302  69.460  1.00  0.00    -0.261 OA
BRANCH  28  37
HETATM   37  O1  UNL     1       0.537  62.534  72.202  1.00  0.00    -0.372 OA
ATOM     38  H1  UNL     1       0.931  61.684  72.357  1.00  0.00     0.212 HD
ENDBRANCH  28  37
ENDBRANCH  26  28
ENDBRANCH  24  25
ENDBRANCH  23  24
ENDBRANCH  21  23
ENDBRANCH   1  20
TORSDOF 14
ENDMDL
MODEL 4
REMARK VINA RESULT: -10.406618675      1.509      2.138
REMARK  14 active torsions:
REMARK  status: ('A' for Active; 'I' for Inactive)
REMARK    1  A    between atoms: C2_2  and  C3_3 
REMARK    2  A    between atoms: C5_5  and  C6_6 
REMARK    3  A    between atoms: C6_6  and  C7_7 
REMARK    4  A    between atoms: C8_8  and  C9_9 
REMARK    5  A    between atoms: C9_9  and  C11_11 
REMARK    6  A    between atoms: C11_11  and  C12_12 
REMARK    7  A    between atoms: C12_12  and  C13_13 
REMARK    8  A    between atoms: C13_13  and  C14_14 
REMARK    9  A    between atoms: C15_15  and  C17_17 
REMARK   10  A    between atoms: C17_17  and  C18_18 
REMARK   11  A    between atoms: C18_18  and  C19_19 
REMARK   12  A    between atoms: C20_20  and  C22_22 
REMARK   13  A    between atoms: C22_22  and  O1_23 
REMARK   14  A    between atoms: C30_34  and  O4_36 
ROOT
HETATM    1  C13 UNL     1       2.267  69.222  68.626  1.00  0.00     0.054 C 
ENDROOT
BRANCH   1   2
HETATM    2  C12 UNL     1       2.936  68.891  67.241  1.00  0.00    -0.022 C 
BRANCH   2   3
HETATM    3  C11 UNL     1       4.258  69.243  67.118  1.00  0.00     0.003 C 
BRANCH   3   4
HETATM    4  C9  UNL     1       5.033  68.945  66.048  1.00  0.00    -0.063 C 
HETATM    5  C10 UNL     1       6.425  69.818  66.919  1.00  0.00     0.048 C 
BRANCH   4   6
HETATM    6  C8  UNL     1       5.782  68.661  65.040  1.00  0.00     0.003 C 
HETATM    7  C7  UNL     1       5.744  68.480  63.761  1.00  0.00    -0.026 C 
BRANCH   7   8
HETATM    8  C6  UNL     1       4.743  68.507  62.709  1.00  0.00     0.031 C 
BRANCH   8   9
HETATM    9  C5  UNL     1       3.626  67.493  63.095  1.00  0.00    -0.008 C 
HETATM   10  C4  UNL     1       4.109  66.809  64.366  1.00  0.00     0.009 C 
HETATM   11  C3  UNL     1       3.148  65.791  64.862  1.00  0.00    -0.012 C 
HETATM   12  C32 UNL     1       1.735  66.253  64.910  1.00  0.00     0.042 C 
HETATM   13  C30 UNL     1       1.345  67.403  64.048  1.00  0.00     0.055 C 
HETATM   14  C29 UNL     1       2.441  68.317  63.619  1.00  0.00     0.042 C 
HETATM   15  C31 UNL     1       0.456  68.300  64.975  1.00  0.00     0.045 C 
BRANCH  11  16
HETATM   16  C2  UNL     1       3.310  64.406  64.304  1.00  0.00     0.000 C 
HETATM   17  C1  UNL     1       4.639  64.077  63.789  1.00  0.00     0.005 C 
ENDBRANCH  11  16
BRANCH  13  18
HETATM   18  O4  UNL     1       0.490  67.016  63.008  1.00  0.00    -0.390 OA
ATOM     19  H4  UNL     1       0.092  66.163  63.134  1.00  0.00     0.210 HD
ENDBRANCH  13  18
ENDBRANCH   8   9
ENDBRANCH   7   8
ENDBRANCH   4   6
ENDBRANCH   3   4
ENDBRANCH   2   3
ENDBRANCH   1   2
BRANCH   1  20
HETATM   20  C14 UNL     1       1.007  68.576  68.327  1.00  0.00    -0.021 C 
HETATM   21  C15 UNL     1       0.690  67.355  68.630  1.00  0.00    -0.087 C 
HETATM   22  C16 UNL     1      -0.689  66.891  68.192  1.00  0.00     0.043 C 
BRANCH  21  23
HETATM   23  C17 UNL     1       1.447  66.353  69.344  1.00  0.00     0.037 C 
BRANCH  23  24
HETATM   24  C18 UNL     1       0.523  65.507  70.196  1.00  0.00     0.032 C 
BRANCH  24  25
HETATM   25  C19 UNL     1       1.179  64.223  70.447  1.00  0.00    -0.020 C 
HETATM   26  C20 UNL     1       0.504  63.092  70.430  1.00  0.00    -0.040 C 
HETATM   27  C21 UNL     1      -0.933  63.019  70.160  1.00  0.00     0.047 C 
BRANCH  26  28
HETATM   28  C22 UNL     1       1.271  61.884  70.914  1.00  0.00     0.187 C 
HETATM   29  C23 UNL     1       2.000  62.041  72.170  1.00  0.00     0.025 C 
HETATM   30  C24 UNL     1       3.316  61.840  72.266  1.00  0.00     0.010 C 
HETATM   31  C25 UNL     1       4.098  61.445  71.085  1.00  0.00     0.081 C 
HETATM   32  C26 UNL     1       5.245  60.556  71.530  1.00  0.00     0.051 C 
HETATM   33  C27 UNL     1       4.720  62.593  70.325  1.00  0.00     0.051 C 
HETATM   34  O2  UNL     1       3.283  60.728  70.148  1.00  0.00    -0.304 OA
HETATM   35  C28 UNL     1       2.078  61.307  69.806  1.00  0.00     0.303 C 
HETATM   36  O3  UNL     1       1.601  61.382  68.639  1.00  0.00    -0.261 OA
BRANCH  28  37
HETATM   37  O1  UNL     1       0.313  60.847  71.191  1.00  0.00    -0.372 OA
ATOM     38  H1  UNL     1      -0.244  60.762  70.426  1.00  0.00     0.212 HD
ENDBRANCH  28  37
ENDBRANCH  26  28
ENDBRANCH  24  25
ENDBRANCH  23  24
ENDBRANCH  21  23
ENDBRANCH   1  20
TORSDOF 14
ENDMDL
MODEL 5
REMARK VINA RESULT: -10.080295007      1.691      4.140
REMARK  14 active torsions:
REMARK  status: ('A' for Active; 'I' for Inactive)
REMARK    1  A    between atoms: C2_2  and  C3_3 
REMARK    2  A    between atoms: C5_5  and  C6_6 
REMARK    3  A    between atoms: C6_6  and  C7_7 
REMARK    4  A    between atoms: C8_8  and  C9_9 
REMARK    5  A    between atoms: C9_9  and  C11_11 
REMARK    6  A    between atoms: C11_11  and  C12_12 
REMARK    7  A    between atoms: C12_12  and  C13_13 
REMARK    8  A    between atoms: C13_13  and  C14_14 
REMARK    9  A    between atoms: C15_15  and  C17_17 
REMARK   10  A    between atoms: C17_17  and  C18_18 
REMARK   11  A    between atoms: C18_18  and  C19_19 
REMARK   12  A    between atoms: C20_20  and  C22_22 
REMARK   13  A    between atoms: C22_22  and  O1_23 
REMARK   14  A    between atoms: C30_34  and  O4_36 
ROOT
HETATM    1  C13 UNL     1       1.847  66.485  66.341  1.00  0.00     0.054 C 
ENDROOT
BRANCH   1   2
HETATM    2  C12 UNL     1       1.694  66.302  64.786  1.00  0.00    -0.022 C 
BRANCH   2   3
HETATM    3  C11 UNL     1       1.769  67.453  64.040  1.00  0.00     0.003 C 
BRANCH   3   4
HETATM    4  C9  UNL     1       2.928  68.054  63.677  1.00  0.00    -0.063 C 
HETATM    5  C10 UNL     1       2.119  68.437  62.047  1.00  0.00     0.048 C 
BRANCH   4   6
HETATM    6  C8  UNL     1       4.021  68.634  63.322  1.00  0.00     0.003 C 
HETATM    7  C7  UNL     1       5.219  68.892  63.734  1.00  0.00    -0.026 C 
BRANCH   7   8
HETATM    8  C6  UNL     1       6.017  68.636  64.920  1.00  0.00     0.031 C 
BRANCH   8   9
HETATM    9  C5  UNL     1       5.477  69.551  66.058  1.00  0.00    -0.008 C 
HETATM   10  C4  UNL     1       4.664  68.642  66.969  1.00  0.00     0.009 C 
HETATM   11  C3  UNL     1       4.064  69.376  68.112  1.00  0.00    -0.012 C 
HETATM   12  C32 UNL     1       5.006  70.279  68.826  1.00  0.00     0.042 C 
HETATM   13  C30 UNL     1       6.219  70.742  68.096  1.00  0.00     0.055 C 
HETATM   14  C29 UNL     1       6.675  69.897  66.955  1.00  0.00     0.042 C 
HETATM   15  C31 UNL     1       7.377  70.606  69.143  1.00  0.00     0.045 C 
BRANCH  11  16
HETATM   16  C2  UNL     1       2.714  69.987  67.867  1.00  0.00     0.000 C 
HETATM   17  C1  UNL     1       1.754  69.876  68.965  1.00  0.00     0.005 C 
ENDBRANCH  11  16
BRANCH  13  18
HETATM   18  O4  UNL     1       6.169  72.110  67.803  1.00  0.00    -0.390 OA
ATOM     19  H4  UNL     1       5.424  72.362  67.270  1.00  0.00     0.210 HD
ENDBRANCH  13  18
ENDBRANCH   8   9
ENDBRANCH   7   8
ENDBRANCH   4   6
ENDBRANCH   3   4
ENDBRANCH   2   3
ENDBRANCH   1   2
BRANCH   1  20
HETATM   20  C14 UNL     1       0.774  67.449  66.470  1.00  0.00    -0.021 C 
HETATM   21  C15 UNL     1      -0.221  67.370  67.300  1.00  0.00    -0.087 C 
HETATM   22  C16 UNL     1      -1.237  68.497  67.237  1.00  0.00     0.043 C 
BRANCH  21  23
HETATM   23  C17 UNL     1      -0.513  66.371  68.301  1.00  0.00     0.037 C 
BRANCH  23  24
HETATM   24  C18 UNL     1       0.523  66.417  69.405  1.00  0.00     0.032 C 
BRANCH  24  25
HETATM   25  C19 UNL     1       0.926  65.044  69.713  1.00  0.00    -0.020 C 
HETATM   26  C20 UNL     1       0.444  64.405  70.760  1.00  0.00    -0.040 C 
HETATM   27  C21 UNL     1      -0.520  64.999  71.687  1.00  0.00     0.047 C 
BRANCH  26  28
HETATM   28  C22 UNL     1       1.110  63.085  71.063  1.00  0.00     0.187 C 
HETATM   29  C23 UNL     1       2.541  63.132  71.349  1.00  0.00     0.025 C 
HETATM   30  C24 UNL     1       3.438  62.439  70.644  1.00  0.00     0.010 C 
HETATM   31  C25 UNL     1       3.008  61.584  69.528  1.00  0.00     0.081 C 
HETATM   32  C26 UNL     1       3.944  60.392  69.434  1.00  0.00     0.051 C 
HETATM   33  C27 UNL     1       3.032  62.251  68.172  1.00  0.00     0.051 C 
HETATM   34  O2  UNL     1       1.668  61.115  69.729  1.00  0.00    -0.304 OA
HETATM   35  C28 UNL     1       0.721  62.066  70.051  1.00  0.00     0.303 C 
HETATM   36  O3  UNL     1      -0.443  62.141  69.569  1.00  0.00    -0.261 OA
BRANCH  28  37
HETATM   37  O1  UNL     1       0.526  62.575  72.276  1.00  0.00    -0.372 OA
ATOM     38  H1  UNL     1      -0.088  63.228  72.592  1.00  0.00     0.212 HD
ENDBRANCH  28  37
ENDBRANCH  26  28
ENDBRANCH  24  25
ENDBRANCH  23  24
ENDBRANCH  21  23
ENDBRANCH   1  20
TORSDOF 14
ENDMDL
