MODEL 1
REMARK VINA RESULT: -11.614378874      0.000      0.000
REMARK  13 active torsions:
REMARK  status: ('A' for Active; 'I' for Inactive)
REMARK    1  A    between atoms: C2_2  and  C3_3 
REMARK    2  A    between atoms: C3_3  and  C4_4 
REMARK    3  A    between atoms: C4_4  and  C5_5 
REMARK    4  A    between atoms: C8_8  and  C9_9 
REMARK    5  A    between atoms: C10_10  and  C11_11 
REMARK    6  A    between atoms: C13_13  and  C14_14 
REMARK    7  A    between atoms: C15_15  and  C16_16 
REMARK    8  A    between atoms: C24_25  and  C25_26 
REMARK    9  A    between atoms: C25_26  and  O2_28 
REMARK   10  A    between atoms: C25_26  and  C27_30 
REMARK   11  A    between atoms: C27_30  and  C28_31 
REMARK   12  A    between atoms: C28_31  and  C29_32 
REMARK   13  A    between atoms: C31_35  and  O4_36 
ROOT
HETATM    1  C16 UNL     1      -0.073  64.736  71.393  1.00  0.00     0.028 C 
HETATM    2  C17 UNL     1      -1.229  64.819  72.459  1.00  0.00     0.088 C 
HETATM    3  C18 UNL     1      -0.999  63.738  73.327  1.00  0.00     0.136 C 
HETATM    4  O1  UNL     1      -1.484  63.655  74.487  1.00  0.00    -0.297 OA
HETATM    5  C19 UNL     1      -0.124  62.710  72.696  1.00  0.00     0.028 C 
HETATM    6  C20 UNL     1       0.969  62.529  73.719  1.00  0.00     0.024 C 
HETATM    7  C21 UNL     1      -1.047  61.500  72.677  1.00  0.00     0.018 C 
HETATM    8  C22 UNL     1      -1.660  61.587  71.340  1.00  0.00     0.002 C 
HETATM    9  C23 UNL     1      -0.812  62.495  70.490  1.00  0.00     0.014 C 
HETATM   10  C24 UNL     1       0.176  63.180  71.397  1.00  0.00     0.012 C 
ENDROOT
BRANCH   1  11
HETATM   11  C15 UNL     1      -0.601  65.360  70.286  1.00  0.00    -0.021 C 
HETATM   12  C14 UNL     1      -0.312  65.942  69.131  1.00  0.00    -0.003 C 
BRANCH  12  13
HETATM   13  C13 UNL     1      -1.460  66.410  68.318  1.00  0.00     0.006 C 
HETATM   14  C11 UNL     1      -1.420  67.182  67.323  1.00  0.00    -0.062 C 
HETATM   15  C12 UNL     1      -2.730  67.432  66.602  1.00  0.00     0.048 C 
BRANCH  14  16
HETATM   16  C10 UNL     1      -0.246  67.812  66.786  1.00  0.00     0.007 C 
HETATM   17  C9  UNL     1       0.845  67.082  66.487  1.00  0.00     0.002 C 
BRANCH  17  18
HETATM   18  C8  UNL     1       1.986  67.725  65.925  1.00  0.00     0.019 C 
HETATM   19  C3  UNL     1       2.847  68.483  66.614  1.00  0.00     0.004 C 
BRANCH  19  20
HETATM   20  C2  UNL     1       2.526  68.660  68.037  1.00  0.00     0.009 C 
HETATM   21  C1  UNL     1       2.719  69.752  68.711  1.00  0.00     0.013 C 
ENDBRANCH  19  20
BRANCH  19  22
HETATM   22  C4  UNL     1       4.064  68.747  65.970  1.00  0.00    -0.140 C 
BRANCH  22  23
HETATM   23  C5  UNL     1       5.122  68.994  65.408  1.00  0.00     0.049 C 
HETATM   24  C6  UNL     1       6.232  69.509  66.397  1.00  0.00     0.022 C 
HETATM   25  C7  UNL     1       5.536  68.958  64.011  1.00  0.00     0.022 C 
ENDBRANCH  22  23
ENDBRANCH  19  22
ENDBRANCH  17  18
ENDBRANCH  14  16
ENDBRANCH  12  13
ENDBRANCH   1  11
BRANCH  10  26
HETATM   26  C25 UNL     1       1.540  62.989  70.768  1.00  0.00     0.064 C 
HETATM   27  C26 UNL     1       2.284  64.192  70.409  1.00  0.00     0.046 C 
BRANCH  26  28
HETATM   28  O2  UNL     1       2.308  62.455  71.868  1.00  0.00    -0.389 OA
ATOM     29  H2  UNL     1       3.161  62.325  71.471  1.00  0.00     0.210 HD
ENDBRANCH  26  28
BRANCH  26  30
HETATM   30  C27 UNL     1       1.640  61.914  69.779  1.00  0.00     0.043 C 
BRANCH  30  31
HETATM   31  C28 UNL     1       2.957  61.448  69.304  1.00  0.00     0.043 C 
BRANCH  31  32
HETATM   32  C29 UNL     1       3.559  60.240  69.885  1.00  0.00    -0.031 A 
HETATM   33  C30 UNL     1       4.472  60.111  70.868  1.00  0.00     0.152 A 
HETATM   34  O3  UNL     1       4.689  58.837  71.098  1.00  0.00    -0.300 OA
HETATM   35  C31 UNL     1       3.959  58.101  70.309  1.00  0.00     0.183 A 
HETATM   36  C32 UNL     1       3.223  58.928  69.520  1.00  0.00     0.073 A 
BRANCH  35  37
HETATM   37  O4  UNL     1       3.959  56.691  70.295  1.00  0.00    -0.341 OA
ATOM     38  H4  UNL     1       3.459  56.155  69.690  1.00  0.00     0.220 HD
ENDBRANCH  35  37
ENDBRANCH  31  32
ENDBRANCH  30  31
ENDBRANCH  26  30
ENDBRANCH  10  26
TORSDOF 13
ENDMDL
MODEL 2
REMARK VINA RESULT: -11.593008069      0.735      1.411
REMARK  13 active torsions:
REMARK  status: ('A' for Active; 'I' for Inactive)
REMARK    1  A    between atoms: C2_2  and  C3_3 
REMARK    2  A    between atoms: C3_3  and  C4_4 
REMARK    3  A    between atoms: C4_4  and  C5_5 
REMARK    4  A    between atoms: C8_8  and  C9_9 
REMARK    5  A    between atoms: C10_10  and  C11_11 
REMARK    6  A    between atoms: C13_13  and  C14_14 
REMARK    7  A    between atoms: C15_15  and  C16_16 
REMARK    8  A    between atoms: C24_25  and  C25_26 
REMARK    9  A    between atoms: C25_26  and  O2_28 
REMARK   10  A    between atoms: C25_26  and  C27_30 
REMARK   11  A    between atoms: C27_30  and  C28_31 
REMARK   12  A    between atoms: C28_31  and  C29_32 
REMARK   13  A    between atoms: C31_35  and  O4_36 
ROOT
HETATM    1  C16 UNL     1      -0.187  64.913  71.209  1.00  0.00     0.028 C 
HETATM    2  C17 UNL     1      -1.278  64.976  72.343  1.00  0.00     0.088 C 
HETATM    3  C18 UNL     1      -0.914  63.969  73.252  1.00  0.00     0.136 C 
HETATM    4  O1  UNL     1      -1.319  63.920  74.445  1.00  0.00    -0.297 OA
HETATM    5  C19 UNL     1      -0.004  62.970  72.624  1.00  0.00     0.028 C 
HETATM    6  C20 UNL     1       1.161  62.931  73.581  1.00  0.00     0.024 C 
HETATM    7  C21 UNL     1      -0.831  61.698  72.732  1.00  0.00     0.018 C 
HETATM    8  C22 UNL     1      -1.529  61.660  71.435  1.00  0.00     0.002 C 
HETATM    9  C23 UNL     1      -0.806  62.573  70.483  1.00  0.00     0.014 C 
HETATM   10  C24 UNL     1       0.180  63.383  71.283  1.00  0.00     0.012 C 
ENDROOT
BRANCH   1  11
HETATM   11  C15 UNL     1      -0.828  65.429  70.107  1.00  0.00    -0.021 C 
HETATM   12  C14 UNL     1      -1.390  65.131  68.943  1.00  0.00    -0.003 C 
BRANCH  12  13
HETATM   13  C13 UNL     1      -1.989  66.257  68.188  1.00  0.00     0.006 C 
HETATM   14  C11 UNL     1      -1.387  67.074  67.441  1.00  0.00    -0.062 C 
HETATM   15  C12 UNL     1      -2.246  68.081  66.702  1.00  0.00     0.048 C 
BRANCH  14  16
HETATM   16  C10 UNL     1       0.027  67.112  67.192  1.00  0.00     0.007 C 
HETATM   17  C9  UNL     1       0.636  68.274  66.887  1.00  0.00     0.002 C 
BRANCH  17  18
HETATM   18  C8  UNL     1       2.045  68.293  66.676  1.00  0.00     0.019 C 
HETATM   19  C3  UNL     1       2.634  68.215  65.477  1.00  0.00     0.004 C 
BRANCH  19  20
HETATM   20  C2  UNL     1       1.718  68.067  64.337  1.00  0.00     0.009 C 
HETATM   21  C1  UNL     1       2.050  68.234  63.094  1.00  0.00     0.013 C 
ENDBRANCH  19  20
BRANCH  19  22
HETATM   22  C4  UNL     1       3.988  68.580  65.448  1.00  0.00    -0.140 C 
BRANCH  22  23
HETATM   23  C5  UNL     1       5.165  68.912  65.414  1.00  0.00     0.049 C 
HETATM   24  C6  UNL     1       5.793  68.781  63.977  1.00  0.00     0.022 C 
HETATM   25  C7  UNL     1       6.104  69.346  66.440  1.00  0.00     0.022 C 
ENDBRANCH  22  23
ENDBRANCH  19  22
ENDBRANCH  17  18
ENDBRANCH  14  16
ENDBRANCH  12  13
ENDBRANCH   1  11
BRANCH  10  26
HETATM   26  C25 UNL     1       1.513  63.253  70.578  1.00  0.00     0.064 C 
HETATM   27  C26 UNL     1       2.124  64.479  70.075  1.00  0.00     0.046 C 
BRANCH  26  28
HETATM   28  O2  UNL     1       2.394  62.880  71.661  1.00  0.00    -0.389 OA
ATOM     29  H2  UNL     1       3.224  63.243  71.378  1.00  0.00     0.210 HD
ENDBRANCH  26  28
BRANCH  26  30
HETATM   30  C27 UNL     1       1.646  62.111  69.672  1.00  0.00     0.043 C 
BRANCH  30  31
HETATM   31  C28 UNL     1       2.976  61.662  69.217  1.00  0.00     0.043 C 
BRANCH  31  32
HETATM   32  C29 UNL     1       3.589  60.467  69.813  1.00  0.00    -0.031 A 
HETATM   33  C30 UNL     1       4.526  60.360  70.776  1.00  0.00     0.152 A 
HETATM   34  O3  UNL     1       4.746  59.091  71.032  1.00  0.00    -0.300 OA
HETATM   35  C31 UNL     1       3.994  58.338  70.279  1.00  0.00     0.183 A 
HETATM   36  C32 UNL     1       3.242  59.147  69.489  1.00  0.00     0.073 A 
BRANCH  35  37
HETATM   37  O4  UNL     1       3.990  56.928  70.300  1.00  0.00    -0.341 OA
ATOM     38  H4  UNL     1       3.421  56.379  69.773  1.00  0.00     0.220 HD
ENDBRANCH  35  37
ENDBRANCH  31  32
ENDBRANCH  30  31
ENDBRANCH  26  30
ENDBRANCH  10  26
TORSDOF 13
ENDMDL
MODEL 3
REMARK VINA RESULT: -11.406954358      1.171      1.732
REMARK  13 active torsions:
REMARK  status: ('A' for Active; 'I' for Inactive)
REMARK    1  A    between atoms: C2_2  and  C3_3 
REMARK    2  A    between atoms: C3_3  and  C4_4 
REMARK    3  A    between atoms: C4_4  and  C5_5 
REMARK    4  A    between atoms: C8_8  and  C9_9 
REMARK    5  A    between atoms: C10_10  and  C11_11 
REMARK    6  A    between atoms: C13_13  and  C14_14 
REMARK    7  A    between atoms: C15_15  and  C16_16 
REMARK    8  A    between atoms: C24_25  and  C25_26 
REMARK    9  A    between atoms: C25_26  and  O2_28 
REMARK   10  A    between atoms: C25_26  and  C27_30 
REMARK   11  A    between atoms: C27_30  and  C28_31 
REMARK   12  A    between atoms: C28_31  and  C29_32 
REMARK   13  A    between atoms: C31_35  and  O4_36 
ROOT
HETATM    1  C16 UNL     1      -0.153  63.772  72.378  1.00  0.00     0.028 C 
HETATM    2  C17 UNL     1      -1.315  64.045  73.406  1.00  0.00     0.088 C 
HETATM    3  C18 UNL     1      -1.375  62.888  74.200  1.00  0.00     0.136 C 
HETATM    4  O1  UNL     1      -1.926  62.842  75.333  1.00  0.00    -0.297 OA
HETATM    5  C19 UNL     1      -0.719  61.731  73.528  1.00  0.00     0.028 C 
HETATM    6  C20 UNL     1       0.253  61.245  74.573  1.00  0.00     0.024 C 
HETATM    7  C21 UNL     1      -1.885  60.763  73.388  1.00  0.00     0.018 C 
HETATM    8  C22 UNL     1      -2.394  61.070  72.039  1.00  0.00     0.002 C 
HETATM    9  C23 UNL     1      -1.323  61.815  71.289  1.00  0.00     0.014 C 
HETATM   10  C24 UNL     1      -0.256  62.203  72.278  1.00  0.00     0.012 C 
ENDROOT
BRANCH   1  11
HETATM   11  C15 UNL     1      -0.473  64.567  71.302  1.00  0.00    -0.021 C 
HETATM   12  C14 UNL     1      -0.023  65.500  70.474  1.00  0.00    -0.003 C 
BRANCH  12  13
HETATM   13  C13 UNL     1      -0.950  65.941  69.405  1.00  0.00     0.006 C 
HETATM   14  C11 UNL     1      -0.648  66.550  68.344  1.00  0.00    -0.062 C 
HETATM   15  C12 UNL     1      -1.775  66.806  67.362  1.00  0.00     0.048 C 
BRANCH  14  16
HETATM   16  C10 UNL     1       0.666  66.986  67.961  1.00  0.00     0.007 C 
HETATM   17  C9  UNL     1       0.899  67.439  66.714  1.00  0.00     0.002 C 
BRANCH  17  18
HETATM   18  C8  UNL     1       2.203  67.896  66.367  1.00  0.00     0.019 C 
HETATM   19  C3  UNL     1       3.049  67.240  65.563  1.00  0.00     0.004 C 
BRANCH  19  20
HETATM   20  C2  UNL     1       2.560  65.949  65.060  1.00  0.00     0.009 C 
HETATM   21  C1  UNL     1       3.308  64.915  64.824  1.00  0.00     0.013 C 
ENDBRANCH  19  20
BRANCH  19  22
HETATM   22  C4  UNL     1       4.129  67.995  65.084  1.00  0.00    -0.140 C 
BRANCH  22  23
HETATM   23  C5  UNL     1       5.078  68.639  64.660  1.00  0.00     0.049 C 
HETATM   24  C6  UNL     1       5.908  69.327  65.807  1.00  0.00     0.022 C 
HETATM   25  C7  UNL     1       5.555  68.937  63.315  1.00  0.00     0.022 C 
ENDBRANCH  22  23
ENDBRANCH  19  22
ENDBRANCH  17  18
ENDBRANCH  14  16
ENDBRANCH  12  13
ENDBRANCH   1  11
BRANCH  10  26
HETATM   26  C25 UNL     1       1.062  61.750  71.686  1.00  0.00     0.064 C 
HETATM   27  C26 UNL     1       2.278  62.341  72.236  1.00  0.00     0.046 C 
BRANCH  26  28
HETATM   28  O2  UNL     1       1.142  60.380  72.137  1.00  0.00    -0.389 OA
ATOM     29  H2  UNL     1       1.286  59.910  71.325  1.00  0.00     0.210 HD
ENDBRANCH  26  28
BRANCH  26  30
HETATM   30  C27 UNL     1       1.086  61.591  70.231  1.00  0.00     0.043 C 
BRANCH  30  31
HETATM   31  C28 UNL     1       2.357  61.353  69.521  1.00  0.00     0.043 C 
BRANCH  31  32
HETATM   32  C29 UNL     1       3.217  60.230  69.916  1.00  0.00    -0.031 A 
HETATM   33  C30 UNL     1       4.391  60.225  70.579  1.00  0.00     0.152 A 
HETATM   34  O3  UNL     1       4.787  58.986  70.758  1.00  0.00    -0.300 OA
HETATM   35  C31 UNL     1       3.927  58.155  70.241  1.00  0.00     0.183 A 
HETATM   36  C32 UNL     1       2.914  58.877  69.696  1.00  0.00     0.073 A 
BRANCH  35  37
HETATM   37  O4  UNL     1       4.057  56.750  70.256  1.00  0.00    -0.341 OA
ATOM     38  H4  UNL     1       3.773  56.172  69.557  1.00  0.00     0.220 HD
ENDBRANCH  35  37
ENDBRANCH  31  32
ENDBRANCH  30  31
ENDBRANCH  26  30
ENDBRANCH  10  26
TORSDOF 13
ENDMDL
MODEL 4
REMARK VINA RESULT: -11.183428741      1.639      5.258
REMARK  13 active torsions:
REMARK  status: ('A' for Active; 'I' for Inactive)
REMARK    1  A    between atoms: C2_2  and  C3_3 
REMARK    2  A    between atoms: C3_3  and  C4_4 
REMARK    3  A    between atoms: C4_4  and  C5_5 
REMARK    4  A    between atoms: C8_8  and  C9_9 
REMARK    5  A    between atoms: C10_10  and  C11_11 
REMARK    6  A    between atoms: C13_13  and  C14_14 
REMARK    7  A    between atoms: C15_15  and  C16_16 
REMARK    8  A    between atoms: C24_25  and  C25_26 
REMARK    9  A    between atoms: C25_26  and  O2_28 
REMARK   10  A    between atoms: C25_26  and  C27_30 
REMARK   11  A    between atoms: C27_30  and  C28_31 
REMARK   12  A    between atoms: C28_31  and  C29_32 
REMARK   13  A    between atoms: C31_35  and  O4_36 
ROOT
HETATM    1  C16 UNL     1       1.845  61.064  70.803  1.00  0.00     0.028 C 
HETATM    2  C17 UNL     1       2.500  60.786  69.398  1.00  0.00     0.088 C 
HETATM    3  C18 UNL     1       3.540  59.878  69.656  1.00  0.00     0.136 C 
HETATM    4  O1  UNL     1       4.075  59.154  68.774  1.00  0.00    -0.297 OA
HETATM    5  C19 UNL     1       3.931  59.892  71.094  1.00  0.00     0.028 C 
HETATM    6  C20 UNL     1       3.847  58.436  71.477  1.00  0.00     0.024 C 
HETATM    7  C21 UNL     1       5.382  60.341  71.008  1.00  0.00     0.018 C 
HETATM    8  C22 UNL     1       5.274  61.802  71.175  1.00  0.00     0.002 C 
HETATM    9  C23 UNL     1       3.930  62.110  71.776  1.00  0.00     0.014 C 
HETATM   10  C24 UNL     1       3.105  60.851  71.726  1.00  0.00     0.012 C 
ENDROOT
BRANCH   1  11
HETATM   11  C15 UNL     1       1.281  62.311  70.662  1.00  0.00    -0.021 C 
HETATM   12  C14 UNL     1       1.532  63.593  70.436  1.00  0.00    -0.003 C 
BRANCH  12  13
HETATM   13  C13 UNL     1       0.359  64.495  70.359  1.00  0.00     0.006 C 
HETATM   14  C11 UNL     1       0.216  65.490  69.598  1.00  0.00    -0.062 C 
HETATM   15  C12 UNL     1      -1.125  66.196  69.646  1.00  0.00     0.048 C 
BRANCH  14  16
HETATM   16  C10 UNL     1       1.186  65.990  68.665  1.00  0.00     0.007 C 
HETATM   17  C9  UNL     1       0.897  67.043  67.877  1.00  0.00     0.002 C 
BRANCH  17  18
HETATM   18  C8  UNL     1       1.888  67.542  66.982  1.00  0.00     0.019 C 
HETATM   19  C3  UNL     1       2.669  68.601  67.227  1.00  0.00     0.004 C 
BRANCH  19  20
HETATM   20  C2  UNL     1       2.422  69.278  68.508  1.00  0.00     0.009 C 
HETATM   21  C1  UNL     1       3.292  70.002  69.143  1.00  0.00     0.013 C 
ENDBRANCH  19  20
BRANCH  19  22
HETATM   22  C4  UNL     1       3.786  68.730  66.390  1.00  0.00    -0.140 C 
BRANCH  22  23
HETATM   23  C5  UNL     1       4.770  68.841  65.672  1.00  0.00     0.049 C 
HETATM   24  C6  UNL     1       6.035  69.363  66.450  1.00  0.00     0.022 C 
HETATM   25  C7  UNL     1       4.986  68.641  64.245  1.00  0.00     0.022 C 
ENDBRANCH  22  23
ENDBRANCH  19  22
ENDBRANCH  17  18
ENDBRANCH  14  16
ENDBRANCH  12  13
ENDBRANCH   1  11
BRANCH  10  26
HETATM   26  C25 UNL     1       2.553  60.643  73.120  1.00  0.00     0.064 C 
HETATM   27  C26 UNL     1       1.523  59.622  73.284  1.00  0.00     0.046 C 
BRANCH  26  28
HETATM   28  O2  UNL     1       3.684  60.069  73.811  1.00  0.00    -0.389 OA
ATOM     29  H2  UNL     1       3.819  60.688  74.519  1.00  0.00     0.210 HD
ENDBRANCH  26  28
BRANCH  26  30
HETATM   30  C27 UNL     1       2.309  61.860  73.896  1.00  0.00     0.043 C 
BRANCH  30  31
HETATM   31  C28 UNL     1       1.188  61.930  74.853  1.00  0.00     0.043 C 
BRANCH  31  32
HETATM   32  C29 UNL     1       0.071  62.853  74.607  1.00  0.00    -0.031 A 
HETATM   33  C30 UNL     1      -1.228  62.757  74.953  1.00  0.00     0.152 A 
HETATM   34  O3  UNL     1      -1.864  63.839  74.566  1.00  0.00    -0.300 OA
HETATM   35  C31 UNL     1      -1.045  64.660  73.973  1.00  0.00     0.183 A 
HETATM   36  C32 UNL     1       0.191  64.096  73.967  1.00  0.00     0.073 A 
BRANCH  35  37
HETATM   37  O4  UNL     1      -1.410  65.911  73.434  1.00  0.00    -0.341 OA
ATOM     38  H4  UNL     1      -1.608  66.686  73.948  1.00  0.00     0.220 HD
ENDBRANCH  35  37
ENDBRANCH  31  32
ENDBRANCH  30  31
ENDBRANCH  26  30
ENDBRANCH  10  26
TORSDOF 13
ENDMDL
MODEL 5
REMARK VINA RESULT: -11.097322836      1.328      1.909
REMARK  13 active torsions:
REMARK  status: ('A' for Active; 'I' for Inactive)
REMARK    1  A    between atoms: C2_2  and  C3_3 
REMARK    2  A    between atoms: C3_3  and  C4_4 
REMARK    3  A    between atoms: C4_4  and  C5_5 
REMARK    4  A    between atoms: C8_8  and  C9_9 
REMARK    5  A    between atoms: C10_10  and  C11_11 
REMARK    6  A    between atoms: C13_13  and  C14_14 
REMARK    7  A    between atoms: C15_15  and  C16_16 
REMARK    8  A    between atoms: C24_25  and  C25_26 
REMARK    9  A    between atoms: C25_26  and  O2_28 
REMARK   10  A    between atoms: C25_26  and  C27_30 
REMARK   11  A    between atoms: C27_30  and  C28_31 
REMARK   12  A    between atoms: C28_31  and  C29_32 
REMARK   13  A    between atoms: C31_35  and  O4_36 
ROOT
HETATM    1  C16 UNL     1       0.171  64.237  71.277  1.00  0.00     0.028 C 
HETATM    2  C17 UNL     1      -0.958  64.380  72.365  1.00  0.00     0.088 C 
HETATM    3  C18 UNL     1      -0.944  63.162  73.065  1.00  0.00     0.136 C 
HETATM    4  O1  UNL     1      -1.447  63.004  74.210  1.00  0.00    -0.297 OA
HETATM    5  C19 UNL     1      -0.272  62.089  72.278  1.00  0.00     0.028 C 
HETATM    6  C20 UNL     1       0.758  61.562  73.244  1.00  0.00     0.024 C 
HETATM    7  C21 UNL     1      -1.406  61.090  72.102  1.00  0.00     0.018 C 
HETATM    8  C22 UNL     1      -1.979  61.482  70.803  1.00  0.00     0.002 C 
HETATM    9  C23 UNL     1      -0.968  62.327  70.076  1.00  0.00     0.014 C 
HETATM   10  C24 UNL     1       0.123  62.678  71.054  1.00  0.00     0.012 C 
ENDROOT
BRANCH   1  11
HETATM   11  C15 UNL     1      -0.220  65.101  70.281  1.00  0.00    -0.021 C 
HETATM   12  C14 UNL     1       0.180  66.073  69.472  1.00  0.00    -0.003 C 
BRANCH  12  13
HETATM   13  C13 UNL     1      -0.825  66.596  68.517  1.00  0.00     0.006 C 
HETATM   14  C11 UNL     1      -0.599  67.170  67.418  1.00  0.00    -0.062 C 
HETATM   15  C12 UNL     1      -1.809  67.527  66.576  1.00  0.00     0.048 C 
BRANCH  14  16
HETATM   16  C10 UNL     1       0.693  67.478  66.872  1.00  0.00     0.007 C 
HETATM   17  C9  UNL     1       1.212  66.729  65.880  1.00  0.00     0.002 C 
BRANCH  17  18
HETATM   18  C8  UNL     1       2.482  67.074  65.332  1.00  0.00     0.019 C 
HETATM   19  C3  UNL     1       2.657  67.777  64.207  1.00  0.00     0.004 C 
BRANCH  19  20
HETATM   20  C2  UNL     1       1.422  68.165  63.511  1.00  0.00     0.009 C 
HETATM   21  C1  UNL     1       1.352  68.507  62.261  1.00  0.00     0.013 C 
ENDBRANCH  19  20
BRANCH  19  22
HETATM   22  C4  UNL     1       3.947  68.291  64.015  1.00  0.00    -0.140 C 
BRANCH  22  23
HETATM   23  C5  UNL     1       5.074  68.731  63.833  1.00  0.00     0.049 C 
HETATM   24  C6  UNL     1       5.764  69.206  65.166  1.00  0.00     0.022 C 
HETATM   25  C7  UNL     1       5.874  68.949  62.635  1.00  0.00     0.022 C 
ENDBRANCH  22  23
ENDBRANCH  19  22
ENDBRANCH  17  18
ENDBRANCH  14  16
ENDBRANCH  12  13
ENDBRANCH   1  11
BRANCH  10  26
HETATM   26  C25 UNL     1       1.433  62.327  70.380  1.00  0.00     0.064 C 
HETATM   27  C26 UNL     1       1.383  61.355  69.292  1.00  0.00     0.046 C 
BRANCH  26  28
HETATM   28  O2  UNL     1       1.761  63.555  69.696  1.00  0.00    -0.389 OA
ATOM     29  H2  UNL     1       1.396  63.406  68.831  1.00  0.00     0.210 HD
ENDBRANCH  26  28
BRANCH  26  30
HETATM   30  C27 UNL     1       2.582  62.160  71.270  1.00  0.00     0.043 C 
BRANCH  30  31
HETATM   31  C28 UNL     1       3.666  61.217  70.932  1.00  0.00     0.043 C 
BRANCH  31  32
HETATM   32  C29 UNL     1       3.481  59.777  71.158  1.00  0.00    -0.031 A 
HETATM   33  C30 UNL     1       2.857  59.128  72.161  1.00  0.00     0.152 A 
HETATM   34  O3  UNL     1       2.894  57.835  71.933  1.00  0.00    -0.300 OA
HETATM   35  C31 UNL     1       3.519  57.587  70.817  1.00  0.00     0.183 A 
HETATM   36  C32 UNL     1       3.913  58.771  70.280  1.00  0.00     0.073 A 
BRANCH  35  37
HETATM   37  O4  UNL     1       3.738  56.299  70.286  1.00  0.00    -0.341 OA
ATOM     38  H4  UNL     1       4.569  55.985  69.950  1.00  0.00     0.220 HD
ENDBRANCH  35  37
ENDBRANCH  31  32
ENDBRANCH  30  31
ENDBRANCH  26  30
ENDBRANCH  10  26
TORSDOF 13
ENDMDL
