MODEL 1
REMARK VINA RESULT: -9.009832377      0.000      0.000
REMARK  15 active torsions:
REMARK  status: ('A' for Active; 'I' for Inactive)
REMARK    1  A    between atoms: C2_2  and  C3_3 
REMARK    2  A    between atoms: C5_5  and  C6_6 
REMARK    3  A    between atoms: C9_9  and  C10_10 
REMARK    4  A    between atoms: C10_10  and  C11_12 
REMARK    5  A    between atoms: C12_13  and  C14_15 
REMARK    6  A    between atoms: C14_15  and  C15_16 
REMARK    7  A    between atoms: C16_17  and  C17_18 
REMARK    8  A    between atoms: C19_20  and  C20_21 
REMARK    9  A    between atoms: C20_21  and  C21_22 
REMARK   10  A    between atoms: C21_22  and  C22_23 
REMARK   11  A    between atoms: C25_26  and  O2_27 
REMARK   12  A    between atoms: C26_29  and  C27_30 
REMARK   13  A    between atoms: C27_30  and  C28_32 
REMARK   14  A    between atoms: C28_32  and  C29_33 
REMARK   15  A    between atoms: C32_36  and  O4_37 
ROOT
HETATM    1  C6  UNL     1       1.467  60.948  73.446  1.00  0.00     0.005 A 
HETATM    2  C7  UNL     1       2.320  61.336  72.393  1.00  0.00    -0.032 A 
HETATM    3  C8  UNL     1       2.292  62.779  71.997  1.00  0.00     0.050 C 
HETATM    4  C9  UNL     1       3.134  60.393  71.866  1.00  0.00     0.055 A 
HETATM    5  C25 UNL     1       3.131  59.039  72.364  1.00  0.00     0.097 A 
HETATM    6  C26 UNL     1       2.295  58.679  73.391  1.00  0.00     0.078 A 
HETATM    7  C32 UNL     1       1.467  59.656  73.920  1.00  0.00     0.093 A 
ENDROOT
BRANCH   4   8
HETATM    8  C10 UNL     1       4.100  60.701  70.819  1.00  0.00     0.186 C 
HETATM    9  O1  UNL     1       5.201  60.029  70.950  1.00  0.00    -0.287 OA
BRANCH   8  10
HETATM   10  C11 UNL     1       4.076  61.557  69.709  1.00  0.00     0.071 C 
HETATM   11  C12 UNL     1       3.078  61.636  68.747  1.00  0.00    -0.013 C 
HETATM   12  C13 UNL     1       1.930  60.726  68.896  1.00  0.00     0.057 C 
BRANCH  11  13
HETATM   13  C14 UNL     1       3.226  62.634  67.762  1.00  0.00    -0.121 C 
BRANCH  13  14
HETATM   14  C15 UNL     1       3.354  63.501  66.906  1.00  0.00     0.056 C 
HETATM   15  C16 UNL     1       3.557  63.430  65.483  1.00  0.00     0.015 C 
BRANCH  15  16
HETATM   16  C17 UNL     1       3.676  64.467  64.669  1.00  0.00    -0.061 C 
HETATM   17  C18 UNL     1       4.514  64.195  63.447  1.00  0.00     0.048 C 
HETATM   18  C19 UNL     1       3.053  65.738  64.894  1.00  0.00     0.007 C 
BRANCH  18  19
HETATM   19  C20 UNL     1       3.056  66.845  64.240  1.00  0.00     0.001 C 
BRANCH  19  20
HETATM   20  C21 UNL     1       3.225  68.178  64.739  1.00  0.00     0.002 C 
BRANCH  20  21
HETATM   21  C22 UNL     1       4.478  68.642  64.939  1.00  0.00    -0.088 C 
HETATM   22  C23 UNL     1       4.918  68.987  66.292  1.00  0.00     0.043 C 
HETATM   23  C24 UNL     1       5.361  68.774  63.771  1.00  0.00     0.043 C 
ENDBRANCH  20  21
ENDBRANCH  19  20
ENDBRANCH  18  19
ENDBRANCH  15  16
ENDBRANCH  13  14
ENDBRANCH  11  13
ENDBRANCH   8  10
ENDBRANCH   4   8
BRANCH   5  24
HETATM   24  O2  UNL     1       3.977  58.186  71.771  1.00  0.00    -0.359 OA
ATOM     25  H2  UNL     1       4.617  57.767  72.335  1.00  0.00     0.217 HD
ENDBRANCH   5  24
BRANCH   1  26
HETATM   26  C5  UNL     1       0.636  61.963  74.028  1.00  0.00     0.021 C 
HETATM   27  C3  UNL     1      -0.584  62.214  73.685  1.00  0.00    -0.062 C 
HETATM   28  C4  UNL     1      -1.231  61.462  72.572  1.00  0.00     0.048 C 
BRANCH  27  29
HETATM   29  C2  UNL     1      -1.348  63.272  74.347  1.00  0.00    -0.004 C 
HETATM   30  C1  UNL     1      -0.995  64.518  74.184  1.00  0.00     0.012 C 
ENDBRANCH  27  29
ENDBRANCH   1  26
BRANCH   6  31
HETATM   31  C27 UNL     1       2.279  57.309  73.895  1.00  0.00     0.165 C 
HETATM   32  O3  UNL     1       1.773  56.416  73.121  1.00  0.00    -0.292 OA
BRANCH  31  33
HETATM   33  C28 UNL     1       2.758  56.803  75.168  1.00  0.00     0.088 C 
BRANCH  33  34
HETATM   34  C29 UNL     1       3.906  57.568  75.772  1.00  0.00    -0.015 C 
HETATM   35  C30 UNL     1       3.429  58.414  76.936  1.00  0.00     0.010 C 
HETATM   36  C31 UNL     1       4.949  56.608  76.360  1.00  0.00     0.010 C 
ENDBRANCH  33  34
ENDBRANCH  31  33
ENDBRANCH   6  31
BRANCH   7  37
HETATM   37  O4  UNL     1       0.647  59.271  74.954  1.00  0.00    -0.359 OA
ATOM     38  H4  UNL     1       0.994  58.846  75.730  1.00  0.00     0.217 HD
ENDBRANCH   7  37
TORSDOF 15
ENDMDL
MODEL 2
REMARK VINA RESULT: -8.952809826      1.049      1.567
REMARK  15 active torsions:
REMARK  status: ('A' for Active; 'I' for Inactive)
REMARK    1  A    between atoms: C2_2  and  C3_3 
REMARK    2  A    between atoms: C5_5  and  C6_6 
REMARK    3  A    between atoms: C9_9  and  C10_10 
REMARK    4  A    between atoms: C10_10  and  C11_12 
REMARK    5  A    between atoms: C12_13  and  C14_15 
REMARK    6  A    between atoms: C14_15  and  C15_16 
REMARK    7  A    between atoms: C16_17  and  C17_18 
REMARK    8  A    between atoms: C19_20  and  C20_21 
REMARK    9  A    between atoms: C20_21  and  C21_22 
REMARK   10  A    between atoms: C21_22  and  C22_23 
REMARK   11  A    between atoms: C25_26  and  O2_27 
REMARK   12  A    between atoms: C26_29  and  C27_30 
REMARK   13  A    between atoms: C27_30  and  C28_32 
REMARK   14  A    between atoms: C28_32  and  C29_33 
REMARK   15  A    between atoms: C32_36  and  O4_37 
ROOT
HETATM    1  C6  UNL     1       1.484  60.833  73.450  1.00  0.00     0.005 A 
HETATM    2  C7  UNL     1       2.331  61.238  72.398  1.00  0.00    -0.032 A 
HETATM    3  C8  UNL     1       2.297  62.686  72.021  1.00  0.00     0.050 C 
HETATM    4  C9  UNL     1       3.146  60.305  71.854  1.00  0.00     0.055 A 
HETATM    5  C25 UNL     1       3.149  58.944  72.335  1.00  0.00     0.097 A 
HETATM    6  C26 UNL     1       2.319  58.568  73.361  1.00  0.00     0.078 A 
HETATM    7  C32 UNL     1       1.490  59.536  73.906  1.00  0.00     0.093 A 
ENDROOT
BRANCH   4   8
HETATM    8  C10 UNL     1       4.105  60.630  70.807  1.00  0.00     0.186 C 
HETATM    9  O1  UNL     1       5.209  59.960  70.924  1.00  0.00    -0.287 OA
BRANCH   8  10
HETATM   10  C11 UNL     1       4.073  61.501  69.709  1.00  0.00     0.071 C 
HETATM   11  C12 UNL     1       3.060  61.604  68.765  1.00  0.00    -0.013 C 
HETATM   12  C13 UNL     1       1.904  60.706  68.922  1.00  0.00     0.057 C 
BRANCH  11  13
HETATM   13  C14 UNL     1       3.204  62.613  67.790  1.00  0.00    -0.121 C 
BRANCH  13  14
HETATM   14  C15 UNL     1       3.329  63.490  66.944  1.00  0.00     0.056 C 
HETATM   15  C16 UNL     1       3.548  63.435  65.522  1.00  0.00     0.015 C 
BRANCH  15  16
HETATM   16  C17 UNL     1       3.660  64.480  64.719  1.00  0.00    -0.061 C 
HETATM   17  C18 UNL     1       4.523  64.234  63.508  1.00  0.00     0.048 C 
HETATM   18  C19 UNL     1       3.009  65.737  64.943  1.00  0.00     0.007 C 
BRANCH  18  19
HETATM   19  C20 UNL     1       3.002  66.849  64.298  1.00  0.00     0.001 C 
BRANCH  19  20
HETATM   20  C21 UNL     1       3.195  68.177  64.803  1.00  0.00     0.002 C 
BRANCH  20  21
HETATM   21  C22 UNL     1       4.457  68.628  64.978  1.00  0.00    -0.088 C 
HETATM   22  C23 UNL     1       4.920  68.989  66.319  1.00  0.00     0.043 C 
HETATM   23  C24 UNL     1       5.325  68.729  63.795  1.00  0.00     0.043 C 
ENDBRANCH  20  21
ENDBRANCH  19  20
ENDBRANCH  18  19
ENDBRANCH  15  16
ENDBRANCH  13  14
ENDBRANCH  11  13
ENDBRANCH   8  10
ENDBRANCH   4   8
BRANCH   5  24
HETATM   24  O2  UNL     1       3.995  58.102  71.727  1.00  0.00    -0.359 OA
ATOM     25  H2  UNL     1       4.867  58.040  72.098  1.00  0.00     0.217 HD
ENDBRANCH   5  24
BRANCH   1  26
HETATM   26  C5  UNL     1       0.652  61.838  74.049  1.00  0.00     0.021 C 
HETATM   27  C3  UNL     1      -0.564  62.103  73.702  1.00  0.00    -0.062 C 
HETATM   28  C4  UNL     1      -1.204  61.381  72.564  1.00  0.00     0.048 C 
BRANCH  27  29
HETATM   29  C2  UNL     1      -1.328  63.148  74.382  1.00  0.00    -0.004 C 
HETATM   30  C1  UNL     1      -1.002  64.400  74.209  1.00  0.00     0.012 C 
ENDBRANCH  27  29
ENDBRANCH   1  26
BRANCH   6  31
HETATM   31  C27 UNL     1       2.310  57.192  73.846  1.00  0.00     0.165 C 
HETATM   32  O3  UNL     1       2.856  56.980  74.990  1.00  0.00    -0.292 OA
BRANCH  31  33
HETATM   33  C28 UNL     1       1.763  56.007  73.210  1.00  0.00     0.088 C 
BRANCH  33  34
HETATM   34  C29 UNL     1       1.158  54.996  74.147  1.00  0.00    -0.015 C 
HETATM   35  C30 UNL     1      -0.264  54.671  73.735  1.00  0.00     0.010 C 
HETATM   36  C31 UNL     1       1.921  53.666  74.079  1.00  0.00     0.010 C 
ENDBRANCH  33  34
ENDBRANCH  31  33
ENDBRANCH   6  31
BRANCH   7  37
HETATM   37  O4  UNL     1       0.677  59.134  74.939  1.00  0.00    -0.359 OA
ATOM     38  H4  UNL     1       0.991  59.103  75.835  1.00  0.00     0.217 HD
ENDBRANCH   7  37
TORSDOF 15
ENDMDL
MODEL 3
REMARK VINA RESULT: -8.807154191      5.778     11.825
REMARK  15 active torsions:
REMARK  status: ('A' for Active; 'I' for Inactive)
REMARK    1  A    between atoms: C2_2  and  C3_3 
REMARK    2  A    between atoms: C5_5  and  C6_6 
REMARK    3  A    between atoms: C9_9  and  C10_10 
REMARK    4  A    between atoms: C10_10  and  C11_12 
REMARK    5  A    between atoms: C12_13  and  C14_15 
REMARK    6  A    between atoms: C14_15  and  C15_16 
REMARK    7  A    between atoms: C16_17  and  C17_18 
REMARK    8  A    between atoms: C19_20  and  C20_21 
REMARK    9  A    between atoms: C20_21  and  C21_22 
REMARK   10  A    between atoms: C21_22  and  C22_23 
REMARK   11  A    between atoms: C25_26  and  O2_27 
REMARK   12  A    between atoms: C26_29  and  C27_30 
REMARK   13  A    between atoms: C27_30  and  C28_32 
REMARK   14  A    between atoms: C28_32  and  C29_33 
REMARK   15  A    between atoms: C32_36  and  O4_37 
ROOT
HETATM    1  C6  UNL     1       3.211  68.302  65.328  1.00  0.00     0.005 A 
HETATM    2  C7  UNL     1       1.912  68.018  65.796  1.00  0.00    -0.032 A 
HETATM    3  C8  UNL     1       1.015  67.251  64.878  1.00  0.00     0.050 C 
HETATM    4  C9  UNL     1       1.600  68.407  67.054  1.00  0.00     0.055 A 
HETATM    5  C25 UNL     1       2.563  69.087  67.887  1.00  0.00     0.097 A 
HETATM    6  C26 UNL     1       3.823  69.354  67.415  1.00  0.00     0.078 A 
HETATM    7  C32 UNL     1       4.127  68.950  66.125  1.00  0.00     0.093 A 
ENDROOT
BRANCH   4   8
HETATM    8  C10 UNL     1       0.309  68.108  67.660  1.00  0.00     0.186 C 
HETATM    9  O1  UNL     1      -0.470  69.143  67.699  1.00  0.00    -0.287 OA
BRANCH   8  10
HETATM   10  C11 UNL     1      -0.255  66.941  68.194  1.00  0.00     0.071 C 
HETATM   11  C12 UNL     1       0.308  66.117  69.159  1.00  0.00    -0.013 C 
HETATM   12  C13 UNL     1       1.635  66.496  69.673  1.00  0.00     0.057 C 
BRANCH  11  13
HETATM   13  C14 UNL     1      -0.481  65.037  69.608  1.00  0.00    -0.121 C 
BRANCH  13  14
HETATM   14  C15 UNL     1      -1.164  64.099  69.999  1.00  0.00     0.056 C 
HETATM   15  C16 UNL     1      -0.974  62.673  69.935  1.00  0.00     0.015 C 
BRANCH  15  16
HETATM   16  C17 UNL     1      -1.808  61.762  70.410  1.00  0.00    -0.061 C 
HETATM   17  C18 UNL     1      -2.642  61.084  69.354  1.00  0.00     0.048 C 
HETATM   18  C19 UNL     1      -1.911  61.415  71.797  1.00  0.00     0.007 C 
BRANCH  18  19
HETATM   19  C20 UNL     1      -2.649  60.582  72.440  1.00  0.00     0.001 C 
BRANCH  19  20
HETATM   20  C21 UNL     1      -4.024  60.247  72.215  1.00  0.00     0.002 C 
BRANCH  20  21
HETATM   21  C22 UNL     1      -4.762  59.798  73.254  1.00  0.00    -0.088 C 
HETATM   22  C23 UNL     1      -4.197  59.808  74.605  1.00  0.00     0.043 C 
HETATM   23  C24 UNL     1      -6.125  59.321  72.979  1.00  0.00     0.043 C 
ENDBRANCH  20  21
ENDBRANCH  19  20
ENDBRANCH  18  19
ENDBRANCH  15  16
ENDBRANCH  13  14
ENDBRANCH  11  13
ENDBRANCH   8  10
ENDBRANCH   4   8
BRANCH   5  24
HETATM   24  O2  UNL     1       2.150  69.427  69.115  1.00  0.00    -0.359 OA
ATOM     25  H2  UNL     1       2.262  70.338  69.360  1.00  0.00     0.217 HD
ENDBRANCH   5  24
BRANCH   1  26
HETATM   26  C5  UNL     1       3.548  67.850  64.008  1.00  0.00     0.021 C 
HETATM   27  C3  UNL     1       4.013  66.680  63.718  1.00  0.00    -0.062 C 
HETATM   28  C4  UNL     1       4.295  65.686  64.792  1.00  0.00     0.048 C 
BRANCH  27  29
HETATM   29  C2  UNL     1       4.321  66.317  62.334  1.00  0.00    -0.004 C 
HETATM   30  C1  UNL     1       4.282  67.233  61.405  1.00  0.00     0.012 C 
ENDBRANCH  27  29
ENDBRANCH   1  26
BRANCH   6  31
HETATM   31  C27 UNL     1       4.800  70.050  68.247  1.00  0.00     0.165 C 
HETATM   32  O3  UNL     1       4.332  70.812  69.170  1.00  0.00    -0.292 OA
BRANCH  31  33
HETATM   33  C28 UNL     1       6.249  70.005  68.178  1.00  0.00     0.088 C 
BRANCH  33  34
HETATM   34  C29 UNL     1       6.968  70.767  69.260  1.00  0.00    -0.015 C 
HETATM   35  C30 UNL     1       7.106  69.917  70.508  1.00  0.00     0.010 C 
HETATM   36  C31 UNL     1       8.401  71.102  68.828  1.00  0.00     0.010 C 
ENDBRANCH  33  34
ENDBRANCH  31  33
ENDBRANCH   6  31
BRANCH   7  37
HETATM   37  O4  UNL     1       5.400  69.221  65.681  1.00  0.00    -0.359 OA
ATOM     38  H4  UNL     1       5.557  69.821  64.961  1.00  0.00     0.217 HD
ENDBRANCH   7  37
TORSDOF 15
ENDMDL
MODEL 4
REMARK VINA RESULT: -8.776471585      2.585      4.413
REMARK  15 active torsions:
REMARK  status: ('A' for Active; 'I' for Inactive)
REMARK    1  A    between atoms: C2_2  and  C3_3 
REMARK    2  A    between atoms: C5_5  and  C6_6 
REMARK    3  A    between atoms: C9_9  and  C10_10 
REMARK    4  A    between atoms: C10_10  and  C11_12 
REMARK    5  A    between atoms: C12_13  and  C14_15 
REMARK    6  A    between atoms: C14_15  and  C15_16 
REMARK    7  A    between atoms: C16_17  and  C17_18 
REMARK    8  A    between atoms: C19_20  and  C20_21 
REMARK    9  A    between atoms: C20_21  and  C21_22 
REMARK   10  A    between atoms: C21_22  and  C22_23 
REMARK   11  A    between atoms: C25_26  and  O2_27 
REMARK   12  A    between atoms: C26_29  and  C27_30 
REMARK   13  A    between atoms: C27_30  and  C28_32 
REMARK   14  A    between atoms: C28_32  and  C29_33 
REMARK   15  A    between atoms: C32_36  and  O4_37 
ROOT
HETATM    1  C6  UNL     1       1.503  61.204  74.929  1.00  0.00     0.005 A 
HETATM    2  C7  UNL     1       0.649  62.024  74.163  1.00  0.00    -0.032 A 
HETATM    3  C8  UNL     1      -0.013  63.162  74.873  1.00  0.00     0.050 C 
HETATM    4  C9  UNL     1       0.543  61.756  72.841  1.00  0.00     0.055 A 
HETATM    5  C25 UNL     1       1.277  60.670  72.237  1.00  0.00     0.097 A 
HETATM    6  C26 UNL     1       2.104  59.883  72.998  1.00  0.00     0.078 A 
HETATM    7  C32 UNL     1       2.202  60.171  74.350  1.00  0.00     0.093 A 
ENDROOT
BRANCH   4   8
HETATM    8  C10 UNL     1      -0.260  62.578  71.946  1.00  0.00     0.186 C 
HETATM    9  O1  UNL     1      -1.525  62.309  72.029  1.00  0.00    -0.287 OA
BRANCH   8  10
HETATM   10  C11 UNL     1       0.054  63.595  71.032  1.00  0.00     0.071 C 
HETATM   11  C12 UNL     1      -0.207  64.950  71.182  1.00  0.00    -0.013 C 
HETATM   12  C13 UNL     1      -0.889  65.369  72.418  1.00  0.00     0.057 C 
BRANCH  11  13
HETATM   13  C14 UNL     1       0.274  65.803  70.167  1.00  0.00    -0.121 C 
BRANCH  13  14
HETATM   14  C15 UNL     1       0.693  66.545  69.287  1.00  0.00     0.056 C 
HETATM   15  C16 UNL     1       1.679  67.594  69.297  1.00  0.00     0.015 C 
BRANCH  15  16
HETATM   16  C17 UNL     1       2.040  68.322  68.252  1.00  0.00    -0.061 C 
HETATM   17  C18 UNL     1       2.127  69.799  68.534  1.00  0.00     0.048 C 
HETATM   18  C19 UNL     1       2.351  67.776  66.964  1.00  0.00     0.007 C 
BRANCH  18  19
HETATM   19  C20 UNL     1       2.705  68.307  65.848  1.00  0.00     0.001 C 
BRANCH  19  20
HETATM   20  C21 UNL     1       3.762  67.910  64.965  1.00  0.00     0.002 C 
BRANCH  20  21
HETATM   21  C22 UNL     1       4.859  68.693  64.871  1.00  0.00    -0.088 C 
HETATM   22  C23 UNL     1       5.461  69.248  66.085  1.00  0.00     0.043 C 
HETATM   23  C24 UNL     1       5.413  68.949  63.533  1.00  0.00     0.043 C 
ENDBRANCH  20  21
ENDBRANCH  19  20
ENDBRANCH  18  19
ENDBRANCH  15  16
ENDBRANCH  13  14
ENDBRANCH  11  13
ENDBRANCH   8  10
ENDBRANCH   4   8
BRANCH   5  24
HETATM   24  O2  UNL     1       1.099  60.493  70.921  1.00  0.00    -0.359 OA
ATOM     25  H2  UNL     1       1.837  60.708  70.363  1.00  0.00     0.217 HD
ENDBRANCH   5  24
BRANCH   1  26
HETATM   26  C5  UNL     1       1.643  61.521  76.322  1.00  0.00     0.021 C 
HETATM   27  C3  UNL     1       1.009  60.939  77.286  1.00  0.00    -0.062 C 
HETATM   28  C4  UNL     1      -0.001  59.879  77.001  1.00  0.00     0.048 C 
BRANCH  27  29
HETATM   29  C2  UNL     1       1.228  61.336  78.676  1.00  0.00    -0.004 C 
HETATM   30  C1  UNL     1       2.445  61.548  79.101  1.00  0.00     0.012 C 
ENDBRANCH  27  29
ENDBRANCH   1  26
BRANCH   6  31
HETATM   31  C27 UNL     1       2.843  58.777  72.397  1.00  0.00     0.165 C 
HETATM   32  O3  UNL     1       2.429  57.592  72.669  1.00  0.00    -0.292 OA
BRANCH  31  33
HETATM   33  C28 UNL     1       4.000  58.827  71.522  1.00  0.00     0.088 C 
BRANCH  33  34
HETATM   34  C29 UNL     1       4.225  60.143  70.827  1.00  0.00    -0.015 C 
HETATM   35  C30 UNL     1       5.602  60.689  71.151  1.00  0.00     0.010 C 
HETATM   36  C31 UNL     1       4.200  59.965  69.303  1.00  0.00     0.010 C 
ENDBRANCH  33  34
ENDBRANCH  31  33
ENDBRANCH   6  31
BRANCH   7  37
HETATM   37  O4  UNL     1       3.046  59.373  75.087  1.00  0.00    -0.359 OA
ATOM     38  H4  UNL     1       3.882  59.083  74.741  1.00  0.00     0.217 HD
ENDBRANCH   7  37
TORSDOF 15
ENDMDL
MODEL 5
REMARK VINA RESULT: -8.753444566      3.150      5.991
REMARK  15 active torsions:
REMARK  status: ('A' for Active; 'I' for Inactive)
REMARK    1  A    between atoms: C2_2  and  C3_3 
REMARK    2  A    between atoms: C5_5  and  C6_6 
REMARK    3  A    between atoms: C9_9  and  C10_10 
REMARK    4  A    between atoms: C10_10  and  C11_12 
REMARK    5  A    between atoms: C12_13  and  C14_15 
REMARK    6  A    between atoms: C14_15  and  C15_16 
REMARK    7  A    between atoms: C16_17  and  C17_18 
REMARK    8  A    between atoms: C19_20  and  C20_21 
REMARK    9  A    between atoms: C20_21  and  C21_22 
REMARK   10  A    between atoms: C21_22  and  C22_23 
REMARK   11  A    between atoms: C25_26  and  O2_27 
REMARK   12  A    between atoms: C26_29  and  C27_30 
REMARK   13  A    between atoms: C27_30  and  C28_32 
REMARK   14  A    between atoms: C28_32  and  C29_33 
REMARK   15  A    between atoms: C32_36  and  O4_37 
ROOT
HETATM    1  C6  UNL     1       0.671  61.943  72.245  1.00  0.00     0.005 A 
HETATM    2  C7  UNL     1       0.615  62.954  71.264  1.00  0.00    -0.032 A 
HETATM    3  C8  UNL     1       1.174  62.620  69.916  1.00  0.00     0.050 C 
HETATM    4  C9  UNL     1       0.009  64.117  71.596  1.00  0.00     0.055 A 
HETATM    5  C25 UNL     1      -0.559  64.316  72.907  1.00  0.00     0.097 A 
HETATM    6  C26 UNL     1      -0.496  63.321  73.850  1.00  0.00     0.078 A 
HETATM    7  C32 UNL     1       0.127  62.136  73.494  1.00  0.00     0.093 A 
ENDROOT
BRANCH   4   8
HETATM    8  C10 UNL     1      -0.162  65.202  70.639  1.00  0.00     0.186 C 
HETATM    9  O1  UNL     1      -1.389  65.615  70.574  1.00  0.00    -0.287 OA
BRANCH   8  10
HETATM   10  C11 UNL     1       0.722  65.887  69.792  1.00  0.00     0.071 C 
HETATM   11  C12 UNL     1       0.397  66.536  68.609  1.00  0.00    -0.013 C 
HETATM   12  C13 UNL     1      -1.014  66.499  68.190  1.00  0.00     0.057 C 
BRANCH  11  13
HETATM   13  C14 UNL     1       1.439  67.231  67.961  1.00  0.00    -0.121 C 
BRANCH  13  14
HETATM   14  C15 UNL     1       2.345  67.834  67.400  1.00  0.00     0.056 C 
HETATM   15  C16 UNL     1       2.925  67.702  66.088  1.00  0.00     0.015 C 
BRANCH  15  16
HETATM   16  C17 UNL     1       3.914  68.437  65.605  1.00  0.00    -0.061 C 
HETATM   17  C18 UNL     1       3.846  68.654  64.116  1.00  0.00     0.048 C 
HETATM   18  C19 UNL     1       4.954  69.009  66.409  1.00  0.00     0.007 C 
BRANCH  18  19
HETATM   19  C20 UNL     1       5.982  69.728  66.131  1.00  0.00     0.001 C 
BRANCH  19  20
HETATM   20  C21 UNL     1       6.969  70.259  67.024  1.00  0.00     0.002 C 
BRANCH  20  21
HETATM   21  C22 UNL     1       6.620  70.505  68.307  1.00  0.00    -0.088 C 
HETATM   22  C23 UNL     1       5.206  70.636  68.662  1.00  0.00     0.043 C 
HETATM   23  C24 UNL     1       7.694  70.622  69.305  1.00  0.00     0.043 C 
ENDBRANCH  20  21
ENDBRANCH  19  20
ENDBRANCH  18  19
ENDBRANCH  15  16
ENDBRANCH  13  14
ENDBRANCH  11  13
ENDBRANCH   8  10
ENDBRANCH   4   8
BRANCH   5  24
HETATM   24  O2  UNL     1      -1.136  65.505  73.130  1.00  0.00    -0.359 OA
ATOM     25  H2  UNL     1      -1.547  65.621  73.978  1.00  0.00     0.217 HD
ENDBRANCH   5  24
BRANCH   1  26
HETATM   26  C5  UNL     1       1.278  60.697  71.872  1.00  0.00     0.021 C 
HETATM   27  C3  UNL     1       2.488  60.344  72.155  1.00  0.00    -0.062 C 
HETATM   28  C4  UNL     1       3.402  61.272  72.881  1.00  0.00     0.048 C 
BRANCH  27  29
HETATM   29  C2  UNL     1       3.010  59.045  71.729  1.00  0.00    -0.004 C 
HETATM   30  C1  UNL     1       3.367  58.871  70.485  1.00  0.00     0.012 C 
ENDBRANCH  27  29
ENDBRANCH   1  26
BRANCH   6  31
HETATM   31  C27 UNL     1      -1.060  63.518  75.181  1.00  0.00     0.165 C 
HETATM   32  O3  UNL     1      -2.075  62.792  75.491  1.00  0.00    -0.292 OA
BRANCH  31  33
HETATM   33  C28 UNL     1      -0.633  64.433  76.223  1.00  0.00     0.088 C 
BRANCH  33  34
HETATM   34  C29 UNL     1      -1.734  64.973  77.097  1.00  0.00    -0.015 C 
HETATM   35  C30 UNL     1      -1.177  65.451  78.422  1.00  0.00     0.010 C 
HETATM   36  C31 UNL     1      -2.385  66.204  76.453  1.00  0.00     0.010 C 
ENDBRANCH  33  34
ENDBRANCH  31  33
ENDBRANCH   6  31
BRANCH   7  37
HETATM   37  O4  UNL     1       0.167  61.152  74.454  1.00  0.00    -0.359 OA
ATOM     38  H4  UNL     1      -0.608  60.655  74.688  1.00  0.00     0.217 HD
ENDBRANCH   7  37
TORSDOF 15
ENDMDL
