MODEL 1
REMARK VINA RESULT: -6.596111399      0.000      0.000
REMARK  11 active torsions:
REMARK  status: ('A' for Active; 'I' for Inactive)
REMARK    1  A    between atoms: O1_1  and  C1_3 
REMARK    2  A    between atoms: C1_3  and  C2_4 
REMARK    3  A    between atoms: C2_4  and  O2_5 
REMARK    4  A    between atoms: C2_4  and  C3_7 
REMARK    5  A    between atoms: C3_7  and  O3_8 
REMARK    6  A    between atoms: O3_8  and  C4_9 
REMARK    7  A    between atoms: N1_16  and  C8_17 
REMARK    8  A    between atoms: C8_17  and  C9_18 
REMARK    9  A    between atoms: C8_17  and  C10_21 
REMARK   10  A    between atoms: C9_18  and  O4_19 
REMARK   11  A    between atoms: C10_21  and  O5_22 
ROOT
HETATM    1  C4  UNL     1      48.698  27.932  10.637  1.00  0.00     0.170 A 
HETATM    2  C5  UNL     1      49.479  27.587   9.569  1.00  0.00     0.110 A 
HETATM    3 CL1  UNL     1      49.234  27.909   7.845  1.00  0.00    -0.078 Cl
HETATM    4  C6  UNL     1      50.584  26.949  10.079  1.00  0.00     0.098 A 
HETATM    5 CL2  UNL     1      51.919  26.298   9.133  1.00  0.00    -0.079 Cl
HETATM    6  C7  UNL     1      50.429  26.931  11.465  1.00  0.00     0.132 A 
HETATM    7 CL3  UNL     1      51.639  26.177  12.501  1.00  0.00    -0.062 Cl
HETATM    8  N1  UNL     1      49.288  27.526  11.817  1.00  0.00    -0.306 N 
ENDROOT
BRANCH   1   9
HETATM    9  O3  UNL     1      47.516  28.564  10.589  1.00  0.00    -0.332 OA
BRANCH   9  10
HETATM   10  C3  UNL     1      47.016  29.795  10.369  1.00  0.00     0.211 C 
BRANCH  10  11
HETATM   11  C2  UNL     1      46.145  30.004   9.151  1.00  0.00     0.166 C 
BRANCH  11  12
HETATM   12  C1  UNL     1      46.481  31.363   8.531  1.00  0.00     0.198 C 
BRANCH  12  13
HETATM   13  O1  UNL     1      45.833  32.370   9.262  1.00  0.00    -0.398 OA
ATOM     14  H1  UNL     1      44.898  32.315   9.100  1.00  0.00     0.209 HD
ENDBRANCH  12  13
ENDBRANCH  11  12
BRANCH  11  15
HETATM   15  O2  UNL     1      44.824  30.148   9.676  1.00  0.00    -0.391 OA
ATOM     16  H2  UNL     1      44.784  29.554  10.417  1.00  0.00     0.210 HD
ENDBRANCH  11  15
ENDBRANCH  10  11
ENDBRANCH   9  10
ENDBRANCH   1   9
BRANCH   8  17
HETATM   17  C8  UNL     1      48.752  27.725  13.129  1.00  0.00     0.140 C 
BRANCH  17  18
HETATM   18  C9  UNL     1      49.139  26.659  14.131  1.00  0.00     0.192 C 
BRANCH  18  19
HETATM   19  O4  UNL     1      48.212  26.589  15.173  1.00  0.00    -0.399 OA
ATOM     20  H4  UNL     1      48.430  25.889  15.777  1.00  0.00     0.209 HD
ENDBRANCH  18  19
ENDBRANCH  17  18
BRANCH  17  21
HETATM   21  C10 UNL     1      49.119  29.043  13.772  1.00  0.00     0.192 C 
BRANCH  21  22
HETATM   22  O5  UNL     1      50.041  28.820  14.822  1.00  0.00    -0.399 OA
ATOM     23  H5  UNL     1      50.613  29.573  14.910  1.00  0.00     0.209 HD
ENDBRANCH  21  22
ENDBRANCH  17  21
ENDBRANCH   8  17
TORSDOF 11
ENDMDL
MODEL 2
REMARK VINA RESULT: -6.359435032      1.343      1.763
REMARK  11 active torsions:
REMARK  status: ('A' for Active; 'I' for Inactive)
REMARK    1  A    between atoms: O1_1  and  C1_3 
REMARK    2  A    between atoms: C1_3  and  C2_4 
REMARK    3  A    between atoms: C2_4  and  O2_5 
REMARK    4  A    between atoms: C2_4  and  C3_7 
REMARK    5  A    between atoms: C3_7  and  O3_8 
REMARK    6  A    between atoms: O3_8  and  C4_9 
REMARK    7  A    between atoms: N1_16  and  C8_17 
REMARK    8  A    between atoms: C8_17  and  C9_18 
REMARK    9  A    between atoms: C8_17  and  C10_21 
REMARK   10  A    between atoms: C9_18  and  O4_19 
REMARK   11  A    between atoms: C10_21  and  O5_22 
ROOT
HETATM    1  C4  UNL     1      48.821  28.300  10.014  1.00  0.00     0.170 A 
HETATM    2  C5  UNL     1      49.791  27.496   9.483  1.00  0.00     0.110 A 
HETATM    3 CL1  UNL     1      50.200  27.197   7.786  1.00  0.00    -0.078 Cl
HETATM    4  C6  UNL     1      50.477  26.953  10.542  1.00  0.00     0.098 A 
HETATM    5 CL2  UNL     1      51.838  25.842  10.421  1.00  0.00    -0.079 Cl
HETATM    6  C7  UNL     1      49.887  27.460  11.700  1.00  0.00     0.132 A 
HETATM    7 CL3  UNL     1      50.473  26.989  13.294  1.00  0.00    -0.062 Cl
HETATM    8  N1  UNL     1      48.881  28.281  11.393  1.00  0.00    -0.306 N 
ENDROOT
BRANCH   1   9
HETATM    9  O3  UNL     1      47.915  29.015   9.331  1.00  0.00    -0.332 OA
BRANCH   9  10
HETATM   10  C3  UNL     1      47.584  30.298   9.092  1.00  0.00     0.211 C 
BRANCH  10  11
HETATM   11  C2  UNL     1      46.290  30.576   8.361  1.00  0.00     0.166 C 
BRANCH  11  12
HETATM   12  C1  UNL     1      46.184  32.081   8.100  1.00  0.00     0.198 C 
BRANCH  12  13
HETATM   13  O1  UNL     1      45.762  32.719   9.276  1.00  0.00    -0.398 OA
ATOM     14  H1  UNL     1      45.147  32.153   9.729  1.00  0.00     0.209 HD
ENDBRANCH  12  13
ENDBRANCH  11  12
BRANCH  11  15
HETATM   15  O2  UNL     1      45.269  30.289   9.319  1.00  0.00    -0.391 OA
ATOM     16  H2  UNL     1      45.526  30.755  10.106  1.00  0.00     0.210 HD
ENDBRANCH  11  15
ENDBRANCH  10  11
ENDBRANCH   9  10
ENDBRANCH   1   9
BRANCH   8  17
HETATM   17  C8  UNL     1      48.020  29.008  12.275  1.00  0.00     0.140 C 
BRANCH  17  18
HETATM   18  C9  UNL     1      46.666  28.369  12.494  1.00  0.00     0.192 C 
BRANCH  18  19
HETATM   19  O4  UNL     1      45.717  28.889  11.611  1.00  0.00    -0.399 OA
ATOM     20  H4  UNL     1      45.878  28.592  10.723  1.00  0.00     0.209 HD
ENDBRANCH  18  19
ENDBRANCH  17  18
BRANCH  17  21
HETATM   21  C10 UNL     1      48.585  29.251  13.656  1.00  0.00     0.192 C 
BRANCH  21  22
HETATM   22  O5  UNL     1      47.804  28.567  14.618  1.00  0.00    -0.399 OA
ATOM     23  H5  UNL     1      48.001  28.900  15.485  1.00  0.00     0.209 HD
ENDBRANCH  21  22
ENDBRANCH  17  21
ENDBRANCH   8  17
TORSDOF 11
ENDMDL
MODEL 3
REMARK VINA RESULT: -6.279595145      2.268      3.997
REMARK  11 active torsions:
REMARK  status: ('A' for Active; 'I' for Inactive)
REMARK    1  A    between atoms: O1_1  and  C1_3 
REMARK    2  A    between atoms: C1_3  and  C2_4 
REMARK    3  A    between atoms: C2_4  and  O2_5 
REMARK    4  A    between atoms: C2_4  and  C3_7 
REMARK    5  A    between atoms: C3_7  and  O3_8 
REMARK    6  A    between atoms: O3_8  and  C4_9 
REMARK    7  A    between atoms: N1_16  and  C8_17 
REMARK    8  A    between atoms: C8_17  and  C9_18 
REMARK    9  A    between atoms: C8_17  and  C10_21 
REMARK   10  A    between atoms: C9_18  and  O4_19 
REMARK   11  A    between atoms: C10_21  and  O5_22 
ROOT
HETATM    1  C4  UNL     1      49.083  28.712  11.013  1.00  0.00     0.170 A 
HETATM    2  C5  UNL     1      49.040  28.272  12.307  1.00  0.00     0.110 A 
HETATM    3 CL1  UNL     1      47.934  28.726  13.613  1.00  0.00    -0.078 Cl
HETATM    4  C6  UNL     1      50.025  27.323  12.434  1.00  0.00     0.098 A 
HETATM    5 CL2  UNL     1      50.403  26.427  13.902  1.00  0.00    -0.079 Cl
HETATM    6  C7  UNL     1      50.641  27.219  11.186  1.00  0.00     0.132 A 
HETATM    7 CL3  UNL     1      51.984  26.107  10.930  1.00  0.00    -0.062 Cl
HETATM    8  N1  UNL     1      50.077  28.056  10.314  1.00  0.00    -0.306 N 
ENDROOT
BRANCH   1   9
HETATM    9  O3  UNL     1      48.299  29.650  10.463  1.00  0.00    -0.332 OA
BRANCH   9  10
HETATM   10  C3  UNL     1      47.000  30.001  10.405  1.00  0.00     0.211 C 
BRANCH  10  11
HETATM   11  C2  UNL     1      46.327  30.024   9.051  1.00  0.00     0.166 C 
BRANCH  11  12
HETATM   12  C1  UNL     1      46.478  31.423   8.448  1.00  0.00     0.198 C 
BRANCH  12  13
HETATM   13  O1  UNL     1      45.837  32.350   9.285  1.00  0.00    -0.398 OA
ATOM     14  H1  UNL     1      45.748  33.174   8.820  1.00  0.00     0.209 HD
ENDBRANCH  12  13
ENDBRANCH  11  12
BRANCH  11  15
HETATM   15  O2  UNL     1      44.934  29.888   9.340  1.00  0.00    -0.391 OA
ATOM     16  H2  UNL     1      44.818  30.281  10.197  1.00  0.00     0.210 HD
ENDBRANCH  11  15
ENDBRANCH  10  11
ENDBRANCH   9  10
ENDBRANCH   1   9
BRANCH   8  17
HETATM   17  C8  UNL     1      50.402  28.263   8.935  1.00  0.00     0.140 C 
BRANCH  17  18
HETATM   18  C9  UNL     1      51.871  28.516   8.671  1.00  0.00     0.192 C 
BRANCH  18  19
HETATM   19  O4  UNL     1      52.323  29.633   9.378  1.00  0.00    -0.399 OA
ATOM     20  H4  UNL     1      53.272  29.679   9.372  1.00  0.00     0.209 HD
ENDBRANCH  18  19
ENDBRANCH  17  18
BRANCH  17  21
HETATM   21  C10 UNL     1      50.010  27.131   8.014  1.00  0.00     0.192 C 
BRANCH  21  22
HETATM   22  O5  UNL     1      48.931  27.538   7.193  1.00  0.00    -0.399 OA
ATOM     23  H5  UNL     1      48.992  27.108   6.348  1.00  0.00     0.209 HD
ENDBRANCH  21  22
ENDBRANCH  17  21
ENDBRANCH   8  17
TORSDOF 11
ENDMDL
MODEL 4
REMARK VINA RESULT: -6.173788601      1.499      5.322
REMARK  11 active torsions:
REMARK  status: ('A' for Active; 'I' for Inactive)
REMARK    1  A    between atoms: O1_1  and  C1_3 
REMARK    2  A    between atoms: C1_3  and  C2_4 
REMARK    3  A    between atoms: C2_4  and  O2_5 
REMARK    4  A    between atoms: C2_4  and  C3_7 
REMARK    5  A    between atoms: C3_7  and  O3_8 
REMARK    6  A    between atoms: O3_8  and  C4_9 
REMARK    7  A    between atoms: N1_16  and  C8_17 
REMARK    8  A    between atoms: C8_17  and  C9_18 
REMARK    9  A    between atoms: C8_17  and  C10_21 
REMARK   10  A    between atoms: C9_18  and  O4_19 
REMARK   11  A    between atoms: C10_21  and  O5_22 
ROOT
HETATM    1  C4  UNL     1      48.958  28.482  10.507  1.00  0.00     0.170 A 
HETATM    2  C5  UNL     1      49.983  27.790   9.924  1.00  0.00     0.110 A 
HETATM    3 CL1  UNL     1      51.094  26.611  10.640  1.00  0.00    -0.078 Cl
HETATM    4  C6  UNL     1      49.989  28.138   8.595  1.00  0.00     0.098 A 
HETATM    5 CL2  UNL     1      51.110  27.529   7.381  1.00  0.00    -0.079 Cl
HETATM    6  C7  UNL     1      48.945  29.046   8.417  1.00  0.00     0.132 A 
HETATM    7 CL3  UNL     1      48.622  29.755   6.836  1.00  0.00    -0.062 Cl
HETATM    8  N1  UNL     1      48.310  29.263   9.570  1.00  0.00    -0.306 N 
ENDROOT
BRANCH   1   9
HETATM    9  O3  UNL     1      48.604  28.446  11.800  1.00  0.00    -0.332 OA
BRANCH   9  10
HETATM   10  C3  UNL     1      48.744  29.172  12.926  1.00  0.00     0.211 C 
BRANCH  10  11
HETATM   11  C2  UNL     1      48.497  28.487  14.251  1.00  0.00     0.166 C 
BRANCH  11  12
HETATM   12  C1  UNL     1      49.148  27.101  14.220  1.00  0.00     0.198 C 
BRANCH  12  13
HETATM   13  O1  UNL     1      48.462  26.257  15.106  1.00  0.00    -0.398 OA
ATOM     14  H1  UNL     1      47.629  26.655  15.328  1.00  0.00     0.209 HD
ENDBRANCH  12  13
ENDBRANCH  11  12
BRANCH  11  15
HETATM   15  O2  UNL     1      47.090  28.240  14.270  1.00  0.00    -0.391 OA
ATOM     16  H2  UNL     1      46.715  28.970  14.750  1.00  0.00     0.210 HD
ENDBRANCH  11  15
ENDBRANCH  10  11
ENDBRANCH   9  10
ENDBRANCH   1   9
BRANCH   8  17
HETATM   17  C8  UNL     1      47.189  30.115   9.827  1.00  0.00     0.140 C 
BRANCH  17  18
HETATM   18  C9  UNL     1      46.720  30.909   8.627  1.00  0.00     0.192 C 
BRANCH  18  19
HETATM   19  O4  UNL     1      46.131  32.113   9.020  1.00  0.00    -0.399 OA
ATOM     20  H4  UNL     1      46.402  32.826   8.454  1.00  0.00     0.209 HD
ENDBRANCH  18  19
ENDBRANCH  17  18
BRANCH  17  21
HETATM   21  C10 UNL     1      45.962  29.409  10.355  1.00  0.00     0.192 C 
BRANCH  21  22
HETATM   22  O5  UNL     1      44.908  29.520   9.417  1.00  0.00    -0.399 OA
ATOM     23  H5  UNL     1      44.618  28.654   9.157  1.00  0.00     0.209 HD
ENDBRANCH  21  22
ENDBRANCH  17  21
ENDBRANCH   8  17
TORSDOF 11
ENDMDL
MODEL 5
REMARK VINA RESULT: -6.155840951      1.600      2.072
REMARK  11 active torsions:
REMARK  status: ('A' for Active; 'I' for Inactive)
REMARK    1  A    between atoms: O1_1  and  C1_3 
REMARK    2  A    between atoms: C1_3  and  C2_4 
REMARK    3  A    between atoms: C2_4  and  O2_5 
REMARK    4  A    between atoms: C2_4  and  C3_7 
REMARK    5  A    between atoms: C3_7  and  O3_8 
REMARK    6  A    between atoms: O3_8  and  C4_9 
REMARK    7  A    between atoms: N1_16  and  C8_17 
REMARK    8  A    between atoms: C8_17  and  C9_18 
REMARK    9  A    between atoms: C8_17  and  C10_21 
REMARK   10  A    between atoms: C9_18  and  O4_19 
REMARK   11  A    between atoms: C10_21  and  O5_22 
ROOT
HETATM    1  C4  UNL     1      49.918  27.809  11.768  1.00  0.00     0.170 A 
HETATM    2  C5  UNL     1      50.614  27.513  10.629  1.00  0.00     0.110 A 
HETATM    3 CL1  UNL     1      50.494  28.238   9.018  1.00  0.00    -0.078 Cl
HETATM    4  C6  UNL     1      51.517  26.533  10.961  1.00  0.00     0.098 A 
HETATM    5 CL2  UNL     1      52.673  25.787   9.861  1.00  0.00    -0.079 Cl
HETATM    6  C7  UNL     1      51.332  26.265  12.318  1.00  0.00     0.132 A 
HETATM    7 CL3  UNL     1      52.297  25.039  13.138  1.00  0.00    -0.062 Cl
HETATM    8  N1  UNL     1      50.365  27.034  12.820  1.00  0.00    -0.306 N 
ENDROOT
BRANCH   1   9
HETATM    9  O3  UNL     1      48.930  28.706  11.889  1.00  0.00    -0.332 OA
BRANCH   9  10
HETATM   10  C3  UNL     1      48.107  29.441  11.116  1.00  0.00     0.211 C 
BRANCH  10  11
HETATM   11  C2  UNL     1      46.695  28.944  10.903  1.00  0.00     0.166 C 
BRANCH  11  12
HETATM   12  C1  UNL     1      46.013  29.828   9.856  1.00  0.00     0.198 C 
BRANCH  12  13
HETATM   13  O1  UNL     1      44.741  29.304   9.578  1.00  0.00    -0.398 OA
ATOM     14  H1  UNL     1      44.756  28.366   9.724  1.00  0.00     0.209 HD
ENDBRANCH  12  13
ENDBRANCH  11  12
BRANCH  11  15
HETATM   15  O2  UNL     1      46.025  29.231  12.131  1.00  0.00    -0.391 OA
ATOM     16  H2  UNL     1      46.032  28.414  12.617  1.00  0.00     0.210 HD
ENDBRANCH  11  15
ENDBRANCH  10  11
ENDBRANCH   9  10
ENDBRANCH   1   9
BRANCH   8  17
HETATM   17  C8  UNL     1      49.865  27.080  14.161  1.00  0.00     0.140 C 
BRANCH  17  18
HETATM   18  C9  UNL     1      49.018  28.295  14.470  1.00  0.00     0.192 C 
BRANCH  18  19
HETATM   19  O4  UNL     1      47.657  27.998  14.367  1.00  0.00    -0.399 OA
ATOM     20  H4  UNL     1      47.428  27.751  13.478  1.00  0.00     0.209 HD
ENDBRANCH  18  19
ENDBRANCH  17  18
BRANCH  17  21
HETATM   21  C10 UNL     1      49.031  25.886  14.568  1.00  0.00     0.192 C 
BRANCH  21  22
HETATM   22  O5  UNL     1      48.678  25.996  15.934  1.00  0.00    -0.399 OA
ATOM     23  H5  UNL     1      48.149  25.249  16.188  1.00  0.00     0.209 HD
ENDBRANCH  21  22
ENDBRANCH  17  21
ENDBRANCH   8  17
TORSDOF 11
ENDMDL
