MODEL 1
REMARK VINA RESULT: -7.126487447      0.000      0.000
REMARK  9 active torsions:
REMARK  status: ('A' for Active; 'I' for Inactive)
REMARK    1  A    between atoms: O1_1  and  C1_3 
REMARK    2  A    between atoms: C2_4  and  C3_5 
REMARK    3  A    between atoms: C3_5  and  C4_6 
REMARK    4  A    between atoms: C4_6  and  C5_7 
REMARK    5  A    between atoms: C6_12  and  C7_13 
REMARK    6  A    between atoms: C7_13  and  S1_14 
REMARK    7  A    between atoms: S1_14  and  C8_15 
REMARK    8  A    between atoms: C9_20  and  C10_21 
REMARK    9  A    between atoms: C11_26  and  O2_27 
ROOT
HETATM    1  C1  UNL     1      46.868  29.007  10.159  1.00  0.00     0.179 C 
HETATM    2  C2  UNL     1      48.242  29.635  10.320  1.00  0.00     0.217 C 
HETATM    3  N1  UNL     1      48.732  29.243  11.615  1.00  0.00    -0.061 N 
ATOM      4  H11 UNL     1      49.119  30.026  12.141  1.00  0.00     0.278 HD
ATOM      5  H12 UNL     1      49.581  28.680  11.559  1.00  0.00     0.278 HD
HETATM    6  C6  UNL     1      47.669  28.573  12.317  1.00  0.00     0.227 C 
HETATM    7  C11 UNL     1      46.398  29.008  11.620  1.00  0.00     0.180 C 
ENDROOT
BRANCH   6   8
HETATM    8  C7  UNL     1      47.678  28.939  13.781  1.00  0.00     0.118 C 
BRANCH   8   9
HETATM    9  S1  UNL     1      49.313  28.463  14.433  1.00  0.00    -0.090 SA
BRANCH   9  10
HETATM   10  C8  UNL     1      49.395  26.711  14.771  1.00  0.00     0.160 A 
HETATM   11  N2  UNL     1      48.523  25.976  15.476  1.00  0.00    -0.278 N 
HETATM   12  N3  UNL     1      48.926  24.697  15.509  1.00  0.00    -0.282 N 
ATOM     13  H2  UNL     1      47.679  26.336  15.921  1.00  0.00     0.189 HD
HETATM   14  C9  UNL     1      50.073  24.604  14.818  1.00  0.00     0.164 A 
ATOM     15  H3  UNL     1      48.445  23.930  15.978  1.00  0.00     0.188 HD
HETATM   16  N4  UNL     1      50.351  25.839  14.371  1.00  0.00    -0.320 N 
ATOM     17  H4  UNL     1      51.166  26.086  13.810  1.00  0.00     0.169 HD
BRANCH  14  18
HETATM   18  C10 UNL     1      50.888  23.375  14.583  1.00  0.00     0.421 C 
HETATM   19  F2  UNL     1      51.896  23.638  13.677  1.00  0.00    -0.206 F 
HETATM   20  F3  UNL     1      51.513  22.978  15.757  1.00  0.00    -0.206 F 
ENDBRANCH  14  18
ENDBRANCH   9  10
ENDBRANCH   8   9
ENDBRANCH   6   8
BRANCH   7  21
HETATM   21  O2  UNL     1      45.357  28.112  11.807  1.00  0.00    -0.391 OA
ATOM     22  H2  UNL     1      44.517  28.534  11.674  1.00  0.00     0.210 HD
ENDBRANCH   7  21
BRANCH   2  23
HETATM   23  C3  UNL     1      49.207  29.134   9.271  1.00  0.00     0.038 C 
BRANCH  23  24
HETATM   24  C4  UNL     1      49.131  27.624   9.255  1.00  0.00     0.033 C 
BRANCH  24  25
HETATM   25  C5  UNL     1      50.471  26.997   9.582  1.00  0.00     0.222 C 
HETATM   26  F1  UNL     1      50.443  26.593  10.901  1.00  0.00    -0.255 F 
ENDBRANCH  24  25
ENDBRANCH  23  24
ENDBRANCH   2  23
BRANCH   1  27
HETATM   27  O1  UNL     1      46.073  29.841   9.378  1.00  0.00    -0.391 OA
ATOM     28  H1  UNL     1      45.201  29.470   9.313  1.00  0.00     0.210 HD
ENDBRANCH   1  27
TORSDOF 9
ENDMDL
MODEL 2
REMARK VINA RESULT: -7.088805066      1.086      1.276
REMARK  9 active torsions:
REMARK  status: ('A' for Active; 'I' for Inactive)
REMARK    1  A    between atoms: O1_1  and  C1_3 
REMARK    2  A    between atoms: C2_4  and  C3_5 
REMARK    3  A    between atoms: C3_5  and  C4_6 
REMARK    4  A    between atoms: C4_6  and  C5_7 
REMARK    5  A    between atoms: C6_12  and  C7_13 
REMARK    6  A    between atoms: C7_13  and  S1_14 
REMARK    7  A    between atoms: S1_14  and  C8_15 
REMARK    8  A    between atoms: C9_20  and  C10_21 
REMARK    9  A    between atoms: C11_26  and  O2_27 
ROOT
HETATM    1  C1  UNL     1      47.872  28.904   9.540  1.00  0.00     0.179 C 
HETATM    2  C2  UNL     1      49.250  28.648  10.124  1.00  0.00     0.217 C 
HETATM    3  N1  UNL     1      49.057  28.238  11.489  1.00  0.00    -0.061 N 
ATOM      4  H11 UNL     1      49.677  28.725  12.136  1.00  0.00     0.278 HD
ATOM      5  H12 UNL     1      49.391  27.290  11.664  1.00  0.00     0.278 HD
HETATM    6  C6  UNL     1      47.667  28.406  11.820  1.00  0.00     0.227 C 
HETATM    7  C11 UNL     1      47.131  29.383  10.796  1.00  0.00     0.180 C 
ENDROOT
BRANCH   6   8
HETATM    8  C7  UNL     1      47.507  28.907  13.234  1.00  0.00     0.118 C 
BRANCH   8   9
HETATM    9  S1  UNL     1      49.087  28.590  14.088  1.00  0.00    -0.090 SA
BRANCH   9  10
HETATM   10  C8  UNL     1      49.196  26.896  14.646  1.00  0.00     0.160 A 
HETATM   11  N2  UNL     1      48.383  26.268  15.507  1.00  0.00    -0.278 N 
HETATM   12  N3  UNL     1      48.789  25.001  15.677  1.00  0.00    -0.282 N 
ATOM     13  H2  UNL     1      47.577  26.691  15.966  1.00  0.00     0.189 HD
HETATM   14  C9  UNL     1      49.879  24.807  14.917  1.00  0.00     0.164 A 
ATOM     15  H3  UNL     1      48.347  24.306  16.279  1.00  0.00     0.188 HD
HETATM   16  N4  UNL     1      50.119  25.970  14.291  1.00  0.00    -0.320 N 
ATOM     17  H4  UNL     1      50.887  26.134  13.640  1.00  0.00     0.169 HD
BRANCH  14  18
HETATM   18  C10 UNL     1      50.674  23.551  14.784  1.00  0.00     0.421 C 
HETATM   19  F2  UNL     1      51.970  23.846  14.408  1.00  0.00    -0.206 F 
HETATM   20  F3  UNL     1      50.761  22.902  16.007  1.00  0.00    -0.206 F 
ENDBRANCH  14  18
ENDBRANCH   9  10
ENDBRANCH   8   9
ENDBRANCH   6   8
BRANCH   7  21
HETATM   21  O2  UNL     1      45.759  29.282  10.632  1.00  0.00    -0.391 OA
ATOM     22  H2  UNL     1      45.304  29.462  11.447  1.00  0.00     0.210 HD
ENDBRANCH   7  21
BRANCH   2  23
HETATM   23  C3  UNL     1      49.968  27.541   9.388  1.00  0.00     0.038 C 
BRANCH  23  24
HETATM   24  C4  UNL     1      50.845  26.817  10.384  1.00  0.00     0.033 C 
BRANCH  24  25
HETATM   25  C5  UNL     1      52.312  27.121  10.157  1.00  0.00     0.222 C 
HETATM   26  F1  UNL     1      52.883  27.407  11.381  1.00  0.00    -0.255 F 
ENDBRANCH  24  25
ENDBRANCH  23  24
ENDBRANCH   2  23
BRANCH   1  27
HETATM   27  O1  UNL     1      47.957  29.919   8.592  1.00  0.00    -0.391 OA
ATOM     28  H1  UNL     1      48.350  30.687   8.991  1.00  0.00     0.210 HD
ENDBRANCH   1  27
TORSDOF 9
ENDMDL
MODEL 3
REMARK VINA RESULT: -6.955853758      2.397      3.711
REMARK  9 active torsions:
REMARK  status: ('A' for Active; 'I' for Inactive)
REMARK    1  A    between atoms: O1_1  and  C1_3 
REMARK    2  A    between atoms: C2_4  and  C3_5 
REMARK    3  A    between atoms: C3_5  and  C4_6 
REMARK    4  A    between atoms: C4_6  and  C5_7 
REMARK    5  A    between atoms: C6_12  and  C7_13 
REMARK    6  A    between atoms: C7_13  and  S1_14 
REMARK    7  A    between atoms: S1_14  and  C8_15 
REMARK    8  A    between atoms: C9_20  and  C10_21 
REMARK    9  A    between atoms: C11_26  and  O2_27 
ROOT
HETATM    1  C1  UNL     1      47.018  29.386  10.780  1.00  0.00     0.179 C 
HETATM    2  C2  UNL     1      47.406  28.325  11.794  1.00  0.00     0.217 C 
HETATM    3  N1  UNL     1      48.758  27.934  11.496  1.00  0.00    -0.061 N 
ATOM      4  H11 UNL     1      48.880  26.922  11.481  1.00  0.00     0.278 HD
ATOM      5  H12 UNL     1      49.403  28.141  12.258  1.00  0.00     0.278 HD
HETATM    6  C6  UNL     1      49.146  28.557  10.257  1.00  0.00     0.227 C 
HETATM    7  C11 UNL     1      47.846  28.922   9.574  1.00  0.00     0.180 C 
ENDROOT
BRANCH   6   8
HETATM    8  C7  UNL     1      49.992  27.624   9.427  1.00  0.00     0.118 C 
BRANCH   8   9
HETATM    9  S1  UNL     1      51.689  27.723  10.088  1.00  0.00    -0.090 SA
BRANCH   9  10
HETATM   10  C8  UNL     1      51.981  26.467  11.323  1.00  0.00     0.160 A 
HETATM   11  N2  UNL     1      52.435  25.220  11.127  1.00  0.00    -0.278 N 
HETATM   12  N3  UNL     1      52.521  24.575  12.299  1.00  0.00    -0.282 N 
ATOM     13  H2  UNL     1      52.679  24.822  10.220  1.00  0.00     0.189 HD
HETATM   14  C9  UNL     1      52.116  25.414  13.266  1.00  0.00     0.164 A 
ATOM     15  H3  UNL     1      52.838  23.616  12.433  1.00  0.00     0.188 HD
HETATM   16  N4  UNL     1      51.788  26.566  12.660  1.00  0.00    -0.320 N 
ATOM     17  H4  UNL     1      51.444  27.398  13.138  1.00  0.00     0.169 HD
BRANCH  14  18
HETATM   18  C10 UNL     1      52.042  25.134  14.730  1.00  0.00     0.421 C 
HETATM   19  F2  UNL     1      51.600  23.843  14.947  1.00  0.00    -0.206 F 
HETATM   20  F3  UNL     1      53.304  25.214  15.303  1.00  0.00    -0.206 F 
ENDBRANCH  14  18
ENDBRANCH   9  10
ENDBRANCH   8   9
ENDBRANCH   6   8
BRANCH   7  21
HETATM   21  O2  UNL     1      48.000  29.948   8.653  1.00  0.00    -0.391 OA
ATOM     22  H2  UNL     1      48.009  29.610   7.766  1.00  0.00     0.210 HD
ENDBRANCH   7  21
BRANCH   2  23
HETATM   23  C3  UNL     1      47.363  28.863  13.205  1.00  0.00     0.038 C 
BRANCH  23  24
HETATM   24  C4  UNL     1      48.772  29.249  13.596  1.00  0.00     0.033 C 
BRANCH  24  25
HETATM   25  C5  UNL     1      49.304  28.363  14.704  1.00  0.00     0.222 C 
HETATM   26  F1  UNL     1      50.554  28.827  15.060  1.00  0.00    -0.255 F 
ENDBRANCH  24  25
ENDBRANCH  23  24
ENDBRANCH   2  23
BRANCH   1  27
HETATM   27  O1  UNL     1      45.655  29.290  10.516  1.00  0.00    -0.391 OA
ATOM     28  H1  UNL     1      45.184  29.885  11.087  1.00  0.00     0.210 HD
ENDBRANCH   1  27
TORSDOF 9
ENDMDL
MODEL 4
REMARK VINA RESULT: -6.918794368      1.364      1.738
REMARK  9 active torsions:
REMARK  status: ('A' for Active; 'I' for Inactive)
REMARK    1  A    between atoms: O1_1  and  C1_3 
REMARK    2  A    between atoms: C2_4  and  C3_5 
REMARK    3  A    between atoms: C3_5  and  C4_6 
REMARK    4  A    between atoms: C4_6  and  C5_7 
REMARK    5  A    between atoms: C6_12  and  C7_13 
REMARK    6  A    between atoms: C7_13  and  S1_14 
REMARK    7  A    between atoms: S1_14  and  C8_15 
REMARK    8  A    between atoms: C9_20  and  C10_21 
REMARK    9  A    between atoms: C11_26  and  O2_27 
ROOT
HETATM    1  C1  UNL     1      47.615  29.051   9.469  1.00  0.00     0.179 C 
HETATM    2  C2  UNL     1      48.991  28.875  10.085  1.00  0.00     0.217 C 
HETATM    3  N1  UNL     1      48.790  28.404  11.430  1.00  0.00    -0.061 N 
ATOM      4  H11 UNL     1      49.354  28.911  12.112  1.00  0.00     0.278 HD
ATOM      5  H12 UNL     1      49.187  27.477  11.584  1.00  0.00     0.278 HD
HETATM    6  C6  UNL     1      47.382  28.460  11.723  1.00  0.00     0.227 C 
HETATM    7  C11 UNL     1      46.806  29.432  10.716  1.00  0.00     0.180 C 
ENDROOT
BRANCH   6   8
HETATM    8  C7  UNL     1      47.146  28.898  13.148  1.00  0.00     0.118 C 
BRANCH   8   9
HETATM    9  S1  UNL     1      48.773  28.912  13.971  1.00  0.00    -0.090 SA
BRANCH   9  10
HETATM   10  C8  UNL     1      49.350  27.254  14.300  1.00  0.00     0.160 A 
HETATM   11  N2  UNL     1      50.539  26.725  13.976  1.00  0.00    -0.278 N 
HETATM   12  N3  UNL     1      50.601  25.451  14.390  1.00  0.00    -0.282 N 
ATOM     13  H2  UNL     1      51.286  27.219  13.488  1.00  0.00     0.189 HD
HETATM   14  C9  UNL     1      49.436  25.151  14.988  1.00  0.00     0.164 A 
ATOM     15  H3  UNL     1      51.393  24.821  14.272  1.00  0.00     0.188 HD
HETATM   16  N4  UNL     1      48.680  26.258  14.928  1.00  0.00    -0.320 N 
ATOM     17  H4  UNL     1      47.734  26.339  15.302  1.00  0.00     0.169 HD
BRANCH  14  18
HETATM   18  C10 UNL     1      49.048  23.848  15.604  1.00  0.00     0.421 C 
HETATM   19  F2  UNL     1      48.350  23.080  14.692  1.00  0.00    -0.206 F 
HETATM   20  F3  UNL     1      50.179  23.118  15.943  1.00  0.00    -0.206 F 
ENDBRANCH  14  18
ENDBRANCH   9  10
ENDBRANCH   8   9
ENDBRANCH   6   8
BRANCH   7  21
HETATM   21  O2  UNL     1      45.450  29.238  10.507  1.00  0.00    -0.391 OA
ATOM     22  H2  UNL     1      45.187  28.362  10.764  1.00  0.00     0.210 HD
ENDBRANCH   7  21
BRANCH   2  23
HETATM   23  C3  UNL     1      49.809  27.849   9.336  1.00  0.00     0.038 C 
BRANCH  23  24
HETATM   24  C4  UNL     1      50.527  26.995  10.356  1.00  0.00     0.033 C 
BRANCH  24  25
HETATM   25  C5  UNL     1      51.656  26.207   9.724  1.00  0.00     0.222 C 
HETATM   26  F1  UNL     1      51.257  25.828   8.458  1.00  0.00    -0.255 F 
ENDBRANCH  24  25
ENDBRANCH  23  24
ENDBRANCH   2  23
BRANCH   1  27
HETATM   27  O1  UNL     1      47.653  30.103   8.558  1.00  0.00    -0.391 OA
ATOM     28  H1  UNL     1      47.195  29.848   7.766  1.00  0.00     0.210 HD
ENDBRANCH   1  27
TORSDOF 9
ENDMDL
MODEL 5
REMARK VINA RESULT: -6.871299099      1.280      1.309
REMARK  9 active torsions:
REMARK  status: ('A' for Active; 'I' for Inactive)
REMARK    1  A    between atoms: O1_1  and  C1_3 
REMARK    2  A    between atoms: C2_4  and  C3_5 
REMARK    3  A    between atoms: C3_5  and  C4_6 
REMARK    4  A    between atoms: C4_6  and  C5_7 
REMARK    5  A    between atoms: C6_12  and  C7_13 
REMARK    6  A    between atoms: C7_13  and  S1_14 
REMARK    7  A    between atoms: S1_14  and  C8_15 
REMARK    8  A    between atoms: C9_20  and  C10_21 
REMARK    9  A    between atoms: C11_26  and  O2_27 
ROOT
HETATM    1  C1  UNL     1      47.901  29.292   9.824  1.00  0.00     0.179 C 
HETATM    2  C2  UNL     1      49.294  29.234  10.424  1.00  0.00     0.217 C 
HETATM    3  N1  UNL     1      49.171  28.599  11.709  1.00  0.00    -0.061 N 
ATOM      4  H11 UNL     1      49.670  29.100  12.444  1.00  0.00     0.278 HD
ATOM      5  H12 UNL     1      49.688  27.721  11.764  1.00  0.00     0.278 HD
HETATM    6  C6  UNL     1      47.772  28.437  12.001  1.00  0.00     0.227 C 
HETATM    7  C11 UNL     1      47.062  29.426  11.103  1.00  0.00     0.180 C 
ENDROOT
BRANCH   6   8
HETATM    8  C7  UNL     1      47.494  28.684  13.464  1.00  0.00     0.118 C 
BRANCH   8   9
HETATM    9  S1  UNL     1      49.058  28.388  14.354  1.00  0.00    -0.090 SA
BRANCH   9  10
HETATM   10  C8  UNL     1      49.256  26.660  14.764  1.00  0.00     0.160 A 
HETATM   11  N2  UNL     1      48.474  25.918  15.562  1.00  0.00    -0.278 N 
HETATM   12  N3  UNL     1      48.946  24.664  15.625  1.00  0.00    -0.282 N 
ATOM     13  H2  UNL     1      47.644  26.257  16.048  1.00  0.00     0.189 HD
HETATM   14  C9  UNL     1      50.047  24.595  14.860  1.00  0.00     0.164 A 
ATOM     15  H3  UNL     1      48.540  23.898  16.161  1.00  0.00     0.188 HD
HETATM   16  N4  UNL     1      50.228  25.819  14.339  1.00  0.00    -0.320 N 
ATOM     17  H4  UNL     1      50.989  26.078  13.712  1.00  0.00     0.169 HD
BRANCH  14  18
HETATM   18  C10 UNL     1      50.909  23.399  14.626  1.00  0.00     0.421 C 
HETATM   19  F2  UNL     1      52.049  23.761  13.936  1.00  0.00    -0.206 F 
HETATM   20  F3  UNL     1      51.337  22.867  15.834  1.00  0.00    -0.206 F 
ENDBRANCH  14  18
ENDBRANCH   9  10
ENDBRANCH   8   9
ENDBRANCH   6   8
BRANCH   7  21
HETATM   21  O2  UNL     1      45.741  29.078  10.868  1.00  0.00    -0.391 OA
ATOM     22  H2  UNL     1      45.666  28.158  10.642  1.00  0.00     0.210 HD
ENDBRANCH   7  21
BRANCH   2  23
HETATM   23  C3  UNL     1      50.232  28.412   9.572  1.00  0.00     0.038 C 
BRANCH  23  24
HETATM   24  C4  UNL     1      49.414  27.344   8.881  1.00  0.00     0.033 C 
BRANCH  24  25
HETATM   25  C5  UNL     1      49.885  27.117   7.458  1.00  0.00     0.222 C 
HETATM   26  F1  UNL     1      48.926  26.369   6.805  1.00  0.00    -0.255 F 
ENDBRANCH  24  25
ENDBRANCH  23  24
ENDBRANCH   2  23
BRANCH   1  27
HETATM   27  O1  UNL     1      47.790  30.431   9.032  1.00  0.00    -0.391 OA
ATOM     28  H1  UNL     1      48.656  30.702   8.752  1.00  0.00     0.210 HD
ENDBRANCH   1  27
TORSDOF 9
ENDMDL
