MODEL 1
REMARK VINA RESULT: -7.179676185      0.000      0.000
REMARK  7 active torsions:
REMARK  status: ('A' for Active; 'I' for Inactive)
REMARK    1  A    between atoms: C2_2  and  O1_3 
REMARK    2  A    between atoms: C5_10  and  N1_11 
REMARK    3  A    between atoms: C6_15  and  C7_16 
REMARK    4  A    between atoms: C7_16  and  C8_17 
REMARK    5  A    between atoms: C8_17  and  C9_18 
REMARK    6  A    between atoms: C11_21  and  N4_22 
REMARK    7  A    between atoms: N4_22  and  O3_23 
ROOT
HETATM    1  N1  UNL     1      48.247  28.873  10.728  1.00  0.00    -0.231 N 
HETATM    2  N2  UNL     1      47.876  30.107  10.420  1.00  0.00    -0.015 NA
HETATM    3  N3  UNL     1      48.281  29.869   9.171  1.00  0.00    -0.271 N 
ATOM      4  H3  UNL     1      48.299  30.422   8.314  1.00  0.00     0.185 HD
HETATM    5  C6  UNL     1      48.654  28.631   9.479  1.00  0.00     0.112 A 
ENDROOT
BRANCH   1   6
HETATM    6  C5  UNL     1      48.211  28.114  11.957  1.00  0.00     0.284 C 
HETATM    7  C2  UNL     1      48.099  28.992  13.181  1.00  0.00     0.107 C 
HETATM    8  C1  UNL     1      49.063  30.140  13.161  1.00  0.00     0.051 C 
HETATM    9  C3  UNL     1      48.590  28.026  14.266  1.00  0.00     0.154 C 
HETATM   10  C4  UNL     1      49.535  27.164  13.488  1.00  0.00     0.359 C 
HETATM   11  F1  UNL     1      49.335  25.842  13.811  1.00  0.00    -0.176 F 
HETATM   12  F2  UNL     1      50.843  27.471  13.880  1.00  0.00    -0.176 F 
HETATM   13  O2  UNL     1      49.385  27.436  12.155  1.00  0.00    -0.296 OA
BRANCH   7  14
HETATM   14  O1  UNL     1      46.800  29.382  13.429  1.00  0.00    -0.385 OA
ATOM     15  H1  UNL     1      46.221  29.242  12.689  1.00  0.00     0.210 HD
ENDBRANCH   7  14
ENDBRANCH   1   6
BRANCH   5  16
HETATM   16  C7  UNL     1      49.259  27.433   8.824  1.00  0.00     0.079 C 
BRANCH  16  17
HETATM   17  C8  UNL     1      50.745  27.447   8.969  1.00  0.00     0.015 C 
BRANCH  17  18
HETATM   18  C9  UNL     1      51.260  26.069   9.185  1.00  0.00     0.029 A 
HETATM   19  C10 UNL     1      52.058  25.860  10.472  1.00  0.00     0.110 A 
HETATM   20 CL1  UNL     1      52.760  27.225  11.330  1.00  0.00    -0.123 Cl
HETATM   21  C11 UNL     1      52.656  25.648   9.112  1.00  0.00     0.130 A 
BRANCH  21  22
HETATM   22  N4  UNL     1      53.702  26.529   8.631  1.00  0.00    -0.097 NA
BRANCH  22  23
HETATM   23  O3  UNL     1      54.900  25.903   8.686  1.00  0.00    -0.296 OA
ATOM     24  H3  UNL     1      55.274  25.836   7.815  1.00  0.00     0.238 HD
ENDBRANCH  22  23
ENDBRANCH  21  22
ENDBRANCH  17  18
ENDBRANCH  16  17
ENDBRANCH   5  16
TORSDOF 7
ENDMDL
MODEL 2
REMARK VINA RESULT: -6.963460596      3.577      4.790
REMARK  7 active torsions:
REMARK  status: ('A' for Active; 'I' for Inactive)
REMARK    1  A    between atoms: C2_2  and  O1_3 
REMARK    2  A    between atoms: C5_10  and  N1_11 
REMARK    3  A    between atoms: C6_15  and  C7_16 
REMARK    4  A    between atoms: C7_16  and  C8_17 
REMARK    5  A    between atoms: C8_17  and  C9_18 
REMARK    6  A    between atoms: C11_21  and  N4_22 
REMARK    7  A    between atoms: N4_22  and  O3_23 
ROOT
HETATM    1  N1  UNL     1      49.022  27.796  13.037  1.00  0.00    -0.231 N 
HETATM    2  N2  UNL     1      47.733  28.033  13.238  1.00  0.00    -0.015 NA
HETATM    3  N3  UNL     1      47.847  27.405  14.410  1.00  0.00    -0.271 N 
ATOM      4  H3  UNL     1      47.196  27.191  15.166  1.00  0.00     0.185 HD
HETATM    5  C6  UNL     1      49.139  27.167  14.210  1.00  0.00     0.112 A 
ENDROOT
BRANCH   1   6
HETATM    6  C5  UNL     1      49.921  28.112  11.951  1.00  0.00     0.284 C 
HETATM    7  C2  UNL     1      49.249  28.894  10.847  1.00  0.00     0.107 C 
HETATM    8  C1  UNL     1      47.930  28.307  10.441  1.00  0.00     0.051 C 
HETATM    9  C3  UNL     1      50.219  28.634   9.688  1.00  0.00     0.154 C 
HETATM   10  C4  UNL     1      50.756  27.284  10.049  1.00  0.00     0.359 C 
HETATM   11  F1  UNL     1      52.121  27.263   9.877  1.00  0.00    -0.176 F 
HETATM   12  F2  UNL     1      50.232  26.343   9.156  1.00  0.00    -0.176 F 
HETATM   13  O2  UNL     1      50.355  26.975  11.321  1.00  0.00    -0.296 OA
BRANCH   7  14
HETATM   14  O1  UNL     1      49.177  30.241  11.128  1.00  0.00    -0.385 OA
ATOM     15  H1  UNL     1      49.267  30.434  12.054  1.00  0.00     0.210 HD
ENDBRANCH   7  14
ENDBRANCH   1   6
BRANCH   5  16
HETATM   16  C7  UNL     1      50.292  26.512  14.897  1.00  0.00     0.079 C 
BRANCH  16  17
HETATM   17  C8  UNL     1      50.496  25.127  14.380  1.00  0.00     0.015 C 
BRANCH  17  18
HETATM   18  C9  UNL     1      51.790  25.029  13.653  1.00  0.00     0.029 A 
HETATM   19  C10 UNL     1      52.364  23.618  13.520  1.00  0.00     0.110 A 
HETATM   20 CL1  UNL     1      51.834  22.324  14.587  1.00  0.00    -0.123 Cl
HETATM   21  C11 UNL     1      53.089  24.716  14.241  1.00  0.00     0.130 A 
BRANCH  21  22
HETATM   22  N4  UNL     1      53.286  24.640  15.675  1.00  0.00    -0.097 NA
BRANCH  22  23
HETATM   23  O3  UNL     1      53.804  25.803  16.136  1.00  0.00    -0.296 OA
ATOM     24  H3  UNL     1      54.700  25.670  16.423  1.00  0.00     0.238 HD
ENDBRANCH  22  23
ENDBRANCH  21  22
ENDBRANCH  17  18
ENDBRANCH  16  17
ENDBRANCH   5  16
TORSDOF 7
ENDMDL
MODEL 3
REMARK VINA RESULT: -6.954882320      2.348      2.732
REMARK  7 active torsions:
REMARK  status: ('A' for Active; 'I' for Inactive)
REMARK    1  A    between atoms: C2_2  and  O1_3 
REMARK    2  A    between atoms: C5_10  and  N1_11 
REMARK    3  A    between atoms: C6_15  and  C7_16 
REMARK    4  A    between atoms: C7_16  and  C8_17 
REMARK    5  A    between atoms: C8_17  and  C9_18 
REMARK    6  A    between atoms: C11_21  and  N4_22 
REMARK    7  A    between atoms: N4_22  and  O3_23 
ROOT
HETATM    1  N1  UNL     1      48.231  28.752  10.887  1.00  0.00    -0.231 N 
HETATM    2  N2  UNL     1      47.763  29.927  10.491  1.00  0.00    -0.015 NA
HETATM    3  N3  UNL     1      48.276  29.675   9.285  1.00  0.00    -0.271 N 
ATOM      4  H3  UNL     1      48.299  30.187   8.404  1.00  0.00     0.185 HD
HETATM    5  C6  UNL     1      48.745  28.496   9.681  1.00  0.00     0.112 A 
ENDROOT
BRANCH   1   6
HETATM    6  C5  UNL     1      48.183  28.049  12.148  1.00  0.00     0.284 C 
HETATM    7  C2  UNL     1      48.131  28.984  13.333  1.00  0.00     0.107 C 
HETATM    8  C1  UNL     1      49.144  30.087  13.248  1.00  0.00     0.051 C 
HETATM    9  C3  UNL     1      48.599  28.046  14.453  1.00  0.00     0.154 C 
HETATM   10  C4  UNL     1      49.493  27.110  13.699  1.00  0.00     0.359 C 
HETATM   11  F1  UNL     1      49.241  25.813  14.083  1.00  0.00    -0.176 F 
HETATM   12  F2  UNL     1      50.819  27.376  14.056  1.00  0.00    -0.176 F 
HETATM   13  O2  UNL     1      49.330  27.330  12.357  1.00  0.00    -0.296 OA
BRANCH   7  14
HETATM   14  O1  UNL     1      46.855  29.441  13.585  1.00  0.00    -0.385 OA
ATOM     15  H1  UNL     1      46.641  29.459  14.510  1.00  0.00     0.210 HD
ENDBRANCH   7  14
ENDBRANCH   1   6
BRANCH   5  16
HETATM   16  C7  UNL     1      49.508  27.336   9.129  1.00  0.00     0.079 C 
BRANCH  16  17
HETATM   17  C8  UNL     1      50.889  27.750   8.741  1.00  0.00     0.015 C 
BRANCH  17  18
HETATM   18  C9  UNL     1      51.068  27.647   7.269  1.00  0.00     0.029 A 
HETATM   19  C10 UNL     1      52.199  28.493   6.683  1.00  0.00     0.110 A 
HETATM   20 CL1  UNL     1      52.858  29.859   7.574  1.00  0.00    -0.123 Cl
HETATM   21  C11 UNL     1      50.764  28.686   6.287  1.00  0.00     0.130 A 
BRANCH  21  22
HETATM   22  N4  UNL     1      50.066  29.904   6.648  1.00  0.00    -0.097 NA
BRANCH  22  23
HETATM   23  O3  UNL     1      48.738  29.761   6.430  1.00  0.00    -0.296 OA
ATOM     24  H3  UNL     1      48.287  30.577   6.614  1.00  0.00     0.238 HD
ENDBRANCH  22  23
ENDBRANCH  21  22
ENDBRANCH  17  18
ENDBRANCH  16  17
ENDBRANCH   5  16
TORSDOF 7
ENDMDL
MODEL 4
REMARK VINA RESULT: -6.940782545      1.709      1.929
REMARK  7 active torsions:
REMARK  status: ('A' for Active; 'I' for Inactive)
REMARK    1  A    between atoms: C2_2  and  O1_3 
REMARK    2  A    between atoms: C5_10  and  N1_11 
REMARK    3  A    between atoms: C6_15  and  C7_16 
REMARK    4  A    between atoms: C7_16  and  C8_17 
REMARK    5  A    between atoms: C8_17  and  C9_18 
REMARK    6  A    between atoms: C11_21  and  N4_22 
REMARK    7  A    between atoms: N4_22  and  O3_23 
ROOT
HETATM    1  N1  UNL     1      48.153  28.857  10.771  1.00  0.00    -0.231 N 
HETATM    2  N2  UNL     1      47.788  30.089  10.448  1.00  0.00    -0.015 NA
HETATM    3  N3  UNL     1      48.172  29.828   9.197  1.00  0.00    -0.271 N 
ATOM      4  H3  UNL     1      48.181  30.367   8.332  1.00  0.00     0.185 HD
HETATM    5  C6  UNL     1      48.539  28.591   9.519  1.00  0.00     0.112 A 
ENDROOT
BRANCH   1   6
HETATM    6  C5  UNL     1      48.130  28.117  12.012  1.00  0.00     0.284 C 
HETATM    7  C2  UNL     1      48.080  29.017  13.224  1.00  0.00     0.107 C 
HETATM    8  C1  UNL     1      49.079  30.134  13.159  1.00  0.00     0.051 C 
HETATM    9  C3  UNL     1      48.573  28.053  14.311  1.00  0.00     0.154 C 
HETATM   10  C4  UNL     1      49.468  27.150  13.519  1.00  0.00     0.359 C 
HETATM   11  F1  UNL     1      49.237  25.840  13.868  1.00  0.00    -0.176 F 
HETATM   12  F2  UNL     1      50.796  27.422  13.869  1.00  0.00    -0.176 F 
HETATM   13  O2  UNL     1      49.287  27.407  12.186  1.00  0.00    -0.296 OA
BRANCH   7  14
HETATM   14  O1  UNL     1      46.802  29.451  13.504  1.00  0.00    -0.385 OA
ATOM     15  H1  UNL     1      46.783  30.239  14.033  1.00  0.00     0.210 HD
ENDBRANCH   7  14
ENDBRANCH   1   6
BRANCH   5  16
HETATM   16  C7  UNL     1      49.122  27.378   8.875  1.00  0.00     0.079 C 
BRANCH  16  17
HETATM   17  C8  UNL     1      50.611  27.388   8.981  1.00  0.00     0.015 C 
BRANCH  17  18
HETATM   18  C9  UNL     1      51.204  28.210   7.892  1.00  0.00     0.029 A 
HETATM   19  C10 UNL     1      52.589  27.768   7.415  1.00  0.00     0.110 A 
HETATM   20 CL1  UNL     1      53.603  26.741   8.420  1.00  0.00    -0.123 Cl
HETATM   21  C11 UNL     1      52.339  29.120   8.018  1.00  0.00     0.130 A 
BRANCH  21  22
HETATM   22  N4  UNL     1      52.913  29.461   9.305  1.00  0.00    -0.097 NA
BRANCH  22  23
HETATM   23  O3  UNL     1      53.375  30.733   9.287  1.00  0.00    -0.296 OA
ATOM     24  H3  UNL     1      53.310  31.117  10.154  1.00  0.00     0.238 HD
ENDBRANCH  22  23
ENDBRANCH  21  22
ENDBRANCH  17  18
ENDBRANCH  16  17
ENDBRANCH   5  16
TORSDOF 7
ENDMDL
MODEL 5
REMARK VINA RESULT: -6.858583421      2.990      4.155
REMARK  7 active torsions:
REMARK  status: ('A' for Active; 'I' for Inactive)
REMARK    1  A    between atoms: C2_2  and  O1_3 
REMARK    2  A    between atoms: C5_10  and  N1_11 
REMARK    3  A    between atoms: C6_15  and  C7_16 
REMARK    4  A    between atoms: C7_16  and  C8_17 
REMARK    5  A    between atoms: C8_17  and  C9_18 
REMARK    6  A    between atoms: C11_21  and  N4_22 
REMARK    7  A    between atoms: N4_22  and  O3_23 
ROOT
HETATM    1  N1  UNL     1      49.936  27.066  11.055  1.00  0.00    -0.231 N 
HETATM    2  N2  UNL     1      49.696  27.178   9.756  1.00  0.00    -0.015 NA
HETATM    3  N3  UNL     1      50.961  26.814   9.537  1.00  0.00    -0.271 N 
ATOM      4  H3  UNL     1      51.523  26.676   8.697  1.00  0.00     0.185 HD
HETATM    5  C6  UNL     1      51.203  26.701  10.839  1.00  0.00     0.112 A 
ENDROOT
BRANCH   1   6
HETATM    6  C5  UNL     1      49.117  27.270  12.227  1.00  0.00     0.284 C 
HETATM    7  C2  UNL     1      48.225  28.483  12.110  1.00  0.00     0.107 C 
HETATM    8  C1  UNL     1      48.956  29.696  11.617  1.00  0.00     0.051 C 
HETATM    9  C3  UNL     1      47.901  28.738  13.587  1.00  0.00     0.154 C 
HETATM   10  C4  UNL     1      49.135  28.213  14.255  1.00  0.00     0.359 C 
HETATM   11  F1  UNL     1      48.787  27.450  15.345  1.00  0.00    -0.176 F 
HETATM   12  F2  UNL     1      49.868  29.297  14.751  1.00  0.00    -0.176 F 
HETATM   13  O2  UNL     1      49.886  27.542  13.327  1.00  0.00    -0.296 OA
BRANCH   7  14
HETATM   14  O1  UNL     1      47.073  28.221  11.399  1.00  0.00    -0.385 OA
ATOM     15  H1  UNL     1      46.781  28.959  10.877  1.00  0.00     0.210 HD
ENDBRANCH   7  14
ENDBRANCH   1   6
BRANCH   5  16
HETATM   16  C7  UNL     1      52.325  26.343  11.756  1.00  0.00     0.079 C 
BRANCH  16  17
HETATM   17  C8  UNL     1      52.084  25.012  12.389  1.00  0.00     0.015 C 
BRANCH  17  18
HETATM   18  C9  UNL     1      52.288  25.090  13.859  1.00  0.00     0.029 A 
HETATM   19  C10 UNL     1      52.493  23.750  14.567  1.00  0.00     0.110 A 
HETATM   20 CL1  UNL     1      51.990  22.244  13.810  1.00  0.00    -0.123 Cl
HETATM   21  C11 UNL     1      51.343  24.661  14.887  1.00  0.00     0.130 A 
BRANCH  21  22
HETATM   22  N4  UNL     1      49.987  24.262  14.565  1.00  0.00    -0.097 NA
BRANCH  22  23
HETATM   23  O3  UNL     1      49.188  24.417  15.647  1.00  0.00    -0.296 OA
ATOM     24  H3  UNL     1      48.731  25.248  15.599  1.00  0.00     0.238 HD
ENDBRANCH  22  23
ENDBRANCH  21  22
ENDBRANCH  17  18
ENDBRANCH  16  17
ENDBRANCH   5  16
TORSDOF 7
ENDMDL
