MODEL 1
REMARK VINA RESULT: -6.601291674      0.000      0.000
REMARK  7 active torsions:
REMARK  status: ('A' for Active; 'I' for Inactive)
REMARK    1  A    between atoms: N1_2  and  C3_4 
REMARK    2  A    between atoms: C3_4  and  C4_5 
REMARK    3  A    between atoms: C6_9  and  N3_10 
REMARK    4  A    between atoms: C11_18  and  N4_19 
REMARK    5  A    between atoms: N4_19  and  C12_22 
REMARK    6  A    between atoms: C12_22  and  C13_23 
REMARK       I    between atoms: C13_23  and  N5_25 
REMARK    7  A    between atoms: N5_25  and  C14_27 
ROOT
HETATM    1  C3  UNL     1      48.768  27.258  14.292  1.00  0.00     0.221 C 
HETATM    2  C7  UNL     1      49.908  28.289  14.195  1.00  0.00     0.050 C 
HETATM    3  C8  UNL     1      50.805  28.288  15.375  1.00  0.00     0.003 C 
HETATM    4  C9  UNL     1      51.028  26.861  15.820  1.00  0.00     0.002 C 
HETATM    5  C10 UNL     1      50.887  25.985  14.585  1.00  0.00     0.036 C 
HETATM    6  C11 UNL     1      49.399  25.931  14.186  1.00  0.00     0.230 C 
ENDROOT
BRANCH   1   7
HETATM    7  N1  UNL     1      48.086  27.538  15.530  1.00  0.00     0.097 N 
HETATM    8  C1  UNL     1      46.951  28.409  15.345  1.00  0.00     0.310 C 
HETATM    9  C2  UNL     1      47.566  26.379  16.217  1.00  0.00     0.310 C 
ENDBRANCH   1   7
BRANCH   1  10
HETATM   10  C4  UNL     1      47.828  27.637  13.192  1.00  0.00     0.042 A 
HETATM   11  C5  UNL     1      46.549  27.286  12.911  1.00  0.00     0.107 A 
HETATM   12  N2  UNL     1      45.963  27.810  11.857  1.00  0.00    -0.346 N 
HETATM   13  C6  UNL     1      46.654  28.663  11.106  1.00  0.00     0.142 A 
ATOM     14  H2  UNL     1      45.001  27.568  11.621  1.00  0.00     0.167 HD
HETATM   15  S1  UNL     1      48.168  28.739  11.895  1.00  0.00    -0.055 SA
BRANCH  13  16
HETATM   16  N3  UNL     1      46.277  29.310  10.017  1.00  0.00    -0.380 N 
ATOM     17  H32 UNL     1      45.326  29.511   9.709  1.00  0.00     0.158 HD
ATOM     18  H31 UNL     1      46.851  29.721   9.281  1.00  0.00     0.158 HD
ENDBRANCH  13  16
ENDBRANCH   1  10
BRANCH   6  19
HETATM   19  N4  UNL     1      48.847  24.905  15.009  1.00  0.00    -0.060 N 
ATOM     20  H42 UNL     1      48.432  25.282  15.861  1.00  0.00     0.278 HD
ATOM     21  H41 UNL     1      48.006  24.499  14.599  1.00  0.00     0.278 HD
BRANCH  19  22
HETATM   22  C12 UNL     1      49.841  23.905  15.294  1.00  0.00     0.335 C 
BRANCH  22  23
HETATM   23  C13 UNL     1      49.361  22.543  14.838  1.00  0.00     0.243 C 
HETATM   24  O1  UNL     1      48.169  22.207  14.980  1.00  0.00    -0.272 OA
HETATM   25  N5  UNL     1      50.303  21.677  14.259  1.00  0.00    -0.355 N 
ATOM     26  H5  UNL     1      51.277  21.962  14.150  1.00  0.00     0.162 HD
BRANCH  25  27
HETATM   27  C14 UNL     1      49.857  20.360  13.820  1.00  0.00     0.084 A 
HETATM   28  C15 UNL     1      50.630  19.582  12.813  1.00  0.00     0.027 A 
HETATM   29  C16 UNL     1      50.848  19.267  14.239  1.00  0.00     0.027 A 
ENDBRANCH  25  27
ENDBRANCH  22  23
ENDBRANCH  19  22
ENDBRANCH   6  19
TORSDOF 7
ENDMDL
MODEL 2
REMARK VINA RESULT: -6.470003482      2.906      7.253
REMARK  7 active torsions:
REMARK  status: ('A' for Active; 'I' for Inactive)
REMARK    1  A    between atoms: N1_2  and  C3_4 
REMARK    2  A    between atoms: C3_4  and  C4_5 
REMARK    3  A    between atoms: C6_9  and  N3_10 
REMARK    4  A    between atoms: C11_18  and  N4_19 
REMARK    5  A    between atoms: N4_19  and  C12_22 
REMARK    6  A    between atoms: C12_22  and  C13_23 
REMARK       I    between atoms: C13_23  and  N5_25 
REMARK    7  A    between atoms: N5_25  and  C14_27 
ROOT
HETATM    1  C3  UNL     1      48.909  26.825  14.645  1.00  0.00     0.221 C 
HETATM    2  C7  UNL     1      47.874  26.574  15.758  1.00  0.00     0.050 C 
HETATM    3  C8  UNL     1      47.074  27.775  16.100  1.00  0.00     0.003 C 
HETATM    4  C9  UNL     1      46.742  28.521  14.828  1.00  0.00     0.002 C 
HETATM    5  C10 UNL     1      46.701  27.492  13.710  1.00  0.00     0.036 C 
HETATM    6  C11 UNL     1      48.141  27.034  13.406  1.00  0.00     0.230 C 
ENDROOT
BRANCH   1   7
HETATM    7  N1  UNL     1      49.708  27.939  15.091  1.00  0.00     0.097 N 
HETATM    8  C1  UNL     1      50.889  27.515  15.802  1.00  0.00     0.310 C 
HETATM    9  C2  UNL     1      50.189  28.805  14.040  1.00  0.00     0.310 C 
ENDBRANCH   1   7
BRANCH   1  10
HETATM   10  C4  UNL     1      49.795  25.621  14.683  1.00  0.00     0.042 A 
HETATM   11  C5  UNL     1      51.084  25.414  14.315  1.00  0.00     0.107 A 
HETATM   12  N2  UNL     1      51.611  24.223  14.489  1.00  0.00    -0.346 N 
HETATM   13  C6  UNL     1      50.853  23.265  15.019  1.00  0.00     0.142 A 
ATOM     14  H2  UNL     1      52.578  24.036  14.224  1.00  0.00     0.167 HD
HETATM   15  S1  UNL     1      49.360  24.053  15.284  1.00  0.00    -0.055 SA
BRANCH  13  16
HETATM   16  N3  UNL     1      51.165  22.009  15.289  1.00  0.00    -0.380 N 
ATOM     17  H32 UNL     1      51.700  21.361  14.711  1.00  0.00     0.158 HD
ATOM     18  H31 UNL     1      50.930  21.450  16.109  1.00  0.00     0.158 HD
ENDBRANCH  13  16
ENDBRANCH   1  10
BRANCH   6  19
HETATM   19  N4  UNL     1      48.648  28.024  12.511  1.00  0.00    -0.060 N 
ATOM     20  H42 UNL     1      48.602  28.959  12.914  1.00  0.00     0.278 HD
ATOM     21  H41 UNL     1      49.659  27.955  12.402  1.00  0.00     0.278 HD
BRANCH  19  22
HETATM   22  C12 UNL     1      47.965  27.949  11.248  1.00  0.00     0.335 C 
BRANCH  22  23
HETATM   23  C13 UNL     1      48.120  29.251  10.491  1.00  0.00     0.243 C 
HETATM   24  O1  UNL     1      49.032  30.051  10.777  1.00  0.00    -0.272 OA
HETATM   25  N5  UNL     1      47.202  29.525   9.463  1.00  0.00    -0.355 N 
ATOM     26  H5  UNL     1      46.458  28.863   9.238  1.00  0.00     0.162 HD
BRANCH  25  27
HETATM   27  C14 UNL     1      47.335  30.777   8.727  1.00  0.00     0.084 A 
HETATM   28  C15 UNL     1      46.649  30.979   7.423  1.00  0.00     0.027 A 
HETATM   29  C16 UNL     1      45.994  31.514   8.633  1.00  0.00     0.027 A 
ENDBRANCH  25  27
ENDBRANCH  22  23
ENDBRANCH  19  22
ENDBRANCH   6  19
TORSDOF 7
ENDMDL
MODEL 3
REMARK VINA RESULT: -6.303174855      3.637      7.528
REMARK  7 active torsions:
REMARK  status: ('A' for Active; 'I' for Inactive)
REMARK    1  A    between atoms: N1_2  and  C3_4 
REMARK    2  A    between atoms: C3_4  and  C4_5 
REMARK    3  A    between atoms: C6_9  and  N3_10 
REMARK    4  A    between atoms: C11_18  and  N4_19 
REMARK    5  A    between atoms: N4_19  and  C12_22 
REMARK    6  A    between atoms: C12_22  and  C13_23 
REMARK       I    between atoms: C13_23  and  N5_25 
REMARK    7  A    between atoms: N5_25  and  C14_27 
ROOT
HETATM    1  C3  UNL     1      50.485  21.165  13.812  1.00  0.00     0.221 C 
HETATM    2  C7  UNL     1      49.052  20.754  13.426  1.00  0.00     0.050 C 
HETATM    3  C8  UNL     1      48.109  20.762  14.570  1.00  0.00     0.003 C 
HETATM    4  C9  UNL     1      48.409  21.957  15.445  1.00  0.00     0.002 C 
HETATM    5  C10 UNL     1      49.004  23.027  14.543  1.00  0.00     0.036 C 
HETATM    6  C11 UNL     1      50.430  22.599  14.143  1.00  0.00     0.230 C 
ENDROOT
BRANCH   1   7
HETATM    7  N1  UNL     1      50.875  20.282  14.883  1.00  0.00     0.097 N 
HETATM    8  C1  UNL     1      50.522  18.909  14.616  1.00  0.00     0.310 C 
HETATM    9  C2  UNL     1      52.289  20.260  15.172  1.00  0.00     0.310 C 
ENDBRANCH   1   7
BRANCH   1  10
HETATM   10  C4  UNL     1      51.313  20.788  12.625  1.00  0.00     0.042 A 
HETATM   11  C5  UNL     1      51.052  20.052  11.516  1.00  0.00     0.107 A 
HETATM   12  N2  UNL     1      51.997  19.905  10.615  1.00  0.00    -0.346 N 
HETATM   13  C6  UNL     1      53.176  20.485  10.830  1.00  0.00     0.142 A 
ATOM     14  H2  UNL     1      51.831  19.360   9.769  1.00  0.00     0.167 HD
HETATM   15  S1  UNL     1      52.958  21.260  12.337  1.00  0.00    -0.055 SA
BRANCH  13  16
HETATM   16  N3  UNL     1      54.258  20.480  10.072  1.00  0.00    -0.380 N 
ATOM     17  H32 UNL     1      54.364  20.086   9.137  1.00  0.00     0.158 HD
ATOM     18  H31 UNL     1      55.185  20.856  10.271  1.00  0.00     0.158 HD
ENDBRANCH  13  16
ENDBRANCH   1  10
BRANCH   6  19
HETATM   19  N4  UNL     1      51.248  23.025  15.232  1.00  0.00    -0.060 N 
ATOM     20  H42 UNL     1      50.699  23.462  15.973  1.00  0.00     0.278 HD
ATOM     21  H41 UNL     1      51.616  22.236  15.763  1.00  0.00     0.278 HD
BRANCH  19  22
HETATM   22  C12 UNL     1      52.295  23.890  14.760  1.00  0.00     0.335 C 
BRANCH  22  23
HETATM   23  C13 UNL     1      52.104  25.290  15.304  1.00  0.00     0.243 C 
HETATM   24  O1  UNL     1      52.975  25.820  16.022  1.00  0.00    -0.272 OA
HETATM   25  N5  UNL     1      50.915  25.963  14.976  1.00  0.00    -0.355 N 
ATOM     26  H5  UNL     1      50.209  25.519  14.389  1.00  0.00     0.162 HD
BRANCH  25  27
HETATM   27  C14 UNL     1      50.714  27.311  15.497  1.00  0.00     0.084 A 
HETATM   28  C15 UNL     1      50.124  28.382  14.650  1.00  0.00     0.027 A 
HETATM   29  C16 UNL     1      49.223  27.663  15.572  1.00  0.00     0.027 A 
ENDBRANCH  25  27
ENDBRANCH  22  23
ENDBRANCH  19  22
ENDBRANCH   6  19
TORSDOF 7
ENDMDL
MODEL 4
REMARK VINA RESULT: -5.748870140      2.826      7.013
REMARK  7 active torsions:
REMARK  status: ('A' for Active; 'I' for Inactive)
REMARK    1  A    between atoms: N1_2  and  C3_4 
REMARK    2  A    between atoms: C3_4  and  C4_5 
REMARK    3  A    between atoms: C6_9  and  N3_10 
REMARK    4  A    between atoms: C11_18  and  N4_19 
REMARK    5  A    between atoms: N4_19  and  C12_22 
REMARK    6  A    between atoms: C12_22  and  C13_23 
REMARK       I    between atoms: C13_23  and  N5_25 
REMARK    7  A    between atoms: N5_25  and  C14_27 
ROOT
HETATM    1  C3  UNL     1      49.157  26.705  14.888  1.00  0.00     0.221 C 
HETATM    2  C7  UNL     1      48.358  26.239  16.120  1.00  0.00     0.050 C 
HETATM    3  C8  UNL     1      47.533  27.312  16.727  1.00  0.00     0.003 C 
HETATM    4  C9  UNL     1      46.923  28.144  15.624  1.00  0.00     0.002 C 
HETATM    5  C10 UNL     1      46.771  27.234  14.415  1.00  0.00     0.036 C 
HETATM    6  C11 UNL     1      48.169  26.958  13.826  1.00  0.00     0.230 C 
ENDROOT
BRANCH   1   7
HETATM    7  N1  UNL     1      49.926  27.844  15.323  1.00  0.00     0.097 N 
HETATM    8  C1  UNL     1      51.208  27.464  15.865  1.00  0.00     0.310 C 
HETATM    9  C2  UNL     1      50.223  28.810  14.292  1.00  0.00     0.310 C 
ENDBRANCH   1   7
BRANCH   1  10
HETATM   10  C4  UNL     1      50.133  25.600  14.639  1.00  0.00     0.042 A 
HETATM   11  C5  UNL     1      51.340  25.559  14.020  1.00  0.00     0.107 A 
HETATM   12  N2  UNL     1      51.990  24.418  13.971  1.00  0.00    -0.346 N 
HETATM   13  C6  UNL     1      51.433  23.346  14.529  1.00  0.00     0.142 A 
ATOM     14  H2  UNL     1      52.900  24.355  13.515  1.00  0.00     0.167 HD
HETATM   15  S1  UNL     1      49.958  23.950  15.145  1.00  0.00    -0.055 SA
BRANCH  13  16
HETATM   16  N3  UNL     1      51.897  22.111  14.607  1.00  0.00    -0.380 N 
ATOM     17  H32 UNL     1      52.228  21.620  15.437  1.00  0.00     0.158 HD
ATOM     18  H31 UNL     1      52.017  21.420  13.865  1.00  0.00     0.158 HD
ENDBRANCH  13  16
ENDBRANCH   1  10
BRANCH   6  19
HETATM   19  N4  UNL     1      48.427  28.080  12.982  1.00  0.00    -0.060 N 
ATOM     20  H42 UNL     1      47.889  28.899  13.263  1.00  0.00     0.278 HD
ATOM     21  H41 UNL     1      49.363  28.457  13.126  1.00  0.00     0.278 HD
BRANCH  19  22
HETATM   22  C12 UNL     1      48.194  27.731  11.606  1.00  0.00     0.335 C 
BRANCH  22  23
HETATM   23  C13 UNL     1      47.083  28.583  11.030  1.00  0.00     0.243 C 
HETATM   24  O1  UNL     1      46.035  28.785  11.674  1.00  0.00    -0.272 OA
HETATM   25  N5  UNL     1      47.274  29.130   9.750  1.00  0.00    -0.355 N 
ATOM     26  H5  UNL     1      48.135  28.958   9.232  1.00  0.00     0.162 HD
BRANCH  25  27
HETATM   27  C14 UNL     1      46.210  29.950   9.180  1.00  0.00     0.084 A 
HETATM   28  C15 UNL     1      46.315  31.433   9.149  1.00  0.00     0.027 A 
HETATM   29  C16 UNL     1      46.691  30.694   7.928  1.00  0.00     0.027 A 
ENDBRANCH  25  27
ENDBRANCH  22  23
ENDBRANCH  19  22
ENDBRANCH   6  19
TORSDOF 7
ENDMDL
MODEL 5
REMARK VINA RESULT: -5.627583482      1.149      1.280
REMARK  7 active torsions:
REMARK  status: ('A' for Active; 'I' for Inactive)
REMARK    1  A    between atoms: N1_2  and  C3_4 
REMARK    2  A    between atoms: C3_4  and  C4_5 
REMARK    3  A    between atoms: C6_9  and  N3_10 
REMARK    4  A    between atoms: C11_18  and  N4_19 
REMARK    5  A    between atoms: N4_19  and  C12_22 
REMARK    6  A    between atoms: C12_22  and  C13_23 
REMARK       I    between atoms: C13_23  and  N5_25 
REMARK    7  A    between atoms: N5_25  and  C14_27 
ROOT
HETATM    1  C3  UNL     1      48.666  27.794  13.843  1.00  0.00     0.221 C 
HETATM    2  C7  UNL     1      49.922  28.686  13.877  1.00  0.00     0.050 C 
HETATM    3  C8  UNL     1      50.651  28.627  15.167  1.00  0.00     0.003 C 
HETATM    4  C9  UNL     1      50.647  27.201  15.667  1.00  0.00     0.002 C 
HETATM    5  C10 UNL     1      50.566  26.303  14.443  1.00  0.00     0.036 C 
HETATM    6  C11 UNL     1      49.147  26.402  13.850  1.00  0.00     0.230 C 
ENDROOT
BRANCH   1   7
HETATM    7  N1  UNL     1      47.866  28.194  14.973  1.00  0.00     0.097 N 
HETATM    8  C1  UNL     1      46.948  29.258  14.645  1.00  0.00     0.310 C 
HETATM    9  C2  UNL     1      47.047  27.150  15.542  1.00  0.00     0.310 C 
ENDBRANCH   1   7
BRANCH   1  10
HETATM   10  C4  UNL     1      47.928  28.237  12.619  1.00  0.00     0.042 A 
HETATM   11  C5  UNL     1      48.329  28.824  11.464  1.00  0.00     0.107 A 
HETATM   12  N2  UNL     1      47.431  29.085  10.540  1.00  0.00    -0.346 N 
HETATM   13  C6  UNL     1      46.162  28.765  10.780  1.00  0.00     0.142 A 
ATOM     14  H2  UNL     1      47.701  29.523   9.659  1.00  0.00     0.167 HD
HETATM   15  S1  UNL     1      46.223  28.076  12.342  1.00  0.00    -0.055 SA
BRANCH  13  16
HETATM   16  N3  UNL     1      45.101  28.925  10.008  1.00  0.00    -0.380 N 
ATOM     17  H32 UNL     1      45.073  29.280   9.052  1.00  0.00     0.158 HD
ATOM     18  H31 UNL     1      44.120  28.736  10.214  1.00  0.00     0.158 HD
ENDBRANCH  13  16
ENDBRANCH   1  10
BRANCH   6  19
HETATM   19  N4  UNL     1      48.376  25.475  14.613  1.00  0.00    -0.060 N 
ATOM     20  H42 UNL     1      47.593  25.927  15.084  1.00  0.00     0.278 HD
ATOM     21  H41 UNL     1      47.847  24.839  14.017  1.00  0.00     0.278 HD
BRANCH  19  22
HETATM   22  C12 UNL     1      49.221  24.767  15.537  1.00  0.00     0.335 C 
BRANCH  22  23
HETATM   23  C13 UNL     1      49.249  23.292  15.197  1.00  0.00     0.243 C 
HETATM   24  O1  UNL     1      48.197  22.679  14.927  1.00  0.00    -0.272 OA
HETATM   25  N5  UNL     1      50.495  22.642  15.203  1.00  0.00    -0.355 N 
ATOM     26  H5  UNL     1      51.349  23.153  15.426  1.00  0.00     0.162 HD
BRANCH  25  27
HETATM   27  C14 UNL     1      50.538  21.220  14.882  1.00  0.00     0.084 A 
HETATM   28  C15 UNL     1      50.736  20.753  13.483  1.00  0.00     0.027 A 
HETATM   29  C16 UNL     1      51.921  20.807  14.363  1.00  0.00     0.027 A 
ENDBRANCH  25  27
ENDBRANCH  22  23
ENDBRANCH  19  22
ENDBRANCH   6  19
TORSDOF 7
ENDMDL
