MODEL 1
REMARK VINA RESULT: -9.377088876      0.000      0.000
REMARK  10 active torsions:
REMARK  status: ('A' for Active; 'I' for Inactive)
REMARK    1  A    between atoms: C2_2  and  C3_3 
REMARK    2  A    between atoms: C2_2  and  C11_21 
REMARK    3  A    between atoms: C3_3  and  C4_4 
REMARK    4  A    between atoms: C4_4  and  O1_5 
REMARK    5  A    between atoms: C4_4  and  C5_7 
REMARK    6  A    between atoms: C5_7  and  C6_9 
REMARK    7  A    between atoms: C7_11  and  C8_12 
REMARK    8  A    between atoms: C8_12  and  O4_13 
REMARK    9  A    between atoms: C9_15  and  O5_16 
REMARK   10  A    between atoms: C10_18  and  O6_19 
ROOT
HETATM    1  C5  UNL     1      47.885  28.394  13.039  1.00  0.00     0.186 C 
HETATM    2  O2  UNL     1      47.249  29.270  13.576  1.00  0.00    -0.292 OA
ENDROOT
BRANCH   1   3
HETATM    3  C4  UNL     1      48.821  27.570  13.845  1.00  0.00     0.190 C 
BRANCH   3   4
HETATM    4  C3  UNL     1      48.196  26.353  14.403  1.00  0.00     0.044 C 
BRANCH   4   5
HETATM    5  C2  UNL     1      48.736  25.727  15.624  1.00  0.00    -0.012 C 
HETATM    6  C1  UNL     1      47.888  25.833  16.854  1.00  0.00     0.010 C 
BRANCH   5   7
HETATM    7  C11 UNL     1      49.549  24.482  15.509  1.00  0.00    -0.011 C 
HETATM    8  C12 UNL     1      48.600  23.394  14.951  1.00  0.00     0.005 C 
HETATM    9  C13 UNL     1      49.214  22.047  14.967  1.00  0.00     0.000 C 
HETATM   10  C14 UNL     1      50.555  21.904  15.589  1.00  0.00     0.000 C 
HETATM   11  C15 UNL     1      51.712  22.364  14.763  1.00  0.00     0.000 C 
HETATM   12  C16 UNL     1      51.897  23.846  15.004  1.00  0.00     0.000 C 
HETATM   13  C17 UNL     1      50.651  24.522  14.471  1.00  0.00     0.005 C 
ENDBRANCH   5   7
ENDBRANCH   4   5
ENDBRANCH   3   4
BRANCH   3  14
HETATM   14  O1  UNL     1      49.375  28.404  14.801  1.00  0.00    -0.388 OA
ATOM     15  H1  UNL     1      49.839  29.150  14.439  1.00  0.00     0.210 HD
ENDBRANCH   3  14
ENDBRANCH   1   3
BRANCH   1  16
HETATM   16  C6  UNL     1      47.674  28.208  11.583  1.00  0.00     0.225 C 
HETATM   17  O3  UNL     1      46.480  28.741  11.141  1.00  0.00    -0.365 OA
HETATM   18  C7  UNL     1      46.698  29.745  10.244  1.00  0.00     0.177 C 
HETATM   19  C9  UNL     1      48.076  29.550   9.647  1.00  0.00     0.180 C 
HETATM   20  C10 UNL     1      48.793  28.964  10.872  1.00  0.00     0.185 C 
BRANCH  18  21
HETATM   21  C8  UNL     1      45.628  29.689   9.173  1.00  0.00     0.198 C 
BRANCH  21  22
HETATM   22  O4  UNL     1      44.595  28.849   9.584  1.00  0.00    -0.398 OA
ATOM     23  H4  UNL     1      43.879  28.892   8.961  1.00  0.00     0.209 HD
ENDBRANCH  21  22
ENDBRANCH  18  21
BRANCH  19  24
HETATM   24  O5  UNL     1      48.092  28.652   8.603  1.00  0.00    -0.390 OA
ATOM     25  H5  UNL     1      48.809  28.797   7.997  1.00  0.00     0.210 HD
ENDBRANCH  19  24
BRANCH  20  26
HETATM   26  O6  UNL     1      49.212  30.084  11.602  1.00  0.00    -0.390 OA
ATOM     27  H6  UNL     1      50.087  30.359  11.356  1.00  0.00     0.210 HD
ENDBRANCH  20  26
ENDBRANCH   1  16
TORSDOF 10
ENDMDL
MODEL 2
REMARK VINA RESULT: -9.093110638      0.549      1.378
REMARK  10 active torsions:
REMARK  status: ('A' for Active; 'I' for Inactive)
REMARK    1  A    between atoms: C2_2  and  C3_3 
REMARK    2  A    between atoms: C2_2  and  C11_21 
REMARK    3  A    between atoms: C3_3  and  C4_4 
REMARK    4  A    between atoms: C4_4  and  O1_5 
REMARK    5  A    between atoms: C4_4  and  C5_7 
REMARK    6  A    between atoms: C5_7  and  C6_9 
REMARK    7  A    between atoms: C7_11  and  C8_12 
REMARK    8  A    between atoms: C8_12  and  O4_13 
REMARK    9  A    between atoms: C9_15  and  O5_16 
REMARK   10  A    between atoms: C10_18  and  O6_19 
ROOT
HETATM    1  C5  UNL     1      47.712  28.437  13.018  1.00  0.00     0.186 C 
HETATM    2  O2  UNL     1      47.036  29.287  13.548  1.00  0.00    -0.292 OA
ENDROOT
BRANCH   1   3
HETATM    3  C4  UNL     1      48.651  27.632  13.838  1.00  0.00     0.190 C 
BRANCH   3   4
HETATM    4  C3  UNL     1      47.978  26.600  14.655  1.00  0.00     0.044 C 
BRANCH   4   5
HETATM    5  C2  UNL     1      48.750  25.773  15.601  1.00  0.00    -0.012 C 
HETATM    6  C1  UNL     1      48.058  25.410  16.879  1.00  0.00     0.010 C 
BRANCH   5   7
HETATM    7  C11 UNL     1      49.702  24.755  15.073  1.00  0.00    -0.011 C 
HETATM    8  C12 UNL     1      51.123  25.307  15.346  1.00  0.00     0.005 C 
HETATM    9  C13 UNL     1      52.178  24.496  14.699  1.00  0.00     0.000 C 
HETATM   10  C14 UNL     1      51.751  23.376  13.821  1.00  0.00     0.000 C 
HETATM   11  C15 UNL     1      51.298  22.134  14.519  1.00  0.00     0.000 C 
HETATM   12  C16 UNL     1      49.826  22.286  14.830  1.00  0.00     0.000 C 
HETATM   13  C17 UNL     1      49.714  23.434  15.812  1.00  0.00     0.005 C 
ENDBRANCH   5   7
ENDBRANCH   4   5
ENDBRANCH   3   4
BRANCH   3  14
HETATM   14  O1  UNL     1      49.411  28.523  14.577  1.00  0.00    -0.388 OA
ATOM     15  H1  UNL     1      49.439  29.399  14.211  1.00  0.00     0.210 HD
ENDBRANCH   3  14
ENDBRANCH   1   3
BRANCH   1  16
HETATM   16  C6  UNL     1      47.543  28.262  11.555  1.00  0.00     0.225 C 
HETATM   17  O3  UNL     1      46.406  28.874  11.068  1.00  0.00    -0.365 OA
HETATM   18  C7  UNL     1      46.726  29.858  10.180  1.00  0.00     0.177 C 
HETATM   19  C9  UNL     1      48.109  29.568   9.635  1.00  0.00     0.180 C 
HETATM   20  C10 UNL     1      48.738  28.937  10.887  1.00  0.00     0.185 C 
BRANCH  18  21
HETATM   21  C8  UNL     1      45.696  29.873   9.069  1.00  0.00     0.198 C 
BRANCH  21  22
HETATM   22  O4  UNL     1      44.614  29.068   9.420  1.00  0.00    -0.398 OA
ATOM     23  H4  UNL     1      44.727  28.747  10.307  1.00  0.00     0.209 HD
ENDBRANCH  21  22
ENDBRANCH  18  21
BRANCH  19  24
HETATM   24  O5  UNL     1      48.103  28.669   8.593  1.00  0.00    -0.390 OA
ATOM     25  H5  UNL     1      48.574  27.867   8.788  1.00  0.00     0.210 HD
ENDBRANCH  19  24
BRANCH  20  26
HETATM   26  O6  UNL     1      49.204  30.028  11.632  1.00  0.00    -0.390 OA
ATOM     27  H6  UNL     1      49.550  30.715  11.074  1.00  0.00     0.210 HD
ENDBRANCH  20  26
ENDBRANCH   1  16
TORSDOF 10
ENDMDL
MODEL 3
REMARK VINA RESULT: -8.992934251      1.076      1.883
REMARK  10 active torsions:
REMARK  status: ('A' for Active; 'I' for Inactive)
REMARK    1  A    between atoms: C2_2  and  C3_3 
REMARK    2  A    between atoms: C2_2  and  C11_21 
REMARK    3  A    between atoms: C3_3  and  C4_4 
REMARK    4  A    between atoms: C4_4  and  O1_5 
REMARK    5  A    between atoms: C4_4  and  C5_7 
REMARK    6  A    between atoms: C5_7  and  C6_9 
REMARK    7  A    between atoms: C7_11  and  C8_12 
REMARK    8  A    between atoms: C8_12  and  O4_13 
REMARK    9  A    between atoms: C9_15  and  O5_16 
REMARK   10  A    between atoms: C10_18  and  O6_19 
ROOT
HETATM    1  C5  UNL     1      47.987  27.706  13.369  1.00  0.00     0.186 C 
HETATM    2  O2  UNL     1      47.020  27.925  14.060  1.00  0.00    -0.292 OA
ENDROOT
BRANCH   1   3
HETATM    3  C4  UNL     1      49.295  27.420  14.011  1.00  0.00     0.190 C 
BRANCH   3   4
HETATM    4  C3  UNL     1      49.328  26.122  14.717  1.00  0.00     0.044 C 
BRANCH   4   5
HETATM    5  C2  UNL     1      50.502  25.235  14.600  1.00  0.00    -0.012 C 
HETATM    6  C1  UNL     1      51.736  25.672  15.328  1.00  0.00     0.010 C 
BRANCH   5   7
HETATM    7  C11 UNL     1      50.297  23.762  14.505  1.00  0.00    -0.011 C 
HETATM    8  C12 UNL     1      51.653  23.111  14.873  1.00  0.00     0.005 C 
HETATM    9  C13 UNL     1      51.663  21.651  14.630  1.00  0.00     0.000 C 
HETATM   10  C14 UNL     1      50.465  21.047  13.992  1.00  0.00     0.000 C 
HETATM   11  C15 UNL     1      49.284  20.838  14.882  1.00  0.00     0.000 C 
HETATM   12  C16 UNL     1      48.477  22.117  14.893  1.00  0.00     0.000 C 
HETATM   13  C17 UNL     1      49.357  23.170  15.533  1.00  0.00     0.005 C 
ENDBRANCH   5   7
ENDBRANCH   4   5
ENDBRANCH   3   4
BRANCH   3  14
HETATM   14  O1  UNL     1      49.597  28.504  14.818  1.00  0.00    -0.388 OA
ATOM     15  H1  UNL     1      49.099  29.286  14.612  1.00  0.00     0.210 HD
ENDBRANCH   3  14
ENDBRANCH   1   3
BRANCH   1  16
HETATM   16  C6  UNL     1      47.784  27.741  11.901  1.00  0.00     0.225 C 
HETATM   17  O3  UNL     1      46.496  28.085  11.545  1.00  0.00    -0.365 OA
HETATM   18  C7  UNL     1      46.481  29.255  10.844  1.00  0.00     0.177 C 
HETATM   19  C9  UNL     1      47.855  29.458  10.240  1.00  0.00     0.180 C 
HETATM   20  C10 UNL     1      48.706  28.825  11.352  1.00  0.00     0.185 C 
BRANCH  18  21
HETATM   21  C8  UNL     1      45.420  29.170   9.766  1.00  0.00     0.198 C 
BRANCH  21  22
HETATM   22  O4  UNL     1      45.398  30.355   9.033  1.00  0.00    -0.398 OA
ATOM     23  H4  UNL     1      45.527  31.094   9.614  1.00  0.00     0.209 HD
ENDBRANCH  21  22
ENDBRANCH  18  21
BRANCH  19  24
HETATM   24  O5  UNL     1      48.031  28.783   9.054  1.00  0.00    -0.390 OA
ATOM     25  H5  UNL     1      48.890  28.385   8.974  1.00  0.00     0.210 HD
ENDBRANCH  19  24
BRANCH  20  26
HETATM   26  O6  UNL     1      48.903  29.860  12.274  1.00  0.00    -0.390 OA
ATOM     27  H6  UNL     1      49.107  29.528  13.140  1.00  0.00     0.210 HD
ENDBRANCH  20  26
ENDBRANCH   1  16
TORSDOF 10
ENDMDL
MODEL 4
REMARK VINA RESULT: -8.929001175      1.257      2.556
REMARK  10 active torsions:
REMARK  status: ('A' for Active; 'I' for Inactive)
REMARK    1  A    between atoms: C2_2  and  C3_3 
REMARK    2  A    between atoms: C2_2  and  C11_21 
REMARK    3  A    between atoms: C3_3  and  C4_4 
REMARK    4  A    between atoms: C4_4  and  O1_5 
REMARK    5  A    between atoms: C4_4  and  C5_7 
REMARK    6  A    between atoms: C5_7  and  C6_9 
REMARK    7  A    between atoms: C7_11  and  C8_12 
REMARK    8  A    between atoms: C8_12  and  O4_13 
REMARK    9  A    between atoms: C9_15  and  O5_16 
REMARK   10  A    between atoms: C10_18  and  O6_19 
ROOT
HETATM    1  C5  UNL     1      47.917  28.026  13.995  1.00  0.00     0.186 C 
HETATM    2  O2  UNL     1      47.065  27.656  14.766  1.00  0.00    -0.292 OA
ENDROOT
BRANCH   1   3
HETATM    3  C4  UNL     1      49.324  27.598  14.198  1.00  0.00     0.190 C 
BRANCH   3   4
HETATM    4  C3  UNL     1      49.447  26.333  14.951  1.00  0.00     0.044 C 
BRANCH   4   5
HETATM    5  C2  UNL     1      50.575  25.416  14.697  1.00  0.00    -0.012 C 
HETATM    6  C1  UNL     1      51.886  25.792  15.317  1.00  0.00     0.010 C 
BRANCH   5   7
HETATM    7  C11 UNL     1      50.314  23.953  14.578  1.00  0.00    -0.011 C 
HETATM    8  C12 UNL     1      51.651  23.246  14.910  1.00  0.00     0.005 C 
HETATM    9  C13 UNL     1      51.602  21.791  14.640  1.00  0.00     0.000 C 
HETATM   10  C14 UNL     1      50.372  21.244  14.012  1.00  0.00     0.000 C 
HETATM   11  C15 UNL     1      49.199  21.062  14.920  1.00  0.00     0.000 C 
HETATM   12  C16 UNL     1      48.441  22.370  14.969  1.00  0.00     0.000 C 
HETATM   13  C17 UNL     1      49.371  23.377  15.612  1.00  0.00     0.005 C 
ENDBRANCH   5   7
ENDBRANCH   4   5
ENDBRANCH   3   4
BRANCH   3  14
HETATM   14  O1  UNL     1      49.993  28.663  14.778  1.00  0.00    -0.388 OA
ATOM     15  H1  UNL     1      50.872  28.452  15.069  1.00  0.00     0.210 HD
ENDBRANCH   3  14
ENDBRANCH   1   3
BRANCH   1  16
HETATM   16  C6  UNL     1      47.478  28.900  12.880  1.00  0.00     0.225 C 
HETATM   17  O3  UNL     1      48.453  29.076  11.920  1.00  0.00    -0.365 OA
HETATM   18  C7  UNL     1      48.050  28.570  10.719  1.00  0.00     0.177 C 
HETATM   19  C9  UNL     1      46.537  28.512  10.718  1.00  0.00     0.180 C 
HETATM   20  C10 UNL     1      46.303  28.200  12.204  1.00  0.00     0.185 C 
BRANCH  18  21
HETATM   21  C8  UNL     1      48.561  29.467   9.610  1.00  0.00     0.198 C 
BRANCH  21  22
HETATM   22  O4  UNL     1      48.034  29.051   8.388  1.00  0.00    -0.398 OA
ATOM     23  H4  UNL     1      48.619  29.304   7.684  1.00  0.00     0.209 HD
ENDBRANCH  21  22
ENDBRANCH  18  21
BRANCH  19  24
HETATM   24  O5  UNL     1      45.949  29.709  10.378  1.00  0.00    -0.390 OA
ATOM     25  H5  UNL     1      45.002  29.659  10.325  1.00  0.00     0.210 HD
ENDBRANCH  19  24
BRANCH  20  26
HETATM   26  O6  UNL     1      46.407  26.805  12.289  1.00  0.00    -0.390 OA
ATOM     27  H6  UNL     1      45.572  26.379  12.139  1.00  0.00     0.210 HD
ENDBRANCH  20  26
ENDBRANCH   1  16
TORSDOF 10
ENDMDL
MODEL 5
REMARK VINA RESULT: -8.767192122      1.206      1.649
REMARK  10 active torsions:
REMARK  status: ('A' for Active; 'I' for Inactive)
REMARK    1  A    between atoms: C2_2  and  C3_3 
REMARK    2  A    between atoms: C2_2  and  C11_21 
REMARK    3  A    between atoms: C3_3  and  C4_4 
REMARK    4  A    between atoms: C4_4  and  O1_5 
REMARK    5  A    between atoms: C4_4  and  C5_7 
REMARK    6  A    between atoms: C5_7  and  C6_9 
REMARK    7  A    between atoms: C7_11  and  C8_12 
REMARK    8  A    between atoms: C8_12  and  O4_13 
REMARK    9  A    between atoms: C9_15  and  O5_16 
REMARK   10  A    between atoms: C10_18  and  O6_19 
ROOT
HETATM    1  C5  UNL     1      48.069  27.425  13.666  1.00  0.00     0.186 C 
HETATM    2  O2  UNL     1      47.095  27.611  14.356  1.00  0.00    -0.292 OA
ENDROOT
BRANCH   1   3
HETATM    3  C4  UNL     1      49.374  27.124  14.307  1.00  0.00     0.190 C 
BRANCH   3   4
HETATM    4  C3  UNL     1      49.429  25.779  14.916  1.00  0.00     0.044 C 
BRANCH   4   5
HETATM    5  C2  UNL     1      50.641  24.948  14.789  1.00  0.00    -0.012 C 
HETATM    6  C1  UNL     1      51.924  25.577  15.238  1.00  0.00     0.010 C 
BRANCH   5   7
HETATM    7  C11 UNL     1      50.541  23.474  14.991  1.00  0.00    -0.011 C 
HETATM    8  C12 UNL     1      49.059  23.102  14.745  1.00  0.00     0.005 C 
HETATM    9  C13 UNL     1      48.762  21.697  15.102  1.00  0.00     0.000 C 
HETATM   10  C14 UNL     1      49.848  20.896  15.724  1.00  0.00     0.000 C 
HETATM   11  C15 UNL     1      50.899  20.383  14.794  1.00  0.00     0.000 C 
HETATM   12  C16 UNL     1      51.951  21.459  14.642  1.00  0.00     0.000 C 
HETATM   13  C17 UNL     1      51.268  22.630  13.966  1.00  0.00     0.005 C 
ENDBRANCH   5   7
ENDBRANCH   4   5
ENDBRANCH   3   4
BRANCH   3  14
HETATM   14  O1  UNL     1      49.636  28.152  15.196  1.00  0.00    -0.388 OA
ATOM     15  H1  UNL     1      50.485  28.560  15.073  1.00  0.00     0.210 HD
ENDBRANCH   3  14
ENDBRANCH   1   3
BRANCH   1  16
HETATM   16  C6  UNL     1      47.877  27.515  12.198  1.00  0.00     0.225 C 
HETATM   17  O3  UNL     1      46.569  27.770  11.842  1.00  0.00    -0.365 OA
HETATM   18  C7  UNL     1      46.466  28.967  11.197  1.00  0.00     0.177 C 
HETATM   19  C9  UNL     1      47.824  29.310  10.622  1.00  0.00     0.180 C 
HETATM   20  C10 UNL     1      48.714  28.695  11.713  1.00  0.00     0.185 C 
BRANCH  18  21
HETATM   21  C8  UNL     1      45.425  28.849  10.102  1.00  0.00     0.198 C 
BRANCH  21  22
HETATM   22  O4  UNL     1      45.496  29.959   9.263  1.00  0.00    -0.398 OA
ATOM     23  H4  UNL     1      45.372  29.689   8.361  1.00  0.00     0.209 HD
ENDBRANCH  21  22
ENDBRANCH  18  21
BRANCH  19  24
HETATM   24  O5  UNL     1      48.066  28.709   9.407  1.00  0.00    -0.390 OA
ATOM     25  H5  UNL     1      47.737  27.819   9.358  1.00  0.00     0.210 HD
ENDBRANCH  19  24
BRANCH  20  26
HETATM   26  O6  UNL     1      48.817  29.697  12.686  1.00  0.00    -0.390 OA
ATOM     27  H6  UNL     1      48.511  29.399  13.535  1.00  0.00     0.210 HD
ENDBRANCH  20  26
ENDBRANCH   1  16
TORSDOF 10
ENDMDL
