MODEL 1
REMARK VINA RESULT: -9.715475044      0.000      0.000
REMARK  9 active torsions:
REMARK  status: ('A' for Active; 'I' for Inactive)
REMARK    1  A    between atoms: C2_2  and  C3_3 
REMARK    2  A    between atoms: C2_2  and  C15_23 
REMARK    3  A    between atoms: C3_3  and  C4_4 
REMARK    4  A    between atoms: C5_5  and  C6_6 
REMARK    5  A    between atoms: C7_9  and  C8_10 
REMARK    6  A    between atoms: C11_13  and  O3_14 
REMARK    7  A    between atoms: C12_16  and  O4_17 
REMARK    8  A    between atoms: C13_19  and  O5_21 
REMARK    9  A    between atoms: C15_23  and  C16_24 
ROOT
HETATM    1  C6  UNL     1      50.369  25.450  14.718  1.00  0.00     0.219 C 
HETATM    2  O1  UNL     1      49.517  24.892  15.701  1.00  0.00    -0.228 OA
HETATM    3  O2  UNL     1      49.477  23.608  15.414  1.00  0.00    -0.231 OA
HETATM    4  C7  UNL     1      50.795  23.205  15.241  1.00  0.00     0.204 C 
HETATM    5  C13 UNL     1      51.460  24.393  14.670  1.00  0.00     0.116 C 
HETATM    6  C14 UNL     1      52.567  24.902  15.605  1.00  0.00     0.052 C 
ENDROOT
BRANCH   1   7
HETATM    7  C5  UNL     1      50.867  26.733  15.255  1.00  0.00     0.007 C 
HETATM    8  C4  UNL     1      50.128  27.817  15.330  1.00  0.00    -0.028 C 
BRANCH   8   9
HETATM    9  C3  UNL     1      48.728  27.890  14.892  1.00  0.00     0.031 C 
BRANCH   9  10
HETATM   10  C2  UNL     1      48.561  28.441  13.479  1.00  0.00    -0.005 C 
HETATM   11  C1  UNL     1      49.547  29.582  13.353  1.00  0.00     0.011 C 
BRANCH  10  12
HETATM   12  C15 UNL     1      47.137  28.901  13.320  1.00  0.00     0.117 C 
BRANCH  12  13
HETATM   13  C16 UNL     1      46.501  28.405  12.097  1.00  0.00     0.172 C 
HETATM   14  O6  UNL     1      45.800  27.367  12.073  1.00  0.00    -0.648 OA
HETATM   15  O7  UNL     1      46.667  29.101  10.910  1.00  0.00    -0.648 OA
ENDBRANCH  12  13
ENDBRANCH  10  12
ENDBRANCH   9  10
ENDBRANCH   8   9
ENDBRANCH   1   7
BRANCH   5  16
HETATM   16  O5  UNL     1      52.028  24.241  13.439  1.00  0.00    -0.384 OA
ATOM     17  H5  UNL     1      52.928  23.937  13.465  1.00  0.00     0.210 HD
ENDBRANCH   5  16
BRANCH   4  18
HETATM   18  C8  UNL     1      50.837  21.947  14.465  1.00  0.00     0.052 C 
HETATM   19  C9  UNL     1      49.505  21.479  13.976  1.00  0.00     0.012 C 
HETATM   20  C10 UNL     1      49.581  19.968  13.974  1.00  0.00     0.035 C 
HETATM   21  C11 UNL     1      50.590  19.615  15.038  1.00  0.00     0.147 C 
HETATM   22  C12 UNL     1      51.522  20.801  15.146  1.00  0.00     0.153 C 
BRANCH  21  23
HETATM   23  O3  UNL     1      51.266  18.453  14.632  1.00  0.00    -0.393 OA
ATOM     24  H3  UNL     1      52.189  18.564  14.828  1.00  0.00     0.210 HD
ENDBRANCH  21  23
BRANCH  22  25
HETATM   25  O4  UNL     1      52.710  20.417  14.478  1.00  0.00    -0.393 OA
ATOM     26  H4  UNL     1      52.719  19.491  14.267  1.00  0.00     0.210 HD
ENDBRANCH  22  25
ENDBRANCH   4  18
TORSDOF 9
ENDMDL
MODEL 2
REMARK VINA RESULT: -9.263532033      0.917      1.055
REMARK  9 active torsions:
REMARK  status: ('A' for Active; 'I' for Inactive)
REMARK    1  A    between atoms: C2_2  and  C3_3 
REMARK    2  A    between atoms: C2_2  and  C15_23 
REMARK    3  A    between atoms: C3_3  and  C4_4 
REMARK    4  A    between atoms: C5_5  and  C6_6 
REMARK    5  A    between atoms: C7_9  and  C8_10 
REMARK    6  A    between atoms: C11_13  and  O3_14 
REMARK    7  A    between atoms: C12_16  and  O4_17 
REMARK    8  A    between atoms: C13_19  and  O5_21 
REMARK    9  A    between atoms: C15_23  and  C16_24 
ROOT
HETATM    1  C6  UNL     1      50.135  25.550  14.701  1.00  0.00     0.219 C 
HETATM    2  O1  UNL     1      49.280  24.973  15.670  1.00  0.00    -0.228 OA
HETATM    3  O2  UNL     1      49.281  23.687  15.389  1.00  0.00    -0.231 OA
HETATM    4  C7  UNL     1      50.614  23.321  15.245  1.00  0.00     0.204 C 
HETATM    5  C13 UNL     1      51.256  24.525  14.681  1.00  0.00     0.116 C 
HETATM    6  C14 UNL     1      52.330  25.070  15.634  1.00  0.00     0.052 C 
ENDROOT
BRANCH   1   7
HETATM    7  C5  UNL     1      50.586  26.850  15.241  1.00  0.00     0.007 C 
HETATM    8  C4  UNL     1      49.945  27.978  15.031  1.00  0.00    -0.028 C 
BRANCH   8   9
HETATM    9  C3  UNL     1      48.714  28.089  14.239  1.00  0.00     0.031 C 
BRANCH   9  10
HETATM   10  C2  UNL     1      48.949  28.581  12.814  1.00  0.00    -0.005 C 
HETATM   11  C1  UNL     1      49.568  29.956  12.941  1.00  0.00     0.011 C 
BRANCH  10  12
HETATM   12  C15 UNL     1      47.623  28.618  12.105  1.00  0.00     0.117 C 
BRANCH  12  13
HETATM   13  C16 UNL     1      47.731  28.972  10.688  1.00  0.00     0.172 C 
HETATM   14  O6  UNL     1      47.258  30.032  10.218  1.00  0.00    -0.648 OA
HETATM   15  O7  UNL     1      48.382  28.112   9.817  1.00  0.00    -0.648 OA
ENDBRANCH  12  13
ENDBRANCH  10  12
ENDBRANCH   9  10
ENDBRANCH   8   9
ENDBRANCH   1   7
BRANCH   5  16
HETATM   16  O5  UNL     1      51.853  24.384  13.461  1.00  0.00    -0.384 OA
ATOM     17  H5  UNL     1      52.156  23.501  13.282  1.00  0.00     0.210 HD
ENDBRANCH   5  16
BRANCH   4  18
HETATM   18  C8  UNL     1      50.707  22.061  14.476  1.00  0.00     0.052 C 
HETATM   19  C9  UNL     1      49.391  21.517  14.023  1.00  0.00     0.012 C 
HETATM   20  C10 UNL     1      49.551  20.012  14.028  1.00  0.00     0.035 C 
HETATM   21  C11 UNL     1      50.603  19.724  15.070  1.00  0.00     0.147 C 
HETATM   22  C12 UNL     1      51.471  20.961  15.147  1.00  0.00     0.153 C 
BRANCH  21  23
HETATM   23  O3  UNL     1      51.333  18.598  14.655  1.00  0.00    -0.393 OA
ATOM     24  H3  UNL     1      52.257  18.815  14.689  1.00  0.00     0.210 HD
ENDBRANCH  21  23
BRANCH  22  25
HETATM   25  O4  UNL     1      52.661  20.638  14.453  1.00  0.00    -0.393 OA
ATOM     26  H4  UNL     1      53.164  19.966  14.898  1.00  0.00     0.210 HD
ENDBRANCH  22  25
ENDBRANCH   4  18
TORSDOF 9
ENDMDL
MODEL 3
REMARK VINA RESULT: -8.970320873      0.963      1.377
REMARK  9 active torsions:
REMARK  status: ('A' for Active; 'I' for Inactive)
REMARK    1  A    between atoms: C2_2  and  C3_3 
REMARK    2  A    between atoms: C2_2  and  C15_23 
REMARK    3  A    between atoms: C3_3  and  C4_4 
REMARK    4  A    between atoms: C5_5  and  C6_6 
REMARK    5  A    between atoms: C7_9  and  C8_10 
REMARK    6  A    between atoms: C11_13  and  O3_14 
REMARK    7  A    between atoms: C12_16  and  O4_17 
REMARK    8  A    between atoms: C13_19  and  O5_21 
REMARK    9  A    between atoms: C15_23  and  C16_24 
ROOT
HETATM    1  C6  UNL     1      50.156  25.396  14.658  1.00  0.00     0.219 C 
HETATM    2  O1  UNL     1      49.324  24.808  15.640  1.00  0.00    -0.228 OA
HETATM    3  O2  UNL     1      49.350  23.520  15.367  1.00  0.00    -0.231 OA
HETATM    4  C7  UNL     1      50.688  23.182  15.211  1.00  0.00     0.204 C 
HETATM    5  C13 UNL     1      51.299  24.394  14.632  1.00  0.00     0.116 C 
HETATM    6  C14 UNL     1      52.371  24.968  15.570  1.00  0.00     0.052 C 
ENDROOT
BRANCH   1   7
HETATM    7  C5  UNL     1      50.585  26.708  15.184  1.00  0.00     0.007 C 
HETATM    8  C4  UNL     1      49.785  27.748  15.264  1.00  0.00    -0.028 C 
BRANCH   8   9
HETATM    9  C3  UNL     1      48.379  27.738  14.842  1.00  0.00     0.031 C 
BRANCH   9  10
HETATM   10  C2  UNL     1      48.041  28.821  13.821  1.00  0.00    -0.005 C 
HETATM   11  C1  UNL     1      46.531  28.921  13.800  1.00  0.00     0.011 C 
BRANCH  10  12
HETATM   12  C15 UNL     1      48.602  28.402  12.490  1.00  0.00     0.117 C 
BRANCH  12  13
HETATM   13  C16 UNL     1      48.695  29.502  11.527  1.00  0.00     0.172 C 
HETATM   14  O6  UNL     1      47.826  29.705  10.648  1.00  0.00    -0.648 OA
HETATM   15  O7  UNL     1      49.779  30.363  11.576  1.00  0.00    -0.648 OA
ENDBRANCH  12  13
ENDBRANCH  10  12
ENDBRANCH   9  10
ENDBRANCH   8   9
ENDBRANCH   1   7
BRANCH   5  16
HETATM   16  O5  UNL     1      51.885  24.257  13.407  1.00  0.00    -0.384 OA
ATOM     17  H5  UNL     1      52.531  24.926  13.213  1.00  0.00     0.210 HD
ENDBRANCH   5  16
BRANCH   4  18
HETATM   18  C8  UNL     1      50.800  21.918  14.450  1.00  0.00     0.052 C 
HETATM   19  C9  UNL     1      49.501  21.396  13.928  1.00  0.00     0.012 C 
HETATM   20  C10 UNL     1      49.633  19.889  13.944  1.00  0.00     0.035 C 
HETATM   21  C11 UNL     1      50.623  19.584  15.040  1.00  0.00     0.147 C 
HETATM   22  C12 UNL     1      51.507  20.806  15.162  1.00  0.00     0.153 C 
BRANCH  21  23
HETATM   23  O3  UNL     1      51.354  18.445  14.667  1.00  0.00    -0.393 OA
ATOM     24  H3  UNL     1      50.770  17.857  14.203  1.00  0.00     0.210 HD
ENDBRANCH  21  23
BRANCH  22  25
HETATM   25  O4  UNL     1      52.727  20.461  14.533  1.00  0.00    -0.393 OA
ATOM     26  H4  UNL     1      53.474  20.589  15.105  1.00  0.00     0.210 HD
ENDBRANCH  22  25
ENDBRANCH   4  18
TORSDOF 9
ENDMDL
MODEL 4
REMARK VINA RESULT: -8.942028162      0.987      1.196
REMARK  9 active torsions:
REMARK  status: ('A' for Active; 'I' for Inactive)
REMARK    1  A    between atoms: C2_2  and  C3_3 
REMARK    2  A    between atoms: C2_2  and  C15_23 
REMARK    3  A    between atoms: C3_3  and  C4_4 
REMARK    4  A    between atoms: C5_5  and  C6_6 
REMARK    5  A    between atoms: C7_9  and  C8_10 
REMARK    6  A    between atoms: C11_13  and  O3_14 
REMARK    7  A    between atoms: C12_16  and  O4_17 
REMARK    8  A    between atoms: C13_19  and  O5_21 
REMARK    9  A    between atoms: C15_23  and  C16_24 
ROOT
HETATM    1  C6  UNL     1      50.420  24.596  14.662  1.00  0.00     0.219 C 
HETATM    2  O1  UNL     1      49.652  23.862  15.597  1.00  0.00    -0.228 OA
HETATM    3  O2  UNL     1      49.885  22.601  15.300  1.00  0.00    -0.231 OA
HETATM    4  C7  UNL     1      51.264  22.474  15.191  1.00  0.00     0.204 C 
HETATM    5  C13 UNL     1      51.703  23.781  14.662  1.00  0.00     0.116 C 
HETATM    6  C14 UNL     1      52.639  24.486  15.655  1.00  0.00     0.052 C 
ENDROOT
BRANCH   1   7
HETATM    7  C5  UNL     1      50.623  25.943  15.232  1.00  0.00     0.007 C 
HETATM    8  C4  UNL     1      49.837  26.963  14.968  1.00  0.00    -0.028 C 
BRANCH   8   9
HETATM    9  C3  UNL     1      48.669  26.892  14.080  1.00  0.00     0.031 C 
BRANCH   9  10
HETATM   10  C2  UNL     1      48.509  28.119  13.186  1.00  0.00    -0.005 C 
HETATM   11  C1  UNL     1      49.484  29.150  13.711  1.00  0.00     0.011 C 
BRANCH  10  12
HETATM   12  C15 UNL     1      47.082  28.585  13.280  1.00  0.00     0.117 C 
BRANCH  12  13
HETATM   13  C16 UNL     1      46.325  28.391  12.041  1.00  0.00     0.172 C 
HETATM   14  O6  UNL     1      45.383  27.571  11.947  1.00  0.00    -0.648 OA
HETATM   15  O7  UNL     1      46.649  29.135  10.918  1.00  0.00    -0.648 OA
ENDBRANCH  12  13
ENDBRANCH  10  12
ENDBRANCH   9  10
ENDBRANCH   8   9
ENDBRANCH   1   7
BRANCH   5  16
HETATM   16  O5  UNL     1      52.348  23.767  13.460  1.00  0.00    -0.384 OA
ATOM     17  H5  UNL     1      52.960  23.047  13.360  1.00  0.00     0.210 HD
ENDBRANCH   5  16
BRANCH   4  18
HETATM   18  C8  UNL     1      51.596  21.263  14.409  1.00  0.00     0.052 C 
HETATM   19  C9  UNL     1      51.678  21.485  12.934  1.00  0.00     0.012 C 
HETATM   20  C10 UNL     1      51.213  20.192  12.301  1.00  0.00     0.035 C 
HETATM   21  C11 UNL     1      50.279  19.567  13.307  1.00  0.00     0.147 C 
HETATM   22  C12 UNL     1      50.713  20.080  14.663  1.00  0.00     0.153 C 
BRANCH  21  23
HETATM   23  O3  UNL     1      50.403  18.171  13.212  1.00  0.00    -0.393 OA
ATOM     24  H3  UNL     1      50.425  17.814  14.092  1.00  0.00     0.210 HD
ENDBRANCH  21  23
BRANCH  22  25
HETATM   25  O4  UNL     1      51.415  19.011  15.270  1.00  0.00    -0.393 OA
ATOM     26  H4  UNL     1      50.845  18.461  15.795  1.00  0.00     0.210 HD
ENDBRANCH  22  25
ENDBRANCH   4  18
TORSDOF 9
ENDMDL
MODEL 5
REMARK VINA RESULT: -8.825320188      1.400      1.742
REMARK  9 active torsions:
REMARK  status: ('A' for Active; 'I' for Inactive)
REMARK    1  A    between atoms: C2_2  and  C3_3 
REMARK    2  A    between atoms: C2_2  and  C15_23 
REMARK    3  A    between atoms: C3_3  and  C4_4 
REMARK    4  A    between atoms: C5_5  and  C6_6 
REMARK    5  A    between atoms: C7_9  and  C8_10 
REMARK    6  A    between atoms: C11_13  and  O3_14 
REMARK    7  A    between atoms: C12_16  and  O4_17 
REMARK    8  A    between atoms: C13_19  and  O5_21 
REMARK    9  A    between atoms: C15_23  and  C16_24 
ROOT
HETATM    1  C6  UNL     1      50.272  24.757  14.591  1.00  0.00     0.219 C 
HETATM    2  O1  UNL     1      49.510  24.074  15.568  1.00  0.00    -0.228 OA
HETATM    3  O2  UNL     1      49.780  22.801  15.368  1.00  0.00    -0.231 OA
HETATM    4  C7  UNL     1      51.163  22.704  15.285  1.00  0.00     0.204 C 
HETATM    5  C13 UNL     1      51.575  23.979  14.667  1.00  0.00     0.116 C 
HETATM    6  C14 UNL     1      52.478  24.781  15.616  1.00  0.00     0.052 C 
ENDROOT
BRANCH   1   7
HETATM    7  C5  UNL     1      50.431  26.148  15.062  1.00  0.00     0.007 C 
HETATM    8  C4  UNL     1      49.673  27.139  14.650  1.00  0.00    -0.028 C 
BRANCH   8   9
HETATM    9  C3  UNL     1      48.584  26.992  13.677  1.00  0.00     0.031 C 
BRANCH   9  10
HETATM   10  C2  UNL     1      48.218  28.294  12.970  1.00  0.00    -0.005 C 
HETATM   11  C1  UNL     1      47.083  28.899  13.766  1.00  0.00     0.011 C 
BRANCH  10  12
HETATM   12  C15 UNL     1      47.811  27.964  11.560  1.00  0.00     0.117 C 
BRANCH  12  13
HETATM   13  C16 UNL     1      48.347  28.898  10.567  1.00  0.00     0.172 C 
HETATM   14  O6  UNL     1      48.940  29.954  10.885  1.00  0.00    -0.648 OA
HETATM   15  O7  UNL     1      48.204  28.617   9.217  1.00  0.00    -0.648 OA
ENDBRANCH  12  13
ENDBRANCH  10  12
ENDBRANCH   9  10
ENDBRANCH   8   9
ENDBRANCH   1   7
BRANCH   5  16
HETATM   16  O5  UNL     1      52.237  23.894  13.476  1.00  0.00    -0.384 OA
ATOM     17  H5  UNL     1      51.852  23.277  12.865  1.00  0.00     0.210 HD
ENDBRANCH   5  16
BRANCH   4  18
HETATM   18  C8  UNL     1      51.538  21.448  14.599  1.00  0.00     0.052 C 
HETATM   19  C9  UNL     1      51.744  21.588  13.126  1.00  0.00     0.012 C 
HETATM   20  C10 UNL     1      51.310  20.268  12.527  1.00  0.00     0.035 C 
HETATM   21  C11 UNL     1      50.287  19.710  13.484  1.00  0.00     0.147 C 
HETATM   22  C12 UNL     1      50.616  20.291  14.841  1.00  0.00     0.153 C 
BRANCH  21  23
HETATM   23  O3  UNL     1      50.394  18.311  13.474  1.00  0.00    -0.393 OA
ATOM     24  H3  UNL     1      50.373  18.005  14.373  1.00  0.00     0.210 HD
ENDBRANCH  21  23
BRANCH  22  25
HETATM   25  O4  UNL     1      51.248  19.249  15.561  1.00  0.00    -0.393 OA
ATOM     26  H4  UNL     1      52.181  19.208  15.386  1.00  0.00     0.210 HD
ENDBRANCH  22  25
ENDBRANCH   4  18
TORSDOF 9
ENDMDL
