MODEL 1
REMARK VINA RESULT: -8.468297977      0.000      0.000
REMARK  9 active torsions:
REMARK  status: ('A' for Active; 'I' for Inactive)
REMARK    1  A    between atoms: C2_7  and  C3_8 
REMARK    2  A    between atoms: C3_8  and  C4_9 
REMARK    3  A    between atoms: C4_9  and  C5_10 
REMARK    4  A    between atoms: C5_10  and  C6_11 
REMARK    5  A    between atoms: C6_11  and  N3_12 
REMARK    6  A    between atoms: N6_23  and  C10_24 
REMARK    7  A    between atoms: C11_26  and  C12_27 
REMARK    8  A    between atoms: C12_27  and  O2_28 
REMARK    9  A    between atoms: C13_30  and  O3_31 
ROOT
HETATM    1  N1  UNL     1      53.496  24.933  15.944  1.00  0.00    -0.383 N 
ATOM      2  H11 UNL     1      53.906  25.852  16.112  1.00  0.00     0.157 HD
ATOM      3  H12 UNL     1      54.075  24.124  16.166  1.00  0.00     0.157 HD
HETATM    4  C1  UNL     1      52.303  24.777  15.473  1.00  0.00     0.131 A 
HETATM    5  N2  UNL     1      51.761  23.561  15.249  1.00  0.00    -0.330 N 
ATOM      6  H2  UNL     1      52.320  22.736  15.464  1.00  0.00     0.168 HD
HETATM    7  C2  UNL     1      50.530  23.384  14.763  1.00  0.00     0.084 A 
HETATM    8  N4  UNL     1      49.792  24.484  14.481  1.00  0.00    -0.330 N 
ATOM      9  H4  UNL     1      48.851  24.355  14.108  1.00  0.00     0.168 HD
HETATM   10  C7  UNL     1      50.243  25.736  14.668  1.00  0.00     0.143 A 
HETATM   11  C8  UNL     1      51.517  25.874  15.172  1.00  0.00     0.122 A 
HETATM   12  N5  UNL     1      51.749  27.191  15.272  1.00  0.00    -0.346 N 
ATOM     13  H5  UNL     1      52.612  27.613  15.615  1.00  0.00     0.167 HD
HETATM   14  C9  UNL     1      50.655  27.874  14.847  1.00  0.00     0.188 A 
HETATM   15  N6  UNL     1      49.716  26.974  14.469  1.00  0.00    -0.294 N 
ENDROOT
BRANCH  15  16
HETATM   16  C10 UNL     1      48.396  27.208  13.951  1.00  0.00     0.306 C 
HETATM   17  O1  UNL     1      48.454  27.250  12.582  1.00  0.00    -0.350 OA
HETATM   18  C11 UNL     1      48.321  28.553  12.166  1.00  0.00     0.182 C 
HETATM   19  C13 UNL     1      47.296  29.106  13.128  1.00  0.00     0.226 C 
HETATM   20  C14 UNL     1      47.782  28.495  14.434  1.00  0.00     0.314 C 
HETATM   21  F1  UNL     1      48.796  29.293  14.907  1.00  0.00    -0.198 F 
HETATM   22  F2  UNL     1      46.771  28.304  15.333  1.00  0.00    -0.198 F 
BRANCH  18  23
HETATM   23  C12 UNL     1      47.855  28.586  10.735  1.00  0.00     0.199 C 
BRANCH  23  24
HETATM   24  O2  UNL     1      47.566  29.916  10.424  1.00  0.00    -0.398 OA
ATOM     25  H2  UNL     1      47.490  29.974   9.479  1.00  0.00     0.209 HD
ENDBRANCH  23  24
ENDBRANCH  18  23
BRANCH  19  26
HETATM   26  O3  UNL     1      46.015  28.643  12.812  1.00  0.00    -0.387 OA
ATOM     27  H3  UNL     1      45.802  27.867  13.317  1.00  0.00     0.210 HD
ENDBRANCH  19  26
ENDBRANCH  15  16
BRANCH   7  28
HETATM   28  C3  UNL     1      49.998  22.011  14.542  1.00  0.00     0.076 C 
BRANCH  28  29
HETATM   29  C4  UNL     1      51.130  21.045  14.272  1.00  0.00     0.009 C 
BRANCH  29  30
HETATM   30  C5  UNL     1      50.709  20.058  13.216  1.00  0.00     0.027 C 
BRANCH  30  31
HETATM   31  C6  UNL     1      51.100  18.651  13.611  1.00  0.00     0.229 C 
BRANCH  31  32
HETATM   32  N3  UNL     1      51.528  18.693  15.012  1.00  0.00    -0.079 N 
ATOM     33  H33 UNL     1      52.467  19.076  15.130  1.00  0.00     0.274 HD
ATOM     34  H32 UNL     1      51.030  19.394  15.560  1.00  0.00     0.274 HD
ATOM     35  H31 UNL     1      51.432  17.750  15.388  1.00  0.00     0.274 HD
ENDBRANCH  31  32
ENDBRANCH  30  31
ENDBRANCH  29  30
ENDBRANCH  28  29
ENDBRANCH   7  28
TORSDOF 9
ENDMDL
MODEL 2
REMARK VINA RESULT: -8.427497849      1.138      1.187
REMARK  9 active torsions:
REMARK  status: ('A' for Active; 'I' for Inactive)
REMARK    1  A    between atoms: C2_7  and  C3_8 
REMARK    2  A    between atoms: C3_8  and  C4_9 
REMARK    3  A    between atoms: C4_9  and  C5_10 
REMARK    4  A    between atoms: C5_10  and  C6_11 
REMARK    5  A    between atoms: C6_11  and  N3_12 
REMARK    6  A    between atoms: N6_23  and  C10_24 
REMARK    7  A    between atoms: C11_26  and  C12_27 
REMARK    8  A    between atoms: C12_27  and  O2_28 
REMARK    9  A    between atoms: C13_30  and  O3_31 
ROOT
HETATM    1  N1  UNL     1      53.622  25.079  16.016  1.00  0.00    -0.383 N 
ATOM      2  H11 UNL     1      53.955  26.023  16.212  1.00  0.00     0.157 HD
ATOM      3  H12 UNL     1      54.258  24.313  16.236  1.00  0.00     0.157 HD
HETATM    4  C1  UNL     1      52.457  24.841  15.512  1.00  0.00     0.131 A 
HETATM    5  N2  UNL     1      52.016  23.591  15.252  1.00  0.00    -0.330 N 
ATOM      6  H2  UNL     1      52.633  22.808  15.464  1.00  0.00     0.168 HD
HETATM    7  C2  UNL     1      50.815  23.329  14.732  1.00  0.00     0.084 A 
HETATM    8  N4  UNL     1      50.000  24.373  14.453  1.00  0.00    -0.330 N 
ATOM      9  H4  UNL     1      49.081  24.180  14.055  1.00  0.00     0.168 HD
HETATM   10  C7  UNL     1      50.347  25.653  14.675  1.00  0.00     0.143 A 
HETATM   11  C8  UNL     1      51.595  25.879  15.213  1.00  0.00     0.122 A 
HETATM   12  N5  UNL     1      51.720  27.207  15.345  1.00  0.00    -0.346 N 
ATOM     13  H5  UNL     1      52.539  27.688  15.716  1.00  0.00     0.167 HD
HETATM   14  C9  UNL     1      50.586  27.812  14.906  1.00  0.00     0.188 A 
HETATM   15  N6  UNL     1      49.729  26.850  14.487  1.00  0.00    -0.294 N 
ENDROOT
BRANCH  15  16
HETATM   16  C10 UNL     1      48.408  26.992  13.941  1.00  0.00     0.306 C 
HETATM   17  O1  UNL     1      48.499  27.153  12.583  1.00  0.00    -0.350 OA
HETATM   18  C11 UNL     1      48.244  28.466  12.268  1.00  0.00     0.182 C 
HETATM   19  C13 UNL     1      47.140  28.830  13.233  1.00  0.00     0.226 C 
HETATM   20  C14 UNL     1      47.649  28.165  14.502  1.00  0.00     0.314 C 
HETATM   21  F1  UNL     1      48.561  29.019  15.075  1.00  0.00    -0.198 F 
HETATM   22  F2  UNL     1      46.639  27.798  15.346  1.00  0.00    -0.198 F 
BRANCH  18  23
HETATM   23  C12 UNL     1      47.818  28.570  10.828  1.00  0.00     0.199 C 
BRANCH  23  24
HETATM   24  O2  UNL     1      47.533  29.914  10.577  1.00  0.00    -0.398 OA
ATOM     25  H2  UNL     1      46.880  29.939   9.887  1.00  0.00     0.209 HD
ENDBRANCH  23  24
ENDBRANCH  18  23
BRANCH  19  26
HETATM   26  O3  UNL     1      45.923  28.268  12.833  1.00  0.00    -0.387 OA
ATOM     27  H3  UNL     1      45.767  28.423  11.909  1.00  0.00     0.210 HD
ENDBRANCH  19  26
ENDBRANCH  15  16
BRANCH   7  28
HETATM   28  C3  UNL     1      50.397  21.924  14.472  1.00  0.00     0.076 C 
BRANCH  28  29
HETATM   29  C4  UNL     1      51.532  21.145  13.846  1.00  0.00     0.009 C 
BRANCH  29  30
HETATM   30  C5  UNL     1      51.071  20.533  12.550  1.00  0.00     0.027 C 
BRANCH  30  31
HETATM   31  C6  UNL     1      52.245  20.254  11.640  1.00  0.00     0.229 C 
BRANCH  31  32
HETATM   32  N3  UNL     1      51.735  20.214  10.267  1.00  0.00    -0.079 N 
ATOM     33  H33 UNL     1      50.717  20.246  10.219  1.00  0.00     0.274 HD
ATOM     34  H32 UNL     1      51.920  21.072   9.748  1.00  0.00     0.274 HD
ATOM     35  H31 UNL     1      52.129  19.386   9.819  1.00  0.00     0.274 HD
ENDBRANCH  31  32
ENDBRANCH  30  31
ENDBRANCH  29  30
ENDBRANCH  28  29
ENDBRANCH   7  28
TORSDOF 9
ENDMDL
MODEL 3
REMARK VINA RESULT: -8.362722235      2.020      2.961
REMARK  9 active torsions:
REMARK  status: ('A' for Active; 'I' for Inactive)
REMARK    1  A    between atoms: C2_7  and  C3_8 
REMARK    2  A    between atoms: C3_8  and  C4_9 
REMARK    3  A    between atoms: C4_9  and  C5_10 
REMARK    4  A    between atoms: C5_10  and  C6_11 
REMARK    5  A    between atoms: C6_11  and  N3_12 
REMARK    6  A    between atoms: N6_23  and  C10_24 
REMARK    7  A    between atoms: C11_26  and  C12_27 
REMARK    8  A    between atoms: C12_27  and  O2_28 
REMARK    9  A    between atoms: C13_30  and  O3_31 
ROOT
HETATM    1  N1  UNL     1      51.659  28.355  15.893  1.00  0.00    -0.383 N 
ATOM      2  H11 UNL     1      51.982  29.298  15.676  1.00  0.00     0.157 HD
ATOM      3  H12 UNL     1      52.105  27.887  16.682  1.00  0.00     0.157 HD
HETATM    4  C1  UNL     1      50.731  27.762  15.218  1.00  0.00     0.131 A 
HETATM    5  N2  UNL     1      50.303  26.514  15.506  1.00  0.00    -0.330 N 
ATOM      6  H2  UNL     1      50.734  26.025  16.290  1.00  0.00     0.168 HD
HETATM    7  C2  UNL     1      49.346  25.888  14.817  1.00  0.00     0.084 A 
HETATM    8  N4  UNL     1      48.778  26.543  13.777  1.00  0.00    -0.330 N 
ATOM      9  H4  UNL     1      48.046  26.071  13.246  1.00  0.00     0.168 HD
HETATM   10  C7  UNL     1      49.134  27.787  13.412  1.00  0.00     0.143 A 
HETATM   11  C8  UNL     1      50.125  28.397  14.149  1.00  0.00     0.122 A 
HETATM   12  N5  UNL     1      50.312  29.610  13.611  1.00  0.00    -0.346 N 
ATOM     13  H5  UNL     1      50.985  30.303  13.938  1.00  0.00     0.167 HD
HETATM   14  C9  UNL     1      49.465  29.772  12.562  1.00  0.00     0.188 A 
HETATM   15  N6  UNL     1      48.731  28.641  12.433  1.00  0.00    -0.294 N 
ENDROOT
BRANCH  15  16
HETATM   16  C10 UNL     1      47.706  28.333  11.474  1.00  0.00     0.306 C 
HETATM   17  O1  UNL     1      47.937  29.048  10.327  1.00  0.00    -0.350 OA
HETATM   18  C11 UNL     1      47.026  30.072  10.245  1.00  0.00     0.182 C 
HETATM   19  C13 UNL     1      45.762  29.437  10.774  1.00  0.00     0.226 C 
HETATM   20  C14 UNL     1      46.317  28.655  11.955  1.00  0.00     0.314 C 
HETATM   21  F1  UNL     1      46.431  29.531  13.009  1.00  0.00    -0.198 F 
HETATM   22  F2  UNL     1      45.577  27.544  12.245  1.00  0.00    -0.198 F 
BRANCH  18  23
HETATM   23  C12 UNL     1      46.896  30.526   8.816  1.00  0.00     0.199 C 
BRANCH  23  24
HETATM   24  O2  UNL     1      46.464  31.853   8.840  1.00  0.00    -0.398 OA
ATOM     25  H2  UNL     1      46.507  32.179   7.948  1.00  0.00     0.209 HD
ENDBRANCH  23  24
ENDBRANCH  18  23
BRANCH  19  26
HETATM   26  O3  UNL     1      45.205  28.572   9.827  1.00  0.00    -0.387 OA
ATOM     27  H3  UNL     1      44.892  29.055   9.071  1.00  0.00     0.210 HD
ENDBRANCH  19  26
ENDBRANCH  15  16
BRANCH   7  28
HETATM   28  C3  UNL     1      48.926  24.510  15.192  1.00  0.00     0.076 C 
BRANCH  28  29
HETATM   29  C4  UNL     1      50.124  23.587  15.231  1.00  0.00     0.009 C 
BRANCH  29  30
HETATM   30  C5  UNL     1      49.667  22.161  15.073  1.00  0.00     0.027 C 
BRANCH  30  31
HETATM   31  C6  UNL     1      50.724  21.334  14.378  1.00  0.00     0.229 C 
BRANCH  31  32
HETATM   32  N3  UNL     1      51.354  20.486  15.393  1.00  0.00    -0.079 N 
ATOM     33  H33 UNL     1      52.099  20.961  15.903  1.00  0.00     0.274 HD
ATOM     34  H32 UNL     1      50.746  20.299  16.190  1.00  0.00     0.274 HD
ATOM     35  H31 UNL     1      51.671  19.635  14.926  1.00  0.00     0.274 HD
ENDBRANCH  31  32
ENDBRANCH  30  31
ENDBRANCH  29  30
ENDBRANCH  28  29
ENDBRANCH   7  28
TORSDOF 9
ENDMDL
MODEL 4
REMARK VINA RESULT: -6.767940808      3.672      7.496
REMARK  9 active torsions:
REMARK  status: ('A' for Active; 'I' for Inactive)
REMARK    1  A    between atoms: C2_7  and  C3_8 
REMARK    2  A    between atoms: C3_8  and  C4_9 
REMARK    3  A    between atoms: C4_9  and  C5_10 
REMARK    4  A    between atoms: C5_10  and  C6_11 
REMARK    5  A    between atoms: C6_11  and  N3_12 
REMARK    6  A    between atoms: N6_23  and  C10_24 
REMARK    7  A    between atoms: C11_26  and  C12_27 
REMARK    8  A    between atoms: C12_27  and  O2_28 
REMARK    9  A    between atoms: C13_30  and  O3_31 
ROOT
HETATM    1  N1  UNL     1      46.857  28.189  16.651  1.00  0.00    -0.383 N 
ATOM      2  H11 UNL     1      46.695  27.666  17.512  1.00  0.00     0.157 HD
ATOM      3  H12 UNL     1      46.431  29.114  16.588  1.00  0.00     0.157 HD
HETATM    4  C1  UNL     1      47.562  27.724  15.673  1.00  0.00     0.131 A 
HETATM    5  N2  UNL     1      47.775  28.417  14.534  1.00  0.00    -0.330 N 
ATOM      6  H2  UNL     1      47.359  29.344  14.447  1.00  0.00     0.168 HD
HETATM    7  C2  UNL     1      48.501  27.950  13.515  1.00  0.00     0.084 A 
HETATM    8  N4  UNL     1      49.050  26.718  13.636  1.00  0.00    -0.330 N 
ATOM      9  H4  UNL     1      49.605  26.355  12.862  1.00  0.00     0.168 HD
HETATM   10  C7  UNL     1      48.896  25.952  14.730  1.00  0.00     0.143 A 
HETATM   11  C8  UNL     1      48.140  26.471  15.757  1.00  0.00     0.122 A 
HETATM   12  N5  UNL     1      48.124  25.546  16.727  1.00  0.00    -0.346 N 
ATOM     13  H5  UNL     1      47.642  25.638  17.621  1.00  0.00     0.167 HD
HETATM   14  C9  UNL     1      48.848  24.468  16.332  1.00  0.00     0.188 A 
HETATM   15  N6  UNL     1      49.330  24.714  15.090  1.00  0.00    -0.294 N 
ENDROOT
BRANCH  15  16
HETATM   16  C10 UNL     1      50.149  23.879  14.256  1.00  0.00     0.306 C 
HETATM   17  O1  UNL     1      49.827  22.566  14.484  1.00  0.00    -0.350 OA
HETATM   18  C11 UNL     1      50.828  21.979  15.219  1.00  0.00     0.182 C 
HETATM   19  C13 UNL     1      52.076  22.603  14.640  1.00  0.00     0.226 C 
HETATM   20  C14 UNL     1      51.624  24.048  14.500  1.00  0.00     0.314 C 
HETATM   21  F1  UNL     1      51.780  24.647  15.728  1.00  0.00    -0.198 F 
HETATM   22  F2  UNL     1      52.265  24.704  13.487  1.00  0.00    -0.198 F 
BRANCH  18  23
HETATM   23  C12 UNL     1      50.784  20.485  15.038  1.00  0.00     0.199 C 
BRANCH  23  24
HETATM   24  O2  UNL     1      52.090  20.012  15.179  1.00  0.00    -0.398 OA
ATOM     25  H2  UNL     1      52.105  19.122  14.847  1.00  0.00     0.209 HD
ENDBRANCH  23  24
ENDBRANCH  18  23
BRANCH  19  26
HETATM   26  O3  UNL     1      52.372  22.054  13.389  1.00  0.00    -0.387 OA
ATOM     27  H3  UNL     1      51.966  22.558  12.694  1.00  0.00     0.210 HD
ENDBRANCH  19  26
ENDBRANCH  15  16
BRANCH   7  28
HETATM   28  C3  UNL     1      48.693  28.771  12.288  1.00  0.00     0.076 C 
BRANCH  28  29
HETATM   29  C4  UNL     1      47.895  28.193  11.139  1.00  0.00     0.009 C 
BRANCH  29  30
HETATM   30  C5  UNL     1      47.728  29.236  10.066  1.00  0.00     0.027 C 
BRANCH  30  31
HETATM   31  C6  UNL     1      46.266  29.558   9.854  1.00  0.00     0.229 C 
BRANCH  31  32
HETATM   32  N3  UNL     1      46.198  30.704   8.942  1.00  0.00    -0.079 N 
ATOM     33  H33 UNL     1      47.031  31.292   8.979  1.00  0.00     0.274 HD
ATOM     34  H32 UNL     1      46.268  30.436   7.961  1.00  0.00     0.274 HD
ATOM     35  H31 UNL     1      45.341  31.213   9.157  1.00  0.00     0.274 HD
ENDBRANCH  31  32
ENDBRANCH  30  31
ENDBRANCH  29  30
ENDBRANCH  28  29
ENDBRANCH   7  28
TORSDOF 9
ENDMDL
MODEL 5
REMARK VINA RESULT: -6.696457773      1.648      1.943
REMARK  9 active torsions:
REMARK  status: ('A' for Active; 'I' for Inactive)
REMARK    1  A    between atoms: C2_7  and  C3_8 
REMARK    2  A    between atoms: C3_8  and  C4_9 
REMARK    3  A    between atoms: C4_9  and  C5_10 
REMARK    4  A    between atoms: C5_10  and  C6_11 
REMARK    5  A    between atoms: C6_11  and  N3_12 
REMARK    6  A    between atoms: N6_23  and  C10_24 
REMARK    7  A    between atoms: C11_26  and  C12_27 
REMARK    8  A    between atoms: C12_27  and  O2_28 
REMARK    9  A    between atoms: C13_30  and  O3_31 
ROOT
HETATM    1  N1  UNL     1      54.142  24.656  15.328  1.00  0.00    -0.383 N 
ATOM      2  H11 UNL     1      54.482  25.614  15.410  1.00  0.00     0.157 HD
ATOM      3  H12 UNL     1      54.844  23.916  15.343  1.00  0.00     0.157 HD
HETATM    4  C1  UNL     1      52.888  24.368  15.211  1.00  0.00     0.131 A 
HETATM    5  N2  UNL     1      52.438  23.099  15.102  1.00  0.00    -0.330 N 
ATOM      6  H2  UNL     1      53.121  22.342  15.114  1.00  0.00     0.168 HD
HETATM    7  C2  UNL     1      51.146  22.786  14.980  1.00  0.00     0.084 A 
HETATM    8  N4  UNL     1      50.245  23.796  14.964  1.00  0.00    -0.330 N 
ATOM      9  H4  UNL     1      49.256  23.564  14.870  1.00  0.00     0.168 HD
HETATM   10  C7  UNL     1      50.593  25.091  15.066  1.00  0.00     0.143 A 
HETATM   11  C8  UNL     1      51.936  25.370  15.190  1.00  0.00     0.122 A 
HETATM   12  N5  UNL     1      52.044  26.703  15.274  1.00  0.00    -0.346 N 
ATOM     13  H5  UNL     1      52.918  27.218  15.373  1.00  0.00     0.167 HD
HETATM   14  C9  UNL     1      50.808  27.260  15.206  1.00  0.00     0.188 A 
HETATM   15  N6  UNL     1      49.901  26.261  15.075  1.00  0.00    -0.294 N 
ENDROOT
BRANCH  15  16
HETATM   16  C10 UNL     1      48.471  26.347  14.964  1.00  0.00     0.306 C 
HETATM   17  O1  UNL     1      48.151  27.060  13.838  1.00  0.00    -0.350 OA
HETATM   18  C11 UNL     1      47.711  28.308  14.205  1.00  0.00     0.182 C 
HETATM   19  C13 UNL     1      46.910  28.024  15.453  1.00  0.00     0.226 C 
HETATM   20  C14 UNL     1      47.817  27.017  16.143  1.00  0.00     0.314 C 
HETATM   21  F1  UNL     1      48.785  27.729  16.812  1.00  0.00    -0.198 F 
HETATM   22  F2  UNL     1      47.128  26.148  16.941  1.00  0.00    -0.198 F 
BRANCH  18  23
HETATM   23  C12 UNL     1      46.879  28.900  13.099  1.00  0.00     0.199 C 
BRANCH  23  24
HETATM   24  O2  UNL     1      46.428  27.841  12.307  1.00  0.00    -0.398 OA
ATOM     25  H2  UNL     1      45.484  27.921  12.241  1.00  0.00     0.209 HD
ENDBRANCH  23  24
ENDBRANCH  18  23
BRANCH  19  26
HETATM   26  O3  UNL     1      45.679  27.443  15.134  1.00  0.00    -0.387 OA
ATOM     27  H3  UNL     1      45.108  28.073  14.710  1.00  0.00     0.210 HD
ENDBRANCH  19  26
ENDBRANCH  15  16
BRANCH   7  28
HETATM   28  C3  UNL     1      50.723  21.363  14.865  1.00  0.00     0.076 C 
BRANCH  28  29
HETATM   29  C4  UNL     1      50.084  21.112  13.517  1.00  0.00     0.009 C 
BRANCH  29  30
HETATM   30  C5  UNL     1      50.858  20.050  12.781  1.00  0.00     0.027 C 
BRANCH  30  31
HETATM   31  C6  UNL     1      52.095  20.635  12.140  1.00  0.00     0.229 C 
BRANCH  31  32
HETATM   32  N3  UNL     1      52.018  20.356  10.703  1.00  0.00    -0.079 N 
ATOM     33  H33 UNL     1      51.101  20.562  10.306  1.00  0.00     0.274 HD
ATOM     34  H32 UNL     1      52.557  21.014  10.140  1.00  0.00     0.274 HD
ATOM     35  H31 UNL     1      52.303  19.386  10.566  1.00  0.00     0.274 HD
ENDBRANCH  31  32
ENDBRANCH  30  31
ENDBRANCH  29  30
ENDBRANCH  28  29
ENDBRANCH   7  28
TORSDOF 9
ENDMDL
