MODEL 1
REMARK VINA RESULT: -7.850185336      0.000      0.000
REMARK  9 active torsions:
REMARK  status: ('A' for Active; 'I' for Inactive)
REMARK    1  A    between atoms: C2_2  and  O1_3 
REMARK    2  A    between atoms: C2_2  and  C13_25 
REMARK    3  A    between atoms: O1_3  and  C3_4 
REMARK    4  A    between atoms: C4_6  and  C5_7 
REMARK    5  A    between atoms: C5_7  and  C6_9 
REMARK    6  A    between atoms: C6_9  and  C7_10 
REMARK    7  A    between atoms: C8_11  and  O4_12 
REMARK    8  A    between atoms: C8_11  and  C9_14 
REMARK    9  A    between atoms: C10_17  and  N1_18 
ROOT
HETATM    1  C3  UNL     1      48.486  27.193  13.681  1.00  0.00     0.276 C 
HETATM    2  O2  UNL     1      49.602  26.608  14.282  1.00  0.00    -0.345 OA
HETATM    3  C4  UNL     1      49.353  25.948  15.435  1.00  0.00     0.224 C 
HETATM    4  C10 UNL     1      47.996  26.206  16.040  1.00  0.00     0.221 C 
HETATM    5  C11 UNL     1      47.745  27.697  15.966  1.00  0.00     0.056 C 
HETATM    6  C12 UNL     1      47.987  28.273  14.617  1.00  0.00     0.116 C 
HETATM    7  S1  UNL     1      46.457  29.033  14.049  1.00  0.00    -0.087 SA
ENDROOT
BRANCH   3   8
HETATM    8  C5  UNL     1      49.620  24.491  15.272  1.00  0.00     0.161 C 
HETATM    9  O3  UNL     1      48.774  23.712  15.663  1.00  0.00    -0.295 OA
BRANCH   8  10
HETATM   10  C6  UNL     1      50.857  23.963  14.660  1.00  0.00     0.111 C 
BRANCH  10  11
HETATM   11  C7  UNL     1      51.196  22.676  15.332  1.00  0.00     0.018 C 
HETATM   12  C8  UNL     1      50.955  21.482  14.859  1.00  0.00     0.104 C 
BRANCH  12  13
HETATM   13  O4  UNL     1      51.337  20.370  15.614  1.00  0.00    -0.360 OA
ATOM     14  H4  UNL     1      50.999  19.516  15.373  1.00  0.00     0.217 HD
ENDBRANCH  12  13
BRANCH  12  15
HETATM   15  C9  UNL     1      50.305  21.196  13.576  1.00  0.00     0.409 C 
HETATM   16  F1  UNL     1      50.422  19.822  13.343  1.00  0.00    -0.207 F 
HETATM   17  F2  UNL     1      48.935  21.456  13.640  1.00  0.00    -0.207 F 
ENDBRANCH  12  15
ENDBRANCH  10  11
ENDBRANCH   8  10
ENDBRANCH   3   8
BRANCH   4  18
HETATM   18  N1  UNL     1      48.079  25.868  17.455  1.00  0.00    -0.072 N 
ATOM     19  H13 UNL     1      48.859  25.248  17.672  1.00  0.00     0.274 HD
ATOM     20  H12 UNL     1      48.369  26.654  18.036  1.00  0.00     0.274 HD
ATOM     21  H11 UNL     1      47.176  25.480  17.729  1.00  0.00     0.274 HD
ENDBRANCH   4  18
BRANCH   1  22
HETATM   22  O1  UNL     1      48.964  27.723  12.481  1.00  0.00    -0.344 OA
BRANCH  22  23
HETATM   23  C2  UNL     1      48.590  29.035  12.273  1.00  0.00     0.221 C 
HETATM   24  C1  UNL     1      49.793  29.903  12.582  1.00  0.00     0.051 C 
BRANCH  23  25
HETATM   25  C13 UNL     1      48.244  29.301  10.848  1.00  0.00     0.203 C 
HETATM   26  O5  UNL     1      49.030  29.889  10.057  1.00  0.00    -0.646 OA
HETATM   27  O6  UNL     1      46.988  28.863  10.422  1.00  0.00    -0.646 OA
ENDBRANCH  23  25
ENDBRANCH  22  23
ENDBRANCH   1  22
TORSDOF 9
ENDMDL
MODEL 2
REMARK VINA RESULT: -7.574678915      1.292      1.614
REMARK  9 active torsions:
REMARK  status: ('A' for Active; 'I' for Inactive)
REMARK    1  A    between atoms: C2_2  and  O1_3 
REMARK    2  A    between atoms: C2_2  and  C13_25 
REMARK    3  A    between atoms: O1_3  and  C3_4 
REMARK    4  A    between atoms: C4_6  and  C5_7 
REMARK    5  A    between atoms: C5_7  and  C6_9 
REMARK    6  A    between atoms: C6_9  and  C7_10 
REMARK    7  A    between atoms: C8_11  and  O4_12 
REMARK    8  A    between atoms: C8_11  and  C9_14 
REMARK    9  A    between atoms: C10_17  and  N1_18 
ROOT
HETATM    1  C3  UNL     1      48.391  27.330  13.384  1.00  0.00     0.276 C 
HETATM    2  O2  UNL     1      49.589  26.984  14.011  1.00  0.00    -0.345 OA
HETATM    3  C4  UNL     1      49.456  26.369  15.207  1.00  0.00     0.224 C 
HETATM    4  C10 UNL     1      48.073  26.431  15.807  1.00  0.00     0.221 C 
HETATM    5  C11 UNL     1      47.572  27.850  15.638  1.00  0.00     0.056 C 
HETATM    6  C12 UNL     1      47.714  28.369  14.252  1.00  0.00     0.116 C 
HETATM    7  S1  UNL     1      46.078  28.818  13.651  1.00  0.00    -0.087 SA
ENDROOT
BRANCH   3   8
HETATM    8  C5  UNL     1      49.967  24.971  15.136  1.00  0.00     0.161 C 
HETATM    9  O3  UNL     1      51.069  24.793  14.655  1.00  0.00    -0.295 OA
BRANCH   8  10
HETATM   10  C6  UNL     1      49.198  23.807  15.623  1.00  0.00     0.111 C 
BRANCH  10  11
HETATM   11  C7  UNL     1      49.160  22.787  14.537  1.00  0.00     0.018 C 
HETATM   12  C8  UNL     1      49.970  21.769  14.417  1.00  0.00     0.104 C 
BRANCH  12  13
HETATM   13  O4  UNL     1      49.802  20.899  13.337  1.00  0.00    -0.360 OA
ATOM     14  H4  UNL     1      50.543  20.381  13.047  1.00  0.00     0.217 HD
ENDBRANCH  12  13
BRANCH  12  15
HETATM   15  C9  UNL     1      51.066  21.448  15.337  1.00  0.00     0.409 C 
HETATM   16  F1  UNL     1      51.093  20.059  15.492  1.00  0.00    -0.207 F 
HETATM   17  F2  UNL     1      52.301  21.793  14.784  1.00  0.00    -0.207 F 
ENDBRANCH  12  15
ENDBRANCH  10  11
ENDBRANCH   8  10
ENDBRANCH   3   8
BRANCH   4  18
HETATM   18  N1  UNL     1      48.211  26.206  17.240  1.00  0.00    -0.072 N 
ATOM     19  H13 UNL     1      47.422  25.700  17.641  1.00  0.00     0.274 HD
ATOM     20  H12 UNL     1      48.935  25.525  17.469  1.00  0.00     0.274 HD
ATOM     21  H11 UNL     1      48.364  27.114  17.678  1.00  0.00     0.274 HD
ENDBRANCH   4  18
BRANCH   1  22
HETATM   22  O1  UNL     1      48.773  27.853  12.148  1.00  0.00    -0.344 OA
BRANCH  22  23
HETATM   23  C2  UNL     1      48.480  29.193  12.003  1.00  0.00     0.221 C 
HETATM   24  C1  UNL     1      49.753  29.968  12.275  1.00  0.00     0.051 C 
BRANCH  23  25
HETATM   25  C13 UNL     1      48.078  29.534  10.610  1.00  0.00     0.203 C 
HETATM   26  O5  UNL     1      46.880  29.496  10.219  1.00  0.00    -0.646 OA
HETATM   27  O6  UNL     1      49.107  29.905   9.741  1.00  0.00    -0.646 OA
ENDBRANCH  23  25
ENDBRANCH  22  23
ENDBRANCH   1  22
TORSDOF 9
ENDMDL
MODEL 3
REMARK VINA RESULT: -7.535512482      4.190      7.300
REMARK  9 active torsions:
REMARK  status: ('A' for Active; 'I' for Inactive)
REMARK    1  A    between atoms: C2_2  and  O1_3 
REMARK    2  A    between atoms: C2_2  and  C13_25 
REMARK    3  A    between atoms: O1_3  and  C3_4 
REMARK    4  A    between atoms: C4_6  and  C5_7 
REMARK    5  A    between atoms: C5_7  and  C6_9 
REMARK    6  A    between atoms: C6_9  and  C7_10 
REMARK    7  A    between atoms: C8_11  and  O4_12 
REMARK    8  A    between atoms: C8_11  and  C9_14 
REMARK    9  A    between atoms: C10_17  and  N1_18 
ROOT
HETATM    1  C3  UNL     1      49.162  26.677  14.682  1.00  0.00     0.276 C 
HETATM    2  O2  UNL     1      48.768  26.924  13.366  1.00  0.00    -0.345 OA
HETATM    3  C4  UNL     1      48.061  28.060  13.181  1.00  0.00     0.224 C 
HETATM    4  C10 UNL     1      47.553  28.709  14.444  1.00  0.00     0.221 C 
HETATM    5  C11 UNL     1      46.985  27.612  15.318  1.00  0.00     0.056 C 
HETATM    6  C12 UNL     1      47.904  26.457  15.494  1.00  0.00     0.116 C 
HETATM    7  S1  UNL     1      48.236  26.266  17.253  1.00  0.00    -0.087 SA
ENDROOT
BRANCH   3   8
HETATM    8  C5  UNL     1      48.823  29.019  12.333  1.00  0.00     0.161 C 
HETATM    9  O3  UNL     1      49.606  29.767  12.884  1.00  0.00    -0.295 OA
BRANCH   8  10
HETATM   10  C6  UNL     1      48.667  29.095  10.865  1.00  0.00     0.111 C 
BRANCH  10  11
HETATM   11  C7  UNL     1      47.226  28.897  10.539  1.00  0.00     0.018 C 
HETATM   12  C8  UNL     1      46.522  29.633   9.721  1.00  0.00     0.104 C 
BRANCH  12  13
HETATM   13  O4  UNL     1      45.175  29.315   9.521  1.00  0.00    -0.360 OA
ATOM     14  H4  UNL     1      44.514  29.953   9.763  1.00  0.00     0.217 HD
ENDBRANCH  12  13
BRANCH  12  15
HETATM   15  C9  UNL     1      47.027  30.789   8.974  1.00  0.00     0.409 C 
HETATM   16  F1  UNL     1      47.104  30.419   7.628  1.00  0.00    -0.207 F 
HETATM   17  F2  UNL     1      46.124  31.852   9.026  1.00  0.00    -0.207 F 
ENDBRANCH  12  15
ENDBRANCH  10  11
ENDBRANCH   8  10
ENDBRANCH   3   8
BRANCH   4  18
HETATM   18  N1  UNL     1      46.434  29.567  14.074  1.00  0.00    -0.072 N 
ATOM     19  H13 UNL     1      45.654  29.510  14.728  1.00  0.00     0.274 HD
ATOM     20  H12 UNL     1      46.636  30.560  14.194  1.00  0.00     0.274 HD
ATOM     21  H11 UNL     1      46.170  29.327  13.118  1.00  0.00     0.274 HD
ENDBRANCH   4  18
BRANCH   1  22
HETATM   22  O1  UNL     1      49.945  25.523  14.609  1.00  0.00    -0.344 OA
BRANCH  22  23
HETATM   23  C2  UNL     1      51.300  25.781  14.564  1.00  0.00     0.221 C 
HETATM   24  C1  UNL     1      51.558  27.006  15.417  1.00  0.00     0.051 C 
BRANCH  23  25
HETATM   25  C13 UNL     1      52.102  24.680  15.168  1.00  0.00     0.203 C 
HETATM   26  O5  UNL     1      51.694  23.488  15.214  1.00  0.00    -0.646 OA
HETATM   27  O6  UNL     1      53.348  25.035  15.690  1.00  0.00    -0.646 OA
ENDBRANCH  23  25
ENDBRANCH  22  23
ENDBRANCH   1  22
TORSDOF 9
ENDMDL
MODEL 4
REMARK VINA RESULT: -7.398933077      4.405      7.391
REMARK  9 active torsions:
REMARK  status: ('A' for Active; 'I' for Inactive)
REMARK    1  A    between atoms: C2_2  and  O1_3 
REMARK    2  A    between atoms: C2_2  and  C13_25 
REMARK    3  A    between atoms: O1_3  and  C3_4 
REMARK    4  A    between atoms: C4_6  and  C5_7 
REMARK    5  A    between atoms: C5_7  and  C6_9 
REMARK    6  A    between atoms: C6_9  and  C7_10 
REMARK    7  A    between atoms: C8_11  and  O4_12 
REMARK    8  A    between atoms: C8_11  and  C9_14 
REMARK    9  A    between atoms: C10_17  and  N1_18 
ROOT
HETATM    1  C3  UNL     1      52.224  21.470  14.149  1.00  0.00     0.276 C 
HETATM    2  O2  UNL     1      51.860  22.718  13.640  1.00  0.00    -0.345 OA
HETATM    3  C4  UNL     1      51.098  23.473  14.462  1.00  0.00     0.224 C 
HETATM    4  C10 UNL     1      50.512  22.741  15.643  1.00  0.00     0.221 C 
HETATM    5  C11 UNL     1      49.977  21.420  15.135  1.00  0.00     0.056 C 
HETATM    6  C12 UNL     1      50.953  20.662  14.307  1.00  0.00     0.116 C 
HETATM    7  S1  UNL     1      51.236  19.067  15.091  1.00  0.00    -0.087 SA
ENDROOT
BRANCH   3   8
HETATM    8  C5  UNL     1      51.834  24.700  14.878  1.00  0.00     0.161 C 
HETATM    9  O3  UNL     1      52.819  24.561  15.576  1.00  0.00    -0.295 OA
BRANCH   8  10
HETATM   10  C6  UNL     1      51.418  26.061  14.481  1.00  0.00     0.111 C 
BRANCH  10  11
HETATM   11  C7  UNL     1      50.180  26.408  15.235  1.00  0.00     0.018 C 
HETATM   12  C8  UNL     1      49.468  27.491  15.074  1.00  0.00     0.104 C 
BRANCH  12  13
HETATM   13  O4  UNL     1      48.327  27.670  15.862  1.00  0.00    -0.360 OA
ATOM     14  H4  UNL     1      47.805  26.910  16.090  1.00  0.00     0.217 HD
ENDBRANCH  12  13
BRANCH  12  15
HETATM   15  C9  UNL     1      49.762  28.563  14.117  1.00  0.00     0.409 C 
HETATM   16  F1  UNL     1      48.640  29.395  14.059  1.00  0.00    -0.207 F 
HETATM   17  F2  UNL     1      50.809  29.366  14.571  1.00  0.00    -0.207 F 
ENDBRANCH  12  15
ENDBRANCH  10  11
ENDBRANCH   8  10
ENDBRANCH   3   8
BRANCH   4  18
HETATM   18  N1  UNL     1      49.361  23.507  16.103  1.00  0.00    -0.072 N 
ATOM     19  H13 UNL     1      49.589  24.477  16.321  1.00  0.00     0.274 HD
ATOM     20  H12 UNL     1      48.685  23.694  15.362  1.00  0.00     0.274 HD
ATOM     21  H11 UNL     1      48.957  23.006  16.894  1.00  0.00     0.274 HD
ENDBRANCH   4  18
BRANCH   1  22
HETATM   22  O1  UNL     1      53.071  20.924  13.183  1.00  0.00    -0.344 OA
BRANCH  22  23
HETATM   23  C2  UNL     1      52.676  21.196  11.889  1.00  0.00     0.221 C 
HETATM   24  C1  UNL     1      53.931  21.372  11.059  1.00  0.00     0.051 C 
BRANCH  23  25
HETATM   25  C13 UNL     1      51.933  20.058  11.277  1.00  0.00     0.203 C 
HETATM   26  O5  UNL     1      51.928  18.902  11.779  1.00  0.00    -0.646 OA
HETATM   27  O6  UNL     1      51.231  20.336  10.102  1.00  0.00    -0.646 OA
ENDBRANCH  23  25
ENDBRANCH  22  23
ENDBRANCH   1  22
TORSDOF 9
ENDMDL
MODEL 5
REMARK VINA RESULT: -7.203523208      1.041      1.326
REMARK  9 active torsions:
REMARK  status: ('A' for Active; 'I' for Inactive)
REMARK    1  A    between atoms: C2_2  and  O1_3 
REMARK    2  A    between atoms: C2_2  and  C13_25 
REMARK    3  A    between atoms: O1_3  and  C3_4 
REMARK    4  A    between atoms: C4_6  and  C5_7 
REMARK    5  A    between atoms: C5_7  and  C6_9 
REMARK    6  A    between atoms: C6_9  and  C7_10 
REMARK    7  A    between atoms: C8_11  and  O4_12 
REMARK    8  A    between atoms: C8_11  and  C9_14 
REMARK    9  A    between atoms: C10_17  and  N1_18 
ROOT
HETATM    1  C3  UNL     1      48.520  27.541  13.723  1.00  0.00     0.276 C 
HETATM    2  O2  UNL     1      49.653  26.895  14.220  1.00  0.00    -0.345 OA
HETATM    3  C4  UNL     1      49.432  26.074  15.269  1.00  0.00     0.224 C 
HETATM    4  C10 UNL     1      48.081  26.219  15.923  1.00  0.00     0.221 C 
HETATM    5  C11 UNL     1      47.806  27.701  16.065  1.00  0.00     0.056 C 
HETATM    6  C12 UNL     1      48.019  28.468  14.809  1.00  0.00     0.116 C 
HETATM    7  S1  UNL     1      46.469  29.274  14.375  1.00  0.00    -0.087 SA
ENDROOT
BRANCH   3   8
HETATM    8  C5  UNL     1      49.719  24.659  14.897  1.00  0.00     0.161 C 
HETATM    9  O3  UNL     1      48.774  23.912  14.738  1.00  0.00    -0.295 OA
BRANCH   8  10
HETATM   10  C6  UNL     1      51.089  24.137  14.715  1.00  0.00     0.111 C 
BRANCH  10  11
HETATM   11  C7  UNL     1      51.166  22.796  15.363  1.00  0.00     0.018 C 
HETATM   12  C8  UNL     1      51.439  21.671  14.758  1.00  0.00     0.104 C 
BRANCH  12  13
HETATM   13  O4  UNL     1      51.474  20.494  15.510  1.00  0.00    -0.360 OA
ATOM     14  H4  UNL     1      52.099  20.424  16.221  1.00  0.00     0.217 HD
ENDBRANCH  12  13
BRANCH  12  15
HETATM   15  C9  UNL     1      51.720  21.527  13.326  1.00  0.00     0.409 C 
HETATM   16  F1  UNL     1      52.865  20.735  13.199  1.00  0.00    -0.207 F 
HETATM   17  F2  UNL     1      50.698  20.826  12.683  1.00  0.00    -0.207 F 
ENDBRANCH  12  15
ENDBRANCH  10  11
ENDBRANCH   8  10
ENDBRANCH   3   8
BRANCH   4  18
HETATM   18  N1  UNL     1      48.190  25.684  17.274  1.00  0.00    -0.072 N 
ATOM     19  H13 UNL     1      47.557  24.904  17.446  1.00  0.00     0.274 HD
ATOM     20  H12 UNL     1      49.064  25.183  17.434  1.00  0.00     0.274 HD
ATOM     21  H11 UNL     1      48.051  26.460  17.921  1.00  0.00     0.274 HD
ENDBRANCH   4  18
BRANCH   1  22
HETATM   22  O1  UNL     1      48.971  28.244  12.604  1.00  0.00    -0.344 OA
BRANCH  22  23
HETATM   23  C2  UNL     1      48.298  27.920  11.444  1.00  0.00     0.221 C 
HETATM   24  C1  UNL     1      46.816  28.061  11.724  1.00  0.00     0.051 C 
BRANCH  23  25
HETATM   25  C13 UNL     1      48.601  28.868  10.335  1.00  0.00     0.203 C 
HETATM   26  O5  UNL     1      48.433  28.571   9.122  1.00  0.00    -0.646 OA
HETATM   27  O6  UNL     1      49.087  30.124  10.708  1.00  0.00    -0.646 OA
ENDBRANCH  23  25
ENDBRANCH  22  23
ENDBRANCH   1  22
TORSDOF 9
ENDMDL
