MODEL 1
REMARK VINA RESULT: -9.358152955      0.000      0.000
REMARK  9 active torsions:
REMARK  status: ('A' for Active; 'I' for Inactive)
REMARK    1  A    between atoms: C2_2  and  N1_3 
REMARK    2  A    between atoms: C4_7  and  N3_8 
REMARK    3  A    between atoms: C5_13  and  S1_14 
REMARK    4  A    between atoms: S1_14  and  C6_15 
REMARK    5  A    between atoms: C6_15  and  C7_16 
REMARK       I    between atoms: C7_16  and  N5_18 
REMARK    6  A    between atoms: N5_18  and  C8_20 
REMARK    7  A    between atoms: C8_20  and  C9_21 
REMARK    8  A    between atoms: C9_21  and  O2_22 
REMARK    9  A    between atoms: C9_21  and  C10_24 
ROOT
HETATM    1  N1  UNL     1      51.192  21.906  14.701  1.00  0.00    -0.279 N 
HETATM    2  N2  UNL     1      52.166  22.785  14.799  1.00  0.00    -0.292 N 
ATOM      3  H2  UNL     1      53.157  22.546  14.765  1.00  0.00     0.187 HD
HETATM    4  C3  UNL     1      51.702  24.028  14.949  1.00  0.00     0.122 A 
HETATM    5  C4  UNL     1      52.246  25.286  15.082  1.00  0.00     0.132 A 
HETATM    6  N4  UNL     1      51.453  26.368  15.206  1.00  0.00    -0.321 N 
ATOM      7  H4  UNL     1      51.882  27.289  15.304  1.00  0.00     0.169 HD
HETATM    8  C5  UNL     1      50.121  26.272  15.204  1.00  0.00     0.146 A 
HETATM    9  N6  UNL     1      49.559  25.061  15.076  1.00  0.00    -0.332 N 
ATOM     10  H6  UNL     1      48.542  24.976  15.075  1.00  0.00     0.168 HD
HETATM   11  C11 UNL     1      50.328  23.941  14.949  1.00  0.00     0.106 A 
HETATM   12  C12 UNL     1      50.040  22.609  14.793  1.00  0.00     0.149 A 
HETATM   13 CL1  UNL     1      48.442  21.904  14.724  1.00  0.00    -0.060 Cl
ENDROOT
BRANCH   8  14
HETATM   14  S1  UNL     1      49.075  27.731  15.320  1.00  0.00    -0.085 SA
BRANCH  14  15
HETATM   15  C6  UNL     1      49.346  28.836  13.928  1.00  0.00     0.185 C 
BRANCH  15  16
HETATM   16  C7  UNL     1      48.321  28.561  12.893  1.00  0.00     0.227 C 
HETATM   17  O1  UNL     1      47.412  27.732  13.105  1.00  0.00    -0.273 OA
HETATM   18  N5  UNL     1      48.386  29.245  11.668  1.00  0.00    -0.358 N 
ATOM     19  H5  UNL     1      49.148  29.909  11.532  1.00  0.00     0.162 HD
BRANCH  18  20
HETATM   20  C8  UNL     1      47.449  29.069  10.592  1.00  0.00     0.159 C 
BRANCH  20  21
HETATM   21  C9  UNL     1      47.782  29.880   9.353  1.00  0.00     0.200 C 
BRANCH  21  22
HETATM   22  O2  UNL     1      48.343  29.023   8.432  1.00  0.00    -0.388 OA
ATOM     23  H2  UNL     1      49.065  28.577   8.857  1.00  0.00     0.210 HD
ENDBRANCH  21  22
BRANCH  21  24
HETATM   24  C10 UNL     1      46.496  30.457   8.817  1.00  0.00     0.383 C 
HETATM   25  F1  UNL     1      45.408  29.991   9.537  1.00  0.00    -0.212 F 
HETATM   26  F2  UNL     1      46.466  31.826   8.843  1.00  0.00    -0.212 F 
ENDBRANCH  21  24
ENDBRANCH  20  21
ENDBRANCH  18  20
ENDBRANCH  15  16
ENDBRANCH  14  15
ENDBRANCH   8  14
BRANCH   5  27
HETATM   27  N3  UNL     1      53.524  25.464  15.097  1.00  0.00    -0.383 N 
ATOM     28  H32 UNL     1      54.049  25.253  14.248  1.00  0.00     0.157 HD
ATOM     29  H31 UNL     1      54.001  25.809  15.930  1.00  0.00     0.157 HD
ENDBRANCH   5  27
BRANCH   1  30
HETATM   30  C2  UNL     1      51.308  20.458  14.511  1.00  0.00     0.146 C 
HETATM   31  C1  UNL     1      51.067  20.100  13.066  1.00  0.00     0.028 C 
ENDBRANCH   1  30
TORSDOF 9
ENDMDL
MODEL 2
REMARK VINA RESULT: -8.659510953      1.191      1.262
REMARK  9 active torsions:
REMARK  status: ('A' for Active; 'I' for Inactive)
REMARK    1  A    between atoms: C2_2  and  N1_3 
REMARK    2  A    between atoms: C4_7  and  N3_8 
REMARK    3  A    between atoms: C5_13  and  S1_14 
REMARK    4  A    between atoms: S1_14  and  C6_15 
REMARK    5  A    between atoms: C6_15  and  C7_16 
REMARK       I    between atoms: C7_16  and  N5_18 
REMARK    6  A    between atoms: N5_18  and  C8_20 
REMARK    7  A    between atoms: C8_20  and  C9_21 
REMARK    8  A    between atoms: C9_21  and  O2_22 
REMARK    9  A    between atoms: C9_21  and  C10_24 
ROOT
HETATM    1  N1  UNL     1      51.147  21.858  14.612  1.00  0.00    -0.279 N 
HETATM    2  N2  UNL     1      52.153  22.704  14.634  1.00  0.00    -0.292 N 
ATOM      3  H2  UNL     1      53.129  22.435  14.512  1.00  0.00     0.187 HD
HETATM    4  C3  UNL     1      51.743  23.959  14.834  1.00  0.00     0.122 A 
HETATM    5  C4  UNL     1      52.337  25.199  14.931  1.00  0.00     0.132 A 
HETATM    6  N4  UNL     1      51.592  26.304  15.132  1.00  0.00    -0.321 N 
ATOM      7  H4  UNL     1      52.057  27.209  15.201  1.00  0.00     0.169 HD
HETATM    8  C5  UNL     1      50.262  26.249  15.244  1.00  0.00     0.146 A 
HETATM    9  N6  UNL     1      49.653  25.058  15.155  1.00  0.00    -0.332 N 
ATOM     10  H6  UNL     1      48.637  25.004  15.240  1.00  0.00     0.168 HD
HETATM   11  C11 UNL     1      50.373  23.916  14.951  1.00  0.00     0.106 A 
HETATM   12  C12 UNL     1      50.029  22.595  14.809  1.00  0.00     0.149 A 
HETATM   13 CL1  UNL     1      48.410  21.941  14.872  1.00  0.00    -0.060 Cl
ENDROOT
BRANCH   8  14
HETATM   14  S1  UNL     1      49.277  27.738  15.462  1.00  0.00    -0.085 SA
BRANCH  14  15
HETATM   15  C6  UNL     1      49.205  28.698  13.944  1.00  0.00     0.185 C 
BRANCH  15  16
HETATM   16  C7  UNL     1      47.895  28.462  13.292  1.00  0.00     0.227 C 
HETATM   17  O1  UNL     1      47.037  27.738  13.836  1.00  0.00    -0.273 OA
HETATM   18  N5  UNL     1      47.631  29.065  12.050  1.00  0.00    -0.358 N 
ATOM     19  H5  UNL     1      48.361  29.644  11.637  1.00  0.00     0.162 HD
BRANCH  18  20
HETATM   20  C8  UNL     1      46.399  28.917  11.325  1.00  0.00     0.159 C 
BRANCH  20  21
HETATM   21  C9  UNL     1      46.507  29.284   9.856  1.00  0.00     0.200 C 
BRANCH  21  22
HETATM   22  O2  UNL     1      45.815  30.460   9.668  1.00  0.00    -0.388 OA
ATOM     23  H2  UNL     1      45.022  30.253   9.189  1.00  0.00     0.210 HD
ENDBRANCH  21  22
BRANCH  21  24
HETATM   24  C10 UNL     1      47.968  29.478   9.533  1.00  0.00     0.383 C 
HETATM   25  F1  UNL     1      48.577  28.267   9.251  1.00  0.00    -0.212 F 
HETATM   26  F2  UNL     1      48.178  30.316   8.471  1.00  0.00    -0.212 F 
ENDBRANCH  21  24
ENDBRANCH  20  21
ENDBRANCH  18  20
ENDBRANCH  15  16
ENDBRANCH  14  15
ENDBRANCH   8  14
BRANCH   5  27
HETATM   27  N3  UNL     1      53.616  25.337  14.837  1.00  0.00    -0.383 N 
ATOM     28  H32 UNL     1      54.197  24.501  14.909  1.00  0.00     0.157 HD
ATOM     29  H31 UNL     1      54.040  26.253  14.692  1.00  0.00     0.157 HD
ENDBRANCH   5  27
BRANCH   1  30
HETATM   30  C2  UNL     1      51.199  20.409  14.401  1.00  0.00     0.146 C 
HETATM   31  C1  UNL     1      50.851  20.077  12.971  1.00  0.00     0.028 C 
ENDBRANCH   1  30
TORSDOF 9
ENDMDL
MODEL 3
REMARK VINA RESULT: -8.646772182      1.065      1.136
REMARK  9 active torsions:
REMARK  status: ('A' for Active; 'I' for Inactive)
REMARK    1  A    between atoms: C2_2  and  N1_3 
REMARK    2  A    between atoms: C4_7  and  N3_8 
REMARK    3  A    between atoms: C5_13  and  S1_14 
REMARK    4  A    between atoms: S1_14  and  C6_15 
REMARK    5  A    between atoms: C6_15  and  C7_16 
REMARK       I    between atoms: C7_16  and  N5_18 
REMARK    6  A    between atoms: N5_18  and  C8_20 
REMARK    7  A    between atoms: C8_20  and  C9_21 
REMARK    8  A    between atoms: C9_21  and  O2_22 
REMARK    9  A    between atoms: C9_21  and  C10_24 
ROOT
HETATM    1  N1  UNL     1      51.117  21.962  14.768  1.00  0.00    -0.279 N 
HETATM    2  N2  UNL     1      52.132  22.793  14.860  1.00  0.00    -0.292 N 
ATOM      3  H2  UNL     1      53.110  22.503  14.852  1.00  0.00     0.187 HD
HETATM    4  C3  UNL     1      51.729  24.062  14.965  1.00  0.00     0.122 A 
HETATM    5  C4  UNL     1      52.335  25.295  15.072  1.00  0.00     0.132 A 
HETATM    6  N4  UNL     1      51.595  26.419  15.148  1.00  0.00    -0.321 N 
ATOM      7  H4  UNL     1      52.069  27.319  15.228  1.00  0.00     0.169 HD
HETATM    8  C5  UNL     1      50.260  26.390  15.123  1.00  0.00     0.146 A 
HETATM    9  N6  UNL     1      49.640  25.206  15.020  1.00  0.00    -0.332 N 
ATOM     10  H6  UNL     1      48.620  25.172  15.002  1.00  0.00     0.168 HD
HETATM   11  C11 UNL     1      50.353  24.045  14.940  1.00  0.00     0.106 A 
HETATM   12  C12 UNL     1      50.000  22.725  14.818  1.00  0.00     0.149 A 
HETATM   13 CL1  UNL     1      48.369  22.100  14.738  1.00  0.00    -0.060 Cl
ENDROOT
BRANCH   8  14
HETATM   14  S1  UNL     1      49.289  27.902  15.177  1.00  0.00    -0.085 SA
BRANCH  14  15
HETATM   15  C6  UNL     1      47.984  27.880  13.940  1.00  0.00     0.185 C 
BRANCH  15  16
HETATM   16  C7  UNL     1      48.382  28.756  12.811  1.00  0.00     0.227 C 
HETATM   17  O1  UNL     1      49.297  29.592  12.949  1.00  0.00    -0.273 OA
HETATM   18  N5  UNL     1      47.712  28.633  11.582  1.00  0.00    -0.358 N 
ATOM     19  H5  UNL     1      46.965  27.942  11.513  1.00  0.00     0.162 HD
BRANCH  18  20
HETATM   20  C8  UNL     1      48.010  29.418  10.416  1.00  0.00     0.159 C 
BRANCH  20  21
HETATM   21  C9  UNL     1      46.836  29.572   9.467  1.00  0.00     0.200 C 
BRANCH  21  22
HETATM   22  O2  UNL     1      45.685  29.568  10.223  1.00  0.00    -0.388 OA
ATOM     23  H2  UNL     1      45.932  29.743  11.123  1.00  0.00     0.210 HD
ENDBRANCH  21  22
BRANCH  21  24
HETATM   24  C10 UNL     1      46.988  30.892   8.752  1.00  0.00     0.383 C 
HETATM   25  F1  UNL     1      46.822  30.737   7.386  1.00  0.00    -0.212 F 
HETATM   26  F2  UNL     1      46.100  31.842   9.181  1.00  0.00    -0.212 F 
ENDBRANCH  21  24
ENDBRANCH  20  21
ENDBRANCH  18  20
ENDBRANCH  15  16
ENDBRANCH  14  15
ENDBRANCH   8  14
BRANCH   5  27
HETATM   27  N3  UNL     1      53.619  25.408  15.106  1.00  0.00    -0.383 N 
ATOM     28  H32 UNL     1      54.103  25.660  14.244  1.00  0.00     0.157 HD
ATOM     29  H31 UNL     1      54.141  25.255  15.969  1.00  0.00     0.157 HD
ENDBRANCH   5  27
BRANCH   1  30
HETATM   30  C2  UNL     1      51.161  20.506  14.623  1.00  0.00     0.146 C 
HETATM   31  C1  UNL     1      51.001  20.120  13.174  1.00  0.00     0.028 C 
ENDBRANCH   1  30
TORSDOF 9
ENDMDL
MODEL 4
REMARK VINA RESULT: -8.591594452      1.018      1.109
REMARK  9 active torsions:
REMARK  status: ('A' for Active; 'I' for Inactive)
REMARK    1  A    between atoms: C2_2  and  N1_3 
REMARK    2  A    between atoms: C4_7  and  N3_8 
REMARK    3  A    between atoms: C5_13  and  S1_14 
REMARK    4  A    between atoms: S1_14  and  C6_15 
REMARK    5  A    between atoms: C6_15  and  C7_16 
REMARK       I    between atoms: C7_16  and  N5_18 
REMARK    6  A    between atoms: N5_18  and  C8_20 
REMARK    7  A    between atoms: C8_20  and  C9_21 
REMARK    8  A    between atoms: C9_21  and  O2_22 
REMARK    9  A    between atoms: C9_21  and  C10_24 
ROOT
HETATM    1  N1  UNL     1      51.150  21.930  14.149  1.00  0.00    -0.279 N 
HETATM    2  N2  UNL     1      52.100  22.837  14.212  1.00  0.00    -0.292 N 
ATOM      3  H2  UNL     1      53.078  22.657  13.986  1.00  0.00     0.187 HD
HETATM    4  C3  UNL     1      51.631  24.023  14.607  1.00  0.00     0.122 A 
HETATM    5  C4  UNL     1      52.152  25.279  14.826  1.00  0.00     0.132 A 
HETATM    6  N4  UNL     1      51.359  26.293  15.225  1.00  0.00    -0.321 N 
ATOM      7  H4  UNL     1      51.771  27.213  15.381  1.00  0.00     0.169 HD
HETATM    8  C5  UNL     1      50.048  26.128  15.424  1.00  0.00     0.146 A 
HETATM    9  N6  UNL     1      49.509  24.918  15.220  1.00  0.00    -0.332 N 
ATOM     10  H6  UNL     1      48.509  24.780  15.370  1.00  0.00     0.168 HD
HETATM   11  C11 UNL     1      50.280  23.866  14.815  1.00  0.00     0.106 A 
HETATM   12  C12 UNL     1      50.009  22.554  14.523  1.00  0.00     0.149 A 
HETATM   13 CL1  UNL     1      48.443  21.781  14.613  1.00  0.00    -0.060 Cl
ENDROOT
BRANCH   8  14
HETATM   14  S1  UNL     1      48.994  27.502  15.909  1.00  0.00    -0.085 SA
BRANCH  14  15
HETATM   15  C6  UNL     1      47.675  27.761  14.715  1.00  0.00     0.185 C 
BRANCH  15  16
HETATM   16  C7  UNL     1      48.274  28.178  13.424  1.00  0.00     0.227 C 
HETATM   17  O1  UNL     1      49.304  28.882  13.401  1.00  0.00    -0.273 OA
HETATM   18  N5  UNL     1      47.666  27.771  12.225  1.00  0.00    -0.358 N 
ATOM     19  H5  UNL     1      46.822  27.202  12.288  1.00  0.00     0.162 HD
BRANCH  18  20
HETATM   20  C8  UNL     1      48.155  28.105  10.916  1.00  0.00     0.159 C 
BRANCH  20  21
HETATM   21  C9  UNL     1      47.968  29.566  10.548  1.00  0.00     0.200 C 
BRANCH  21  22
HETATM   22  O2  UNL     1      49.150  30.013  10.000  1.00  0.00    -0.388 OA
ATOM     23  H2  UNL     1      49.817  29.961  10.675  1.00  0.00     0.210 HD
ENDBRANCH  21  22
BRANCH  21  24
HETATM   24  C10 UNL     1      46.856  29.650   9.532  1.00  0.00     0.383 C 
HETATM   25  F1  UNL     1      45.639  29.316  10.103  1.00  0.00    -0.212 F 
HETATM   26  F2  UNL     1      46.733  30.891   8.968  1.00  0.00    -0.212 F 
ENDBRANCH  21  24
ENDBRANCH  20  21
ENDBRANCH  18  20
ENDBRANCH  15  16
ENDBRANCH  14  15
ENDBRANCH   8  14
BRANCH   5  27
HETATM   27  N3  UNL     1      53.409  25.520  14.660  1.00  0.00    -0.383 N 
ATOM     28  H32 UNL     1      53.827  25.294  13.757  1.00  0.00     0.157 HD
ATOM     29  H31 UNL     1      53.972  25.929  15.405  1.00  0.00     0.157 HD
ENDBRANCH   5  27
BRANCH   1  30
HETATM   30  C2  UNL     1      51.275  20.528  13.743  1.00  0.00     0.146 C 
HETATM   31  C1  UNL     1      51.486  19.651  14.952  1.00  0.00     0.028 C 
ENDBRANCH   1  30
TORSDOF 9
ENDMDL
MODEL 5
REMARK VINA RESULT: -8.064700840      1.262      1.408
REMARK  9 active torsions:
REMARK  status: ('A' for Active; 'I' for Inactive)
REMARK    1  A    between atoms: C2_2  and  N1_3 
REMARK    2  A    between atoms: C4_7  and  N3_8 
REMARK    3  A    between atoms: C5_13  and  S1_14 
REMARK    4  A    between atoms: S1_14  and  C6_15 
REMARK    5  A    between atoms: C6_15  and  C7_16 
REMARK       I    between atoms: C7_16  and  N5_18 
REMARK    6  A    between atoms: N5_18  and  C8_20 
REMARK    7  A    between atoms: C8_20  and  C9_21 
REMARK    8  A    between atoms: C9_21  and  O2_22 
REMARK    9  A    between atoms: C9_21  and  C10_24 
ROOT
HETATM    1  N1  UNL     1      51.404  21.693  14.146  1.00  0.00    -0.279 N 
HETATM    2  N2  UNL     1      52.247  22.675  14.378  1.00  0.00    -0.292 N 
ATOM      3  H2  UNL     1      53.260  22.586  14.308  1.00  0.00     0.187 HD
HETATM    4  C3  UNL     1      51.617  23.802  14.718  1.00  0.00     0.122 A 
HETATM    5  C4  UNL     1      51.983  25.090  15.044  1.00  0.00     0.132 A 
HETATM    6  N4  UNL     1      51.049  26.017  15.333  1.00  0.00    -0.321 N 
ATOM      7  H4  UNL     1      51.348  26.963  15.572  1.00  0.00     0.169 HD
HETATM    8  C5  UNL     1      49.744  25.735  15.316  1.00  0.00     0.146 A 
HETATM    9  N6  UNL     1      49.354  24.491  15.003  1.00  0.00    -0.332 N 
ATOM     10  H6  UNL     1      48.359  24.264  14.988  1.00  0.00     0.168 HD
HETATM   11  C11 UNL     1      50.269  23.524  14.704  1.00  0.00     0.106 A 
HETATM   12  C12 UNL     1      50.166  22.204  14.345  1.00  0.00     0.149 A 
HETATM   13 CL1  UNL     1      48.681  21.299  14.167  1.00  0.00    -0.060 Cl
ENDROOT
BRANCH   8  14
HETATM   14  S1  UNL     1      48.508  26.996  15.655  1.00  0.00    -0.085 SA
BRANCH  14  15
HETATM   15  C6  UNL     1      48.935  28.554  14.865  1.00  0.00     0.185 C 
BRANCH  15  16
HETATM   16  C7  UNL     1      48.144  28.691  13.619  1.00  0.00     0.227 C 
HETATM   17  O1  UNL     1      47.045  29.281  13.627  1.00  0.00    -0.273 OA
HETATM   18  N5  UNL     1      48.647  28.144  12.427  1.00  0.00    -0.358 N 
ATOM     19  H5  UNL     1      49.546  27.664  12.464  1.00  0.00     0.162 HD
BRANCH  18  20
HETATM   20  C8  UNL     1      47.977  28.217  11.158  1.00  0.00     0.159 C 
BRANCH  20  21
HETATM   21  C9  UNL     1      48.026  29.594  10.519  1.00  0.00     0.200 C 
BRANCH  21  22
HETATM   22  O2  UNL     1      49.304  30.083  10.681  1.00  0.00    -0.388 OA
ATOM     23  H2  UNL     1      49.279  31.015  10.501  1.00  0.00     0.210 HD
ENDBRANCH  21  22
BRANCH  21  24
HETATM   24  C10 UNL     1      47.707  29.436   9.053  1.00  0.00     0.383 C 
HETATM   25  F1  UNL     1      47.805  30.650   8.393  1.00  0.00    -0.212 F 
HETATM   26  F2  UNL     1      48.525  28.541   8.417  1.00  0.00    -0.212 F 
ENDBRANCH  21  24
ENDBRANCH  20  21
ENDBRANCH  18  20
ENDBRANCH  15  16
ENDBRANCH  14  15
ENDBRANCH   8  14
BRANCH   5  27
HETATM   27  N3  UNL     1      53.223  25.442  15.086  1.00  0.00    -0.383 N 
ATOM     28  H32 UNL     1      53.438  26.434  15.193  1.00  0.00     0.157 HD
ATOM     29  H31 UNL     1      53.972  24.753  15.019  1.00  0.00     0.157 HD
ENDBRANCH   5  27
BRANCH   1  30
HETATM   30  C2  UNL     1      51.716  20.322  13.735  1.00  0.00     0.146 C 
HETATM   31  C1  UNL     1      51.547  20.172  12.244  1.00  0.00     0.028 C 
ENDBRANCH   1  30
TORSDOF 9
ENDMDL
