MODEL 1
REMARK VINA RESULT: -7.422753607      0.000      0.000
REMARK  10 active torsions:
REMARK  status: ('A' for Active; 'I' for Inactive)
REMARK    1  A    between atoms: C2_2  and  N1_3 
REMARK    2  A    between atoms: C3_4  and  N2_5 
REMARK    3  A    between atoms: N2_5  and  C4_7 
REMARK    4  A    between atoms: N4_15  and  C8_16 
REMARK    5  A    between atoms: C10_21  and  C11_22 
REMARK    6  A    between atoms: C11_22  and  N6_23 
REMARK    7  A    between atoms: C11_22  and  C12_27 
REMARK    8  A    between atoms: C12_27  and  C13_28 
REMARK    9  A    between atoms: C13_28  and  C14_29 
REMARK   10  A    between atoms: C14_29  and  N7_30 
ROOT
HETATM    1  N1  UNL     1      51.029  24.145  14.900  1.00  0.00    -0.320 N 
HETATM    2  C3  UNL     1      50.911  22.791  14.947  1.00  0.00     0.126 A 
HETATM    3  C9  UNL     1      49.604  22.493  15.340  1.00  0.00     0.138 A 
HETATM    4  N5  UNL     1      49.017  23.658  15.505  1.00  0.00    -0.350 N 
ATOM      5  H5  UNL     1      48.045  23.773  15.794  1.00  0.00     0.166 HD
HETATM    6  C10 UNL     1      49.866  24.692  15.243  1.00  0.00     0.116 A 
ENDROOT
BRANCH   2   7
HETATM    7  N2  UNL     1      51.947  21.877  14.652  1.00  0.00    -0.326 N 
ATOM      8  H2  UNL     1      52.871  22.040  15.053  1.00  0.00     0.169 HD
BRANCH   7   9
HETATM    9  C4  UNL     1      51.758  20.740  13.820  1.00  0.00     0.134 A 
HETATM   10  C5  UNL     1      51.361  19.604  14.359  1.00  0.00     0.074 A 
HETATM   11 CL1  UNL     1      51.089  19.590  16.121  1.00  0.00    -0.083 Cl
HETATM   12  C6  UNL     1      51.119  18.341  13.653  1.00  0.00     0.179 A 
HETATM   13  N3  UNL     1      51.359  18.430  12.236  1.00  0.00    -0.337 N 
HETATM   14  C7  UNL     1      51.786  19.656  11.667  1.00  0.00     0.326 A 
ATOM     15  H3  UNL     1      51.222  17.611  11.642  1.00  0.00     0.164 HD
HETATM   16  O1  UNL     1      51.984  19.683  10.419  1.00  0.00    -0.247 OA
HETATM   17  N4  UNL     1      51.994  20.820  12.425  1.00  0.00    -0.257 N 
BRANCH  17  18
HETATM   18  C8  UNL     1      52.431  22.039  11.773  1.00  0.00     0.359 C 
HETATM   19  F1  UNL     1      53.684  21.812  11.273  1.00  0.00    -0.233 F 
ENDBRANCH  17  18
ENDBRANCH   7   9
ENDBRANCH   2   7
BRANCH   1  20
HETATM   20  C2  UNL     1      52.229  24.839  14.520  1.00  0.00     0.127 C 
HETATM   21  C1  UNL     1      53.166  25.127  15.667  1.00  0.00     0.027 C 
ENDBRANCH   1  20
BRANCH   6  22
HETATM   22  C11 UNL     1      49.447  26.076  15.362  1.00  0.00     0.250 C 
BRANCH  22  23
HETATM   23  N6  UNL     1      48.361  26.343  16.265  1.00  0.00    -0.068 N 
ATOM     24  H63 UNL     1      48.715  26.406  17.219  1.00  0.00     0.275 HD
ATOM     25  H62 UNL     1      48.027  27.296  16.126  1.00  0.00     0.275 HD
ATOM     26  H61 UNL     1      47.573  25.695  16.235  1.00  0.00     0.275 HD
ENDBRANCH  22  23
BRANCH  22  27
HETATM   27  C12 UNL     1      49.150  26.776  14.053  1.00  0.00     0.042 C 
BRANCH  27  28
HETATM   28  C13 UNL     1      48.576  28.154  14.362  1.00  0.00     0.030 C 
BRANCH  28  29
HETATM   29  C14 UNL     1      49.446  29.173  13.619  1.00  0.00     0.230 C 
BRANCH  29  30
HETATM   30  N7  UNL     1      50.750  29.228  14.228  1.00  0.00    -0.079 N 
ATOM     31  H73 UNL     1      50.746  28.861  15.180  1.00  0.00     0.274 HD
ATOM     32  H72 UNL     1      51.397  28.556  13.815  1.00  0.00     0.274 HD
ATOM     33  H71 UNL     1      51.106  30.183  14.185  1.00  0.00     0.274 HD
ENDBRANCH  29  30
ENDBRANCH  28  29
ENDBRANCH  27  28
ENDBRANCH  22  27
ENDBRANCH   6  22
TORSDOF 10
ENDMDL
MODEL 2
REMARK VINA RESULT: -7.116149703      1.935      2.318
REMARK  10 active torsions:
REMARK  status: ('A' for Active; 'I' for Inactive)
REMARK    1  A    between atoms: C2_2  and  N1_3 
REMARK    2  A    between atoms: C3_4  and  N2_5 
REMARK    3  A    between atoms: N2_5  and  C4_7 
REMARK    4  A    between atoms: N4_15  and  C8_16 
REMARK    5  A    between atoms: C10_21  and  C11_22 
REMARK    6  A    between atoms: C11_22  and  N6_23 
REMARK    7  A    between atoms: C11_22  and  C12_27 
REMARK    8  A    between atoms: C12_27  and  C13_28 
REMARK    9  A    between atoms: C13_28  and  C14_29 
REMARK   10  A    between atoms: C14_29  and  N7_30 
ROOT
HETATM    1  N1  UNL     1      51.040  24.099  14.842  1.00  0.00    -0.320 N 
HETATM    2  C3  UNL     1      50.953  22.742  14.794  1.00  0.00     0.126 A 
HETATM    3  C9  UNL     1      49.651  22.388  15.159  1.00  0.00     0.138 A 
HETATM    4  N5  UNL     1      49.038  23.525  15.403  1.00  0.00    -0.350 N 
ATOM      5  H5  UNL     1      48.063  23.599  15.695  1.00  0.00     0.166 HD
HETATM    6  C10 UNL     1      49.865  24.594  15.217  1.00  0.00     0.116 A 
ENDROOT
BRANCH   2   7
HETATM    7  N2  UNL     1      52.010  21.875  14.440  1.00  0.00    -0.326 N 
ATOM      8  H2  UNL     1      52.913  21.992  14.900  1.00  0.00     0.169 HD
BRANCH   7   9
HETATM    9  C4  UNL     1      51.870  20.845  13.469  1.00  0.00     0.134 A 
HETATM   10  C5  UNL     1      52.177  21.096  12.212  1.00  0.00     0.074 A 
HETATM   11 CL1  UNL     1      52.753  22.739  11.827  1.00  0.00    -0.083 Cl
HETATM   12  C6  UNL     1      52.092  20.155  11.089  1.00  0.00     0.179 A 
HETATM   13  N3  UNL     1      51.620  18.851  11.477  1.00  0.00    -0.337 N 
HETATM   14  C7  UNL     1      51.293  18.593  12.831  1.00  0.00     0.326 A 
ATOM     15  H3  UNL     1      51.521  18.115  10.778  1.00  0.00     0.164 HD
HETATM   16  O1  UNL     1      50.882  17.433  13.122  1.00  0.00    -0.247 OA
HETATM   17  N4  UNL     1      51.405  19.559  13.845  1.00  0.00    -0.257 N 
BRANCH  17  18
HETATM   18  C8  UNL     1      51.052  19.221  15.209  1.00  0.00     0.359 C 
HETATM   19  F1  UNL     1      51.666  18.038  15.513  1.00  0.00    -0.233 F 
ENDBRANCH  17  18
ENDBRANCH   7   9
ENDBRANCH   2   7
BRANCH   1  20
HETATM   20  C2  UNL     1      52.225  24.844  14.517  1.00  0.00     0.127 C 
HETATM   21  C1  UNL     1      53.141  25.090  15.691  1.00  0.00     0.027 C 
ENDBRANCH   1  20
BRANCH   6  22
HETATM   22  C11 UNL     1      49.414  25.957  15.432  1.00  0.00     0.250 C 
BRANCH  22  23
HETATM   23  N6  UNL     1      48.311  26.134  16.336  1.00  0.00    -0.068 N 
ATOM     24  H63 UNL     1      48.412  27.019  16.831  1.00  0.00     0.275 HD
ATOM     25  H62 UNL     1      47.459  26.313  15.805  1.00  0.00     0.275 HD
ATOM     26  H61 UNL     1      48.146  25.383  17.007  1.00  0.00     0.275 HD
ENDBRANCH  22  23
BRANCH  22  27
HETATM   27  C12 UNL     1      49.120  26.745  14.174  1.00  0.00     0.042 C 
BRANCH  27  28
HETATM   28  C13 UNL     1      48.654  28.140  14.576  1.00  0.00     0.030 C 
BRANCH  28  29
HETATM   29  C14 UNL     1      49.500  29.137  13.778  1.00  0.00     0.230 C 
BRANCH  29  30
HETATM   30  N7  UNL     1      50.847  29.141  14.288  1.00  0.00    -0.079 N 
ATOM     31  H73 UNL     1      51.540  29.038  13.546  1.00  0.00     0.274 HD
ATOM     32  H72 UNL     1      51.129  30.062  14.624  1.00  0.00     0.274 HD
ATOM     33  H71 UNL     1      50.942  28.423  15.006  1.00  0.00     0.274 HD
ENDBRANCH  29  30
ENDBRANCH  28  29
ENDBRANCH  27  28
ENDBRANCH  22  27
ENDBRANCH   6  22
TORSDOF 10
ENDMDL
MODEL 3
REMARK VINA RESULT: -6.511420065      0.994      1.869
REMARK  10 active torsions:
REMARK  status: ('A' for Active; 'I' for Inactive)
REMARK    1  A    between atoms: C2_2  and  N1_3 
REMARK    2  A    between atoms: C3_4  and  N2_5 
REMARK    3  A    between atoms: N2_5  and  C4_7 
REMARK    4  A    between atoms: N4_15  and  C8_16 
REMARK    5  A    between atoms: C10_21  and  C11_22 
REMARK    6  A    between atoms: C11_22  and  N6_23 
REMARK    7  A    between atoms: C11_22  and  C12_27 
REMARK    8  A    between atoms: C12_27  and  C13_28 
REMARK    9  A    between atoms: C13_28  and  C14_29 
REMARK   10  A    between atoms: C14_29  and  N7_30 
ROOT
HETATM    1  N1  UNL     1      50.815  23.657  15.117  1.00  0.00    -0.320 N 
HETATM    2  C3  UNL     1      52.024  23.209  14.684  1.00  0.00     0.126 A 
HETATM    3  C9  UNL     1      52.722  24.304  14.169  1.00  0.00     0.138 A 
HETATM    4  N5  UNL     1      51.914  25.331  14.315  1.00  0.00    -0.350 N 
ATOM      5  H5  UNL     1      52.142  26.283  14.030  1.00  0.00     0.166 HD
HETATM    6  C10 UNL     1      50.735  24.966  14.894  1.00  0.00     0.116 A 
ENDROOT
BRANCH   2   7
HETATM    7  N2  UNL     1      52.462  21.868  14.752  1.00  0.00    -0.326 N 
ATOM      8  H2  UNL     1      53.135  21.610  15.474  1.00  0.00     0.169 HD
BRANCH   7   9
HETATM    9  C4  UNL     1      52.004  20.861  13.859  1.00  0.00     0.134 A 
HETATM   10  C5  UNL     1      51.394  19.796  14.341  1.00  0.00     0.074 A 
HETATM   11 CL1  UNL     1      51.191  19.708  16.111  1.00  0.00    -0.083 Cl
HETATM   12  C6  UNL     1      50.863  18.669  13.567  1.00  0.00     0.179 A 
HETATM   13  N3  UNL     1      51.064  18.812  12.149  1.00  0.00    -0.337 N 
HETATM   14  C7  UNL     1      51.721  19.960  11.640  1.00  0.00     0.326 A 
ATOM     15  H3  UNL     1      50.734  18.087  11.511  1.00  0.00     0.164 HD
HETATM   16  O1  UNL     1      51.874  20.039  10.388  1.00  0.00    -0.247 OA
HETATM   17  N4  UNL     1      52.200  20.995  12.461  1.00  0.00    -0.257 N 
BRANCH  17  18
HETATM   18  C8  UNL     1      52.863  22.140  11.869  1.00  0.00     0.359 C 
HETATM   19  F1  UNL     1      53.975  21.681  11.217  1.00  0.00    -0.233 F 
ENDBRANCH  17  18
ENDBRANCH   7   9
ENDBRANCH   2   7
BRANCH   1  20
HETATM   20  C2  UNL     1      49.814  22.824  15.726  1.00  0.00     0.127 C 
HETATM   21  C1  UNL     1      48.746  22.345  14.775  1.00  0.00     0.027 C 
ENDBRANCH   1  20
BRANCH   6  22
HETATM   22  C11 UNL     1      49.679  25.928  15.152  1.00  0.00     0.250 C 
BRANCH  22  23
HETATM   23  N6  UNL     1      48.661  26.051  14.145  1.00  0.00    -0.068 N 
ATOM     24  H63 UNL     1      48.985  25.625  13.277  1.00  0.00     0.275 HD
ATOM     25  H62 UNL     1      47.878  25.438  14.373  1.00  0.00     0.275 HD
ATOM     26  H61 UNL     1      48.318  26.993  13.957  1.00  0.00     0.275 HD
ENDBRANCH  22  23
BRANCH  22  27
HETATM   27  C12 UNL     1      50.150  27.320  15.515  1.00  0.00     0.042 C 
BRANCH  27  28
HETATM   28  C13 UNL     1      49.330  28.329  14.719  1.00  0.00     0.030 C 
BRANCH  28  29
HETATM   29  C14 UNL     1      50.328  29.245  14.004  1.00  0.00     0.230 C 
BRANCH  29  30
HETATM   30  N7  UNL     1      49.669  29.919  12.915  1.00  0.00    -0.079 N 
ATOM     31  H73 UNL     1      48.672  29.704  12.876  1.00  0.00     0.274 HD
ATOM     32  H72 UNL     1      49.595  30.924  13.073  1.00  0.00     0.274 HD
ATOM     33  H71 UNL     1      50.145  29.700  12.040  1.00  0.00     0.274 HD
ENDBRANCH  29  30
ENDBRANCH  28  29
ENDBRANCH  27  28
ENDBRANCH  22  27
ENDBRANCH   6  22
TORSDOF 10
ENDMDL
MODEL 4
REMARK VINA RESULT: -6.443001299      3.976      7.621
REMARK  10 active torsions:
REMARK  status: ('A' for Active; 'I' for Inactive)
REMARK    1  A    between atoms: C2_2  and  N1_3 
REMARK    2  A    between atoms: C3_4  and  N2_5 
REMARK    3  A    between atoms: N2_5  and  C4_7 
REMARK    4  A    between atoms: N4_15  and  C8_16 
REMARK    5  A    between atoms: C10_21  and  C11_22 
REMARK    6  A    between atoms: C11_22  and  N6_23 
REMARK    7  A    between atoms: C11_22  and  C12_27 
REMARK    8  A    between atoms: C12_27  and  C13_28 
REMARK    9  A    between atoms: C13_28  and  C14_29 
REMARK   10  A    between atoms: C14_29  and  N7_30 
ROOT
HETATM    1  N1  UNL     1      50.191  24.858  15.127  1.00  0.00    -0.320 N 
HETATM    2  C3  UNL     1      49.378  25.652  15.875  1.00  0.00     0.126 A 
HETATM    3  C9  UNL     1      48.371  24.844  16.408  1.00  0.00     0.138 A 
HETATM    4  N5  UNL     1      48.624  23.634  15.963  1.00  0.00    -0.350 N 
ATOM      5  H5  UNL     1      48.058  22.813  16.181  1.00  0.00     0.166 HD
HETATM    6  C10 UNL     1      49.735  23.610  15.173  1.00  0.00     0.116 A 
ENDROOT
BRANCH   2   7
HETATM    7  N2  UNL     1      49.548  27.043  16.055  1.00  0.00    -0.326 N 
ATOM      8  H2  UNL     1      49.812  27.387  16.978  1.00  0.00     0.169 HD
BRANCH   7   9
HETATM    9  C4  UNL     1      49.366  27.984  15.005  1.00  0.00     0.134 A 
HETATM   10  C5  UNL     1      50.384  28.728  14.620  1.00  0.00     0.074 A 
HETATM   11 CL1  UNL     1      51.935  28.485  15.467  1.00  0.00    -0.083 Cl
HETATM   12  C6  UNL     1      50.373  29.741  13.559  1.00  0.00     0.179 A 
HETATM   13  N3  UNL     1      49.089  29.880  12.923  1.00  0.00    -0.337 N 
HETATM   14  C7  UNL     1      48.001  29.076  13.345  1.00  0.00     0.326 A 
ATOM     15  H3  UNL     1      48.962  30.556  12.170  1.00  0.00     0.164 HD
HETATM   16  O1  UNL     1      46.894  29.234  12.755  1.00  0.00    -0.247 OA
HETATM   17  N4  UNL     1      48.104  28.125  14.374  1.00  0.00    -0.257 N 
BRANCH  17  18
HETATM   18  C8  UNL     1      46.947  27.338  14.752  1.00  0.00     0.359 C 
HETATM   19  F1  UNL     1      46.566  27.738  16.003  1.00  0.00    -0.233 F 
ENDBRANCH  17  18
ENDBRANCH   7   9
ENDBRANCH   2   7
BRANCH   1  20
HETATM   20  C2  UNL     1      51.355  25.325  14.426  1.00  0.00     0.127 C 
HETATM   21  C1  UNL     1      52.655  25.076  15.151  1.00  0.00     0.027 C 
ENDBRANCH   1  20
BRANCH   6  22
HETATM   22  C11 UNL     1      50.211  22.384  14.558  1.00  0.00     0.250 C 
BRANCH  22  23
HETATM   23  N6  UNL     1      49.258  21.643  13.779  1.00  0.00    -0.068 N 
ATOM     24  H63 UNL     1      48.321  22.011  13.943  1.00  0.00     0.275 HD
ATOM     25  H62 UNL     1      49.375  21.868  12.791  1.00  0.00     0.275 HD
ATOM     26  H61 UNL     1      49.255  20.631  13.903  1.00  0.00     0.275 HD
ENDBRANCH  22  23
BRANCH  22  27
HETATM   27  C12 UNL     1      50.900  21.416  15.498  1.00  0.00     0.042 C 
BRANCH  27  28
HETATM   28  C13 UNL     1      51.943  20.636  14.706  1.00  0.00     0.030 C 
BRANCH  28  29
HETATM   29  C14 UNL     1      51.350  19.249  14.439  1.00  0.00     0.230 C 
BRANCH  29  30
HETATM   30  N7  UNL     1      51.566  18.404  15.585  1.00  0.00    -0.079 N 
ATOM     31  H73 UNL     1      50.980  18.672  16.376  1.00  0.00     0.274 HD
ATOM     32  H72 UNL     1      51.199  17.462  15.444  1.00  0.00     0.274 HD
ATOM     33  H71 UNL     1      52.558  18.399  15.824  1.00  0.00     0.274 HD
ENDBRANCH  29  30
ENDBRANCH  28  29
ENDBRANCH  27  28
ENDBRANCH  22  27
ENDBRANCH   6  22
TORSDOF 10
ENDMDL
MODEL 5
REMARK VINA RESULT: -6.304776474      0.982      1.688
REMARK  10 active torsions:
REMARK  status: ('A' for Active; 'I' for Inactive)
REMARK    1  A    between atoms: C2_2  and  N1_3 
REMARK    2  A    between atoms: C3_4  and  N2_5 
REMARK    3  A    between atoms: N2_5  and  C4_7 
REMARK    4  A    between atoms: N4_15  and  C8_16 
REMARK    5  A    between atoms: C10_21  and  C11_22 
REMARK    6  A    between atoms: C11_22  and  N6_23 
REMARK    7  A    between atoms: C11_22  and  C12_27 
REMARK    8  A    between atoms: C12_27  and  C13_28 
REMARK    9  A    between atoms: C13_28  and  C14_29 
REMARK   10  A    between atoms: C14_29  and  N7_30 
ROOT
HETATM    1  N1  UNL     1      51.254  24.311  14.651  1.00  0.00    -0.320 N 
HETATM    2  C3  UNL     1      50.978  22.985  14.781  1.00  0.00     0.126 A 
HETATM    3  C9  UNL     1      49.603  22.858  14.996  1.00  0.00     0.138 A 
HETATM    4  N5  UNL     1      49.135  24.086  14.985  1.00  0.00    -0.350 N 
ATOM      5  H5  UNL     1      48.152  24.326  15.116  1.00  0.00     0.166 HD
HETATM    6  C10 UNL     1      50.125  25.001  14.775  1.00  0.00     0.116 A 
ENDROOT
BRANCH   2   7
HETATM    7  N2  UNL     1      51.935  21.949  14.713  1.00  0.00    -0.326 N 
ATOM      8  H2  UNL     1      52.790  22.036  15.262  1.00  0.00     0.169 HD
BRANCH   7   9
HETATM    9  C4  UNL     1      51.758  20.788  13.911  1.00  0.00     0.134 A 
HETATM   10  C5  UNL     1      51.340  19.671  14.475  1.00  0.00     0.074 A 
HETATM   11 CL1  UNL     1      51.027  19.713  16.229  1.00  0.00    -0.083 Cl
HETATM   12  C6  UNL     1      51.106  18.389  13.801  1.00  0.00     0.179 A 
HETATM   13  N3  UNL     1      51.380  18.433  12.388  1.00  0.00    -0.337 N 
HETATM   14  C7  UNL     1      51.828  19.639  11.793  1.00  0.00     0.326 A 
ATOM     15  H3  UNL     1      51.251  17.598  11.817  1.00  0.00     0.164 HD
HETATM   16  O1  UNL     1      52.055  19.627  10.550  1.00  0.00    -0.247 OA
HETATM   17  N4  UNL     1      52.026  20.824  12.520  1.00  0.00    -0.257 N 
BRANCH  17  18
HETATM   18  C8  UNL     1      52.487  22.020  11.842  1.00  0.00     0.359 C 
HETATM   19  F1  UNL     1      53.725  21.751  11.327  1.00  0.00    -0.233 F 
ENDBRANCH  17  18
ENDBRANCH   7   9
ENDBRANCH   2   7
BRANCH   1  20
HETATM   20  C2  UNL     1      52.566  24.843  14.404  1.00  0.00     0.127 C 
HETATM   21  C1  UNL     1      53.356  25.144  15.653  1.00  0.00     0.027 C 
ENDBRANCH   1  20
BRANCH   6  22
HETATM   22  C11 UNL     1      49.852  26.426  14.728  1.00  0.00     0.250 C 
BRANCH  22  23
HETATM   23  N6  UNL     1      50.505  27.239  15.717  1.00  0.00    -0.068 N 
ATOM     24  H63 UNL     1      50.858  26.646  16.468  1.00  0.00     0.275 HD
ATOM     25  H62 UNL     1      51.380  27.602  15.339  1.00  0.00     0.275 HD
ATOM     26  H61 UNL     1      49.957  28.003  16.112  1.00  0.00     0.275 HD
ENDBRANCH  22  23
BRANCH  22  27
HETATM   27  C12 UNL     1      48.386  26.802  14.706  1.00  0.00     0.042 C 
BRANCH  27  28
HETATM   28  C13 UNL     1      48.032  27.445  16.042  1.00  0.00     0.030 C 
BRANCH  28  29
HETATM   29  C14 UNL     1      47.108  26.467  16.773  1.00  0.00     0.230 C 
BRANCH  29  30
HETATM   30  N7  UNL     1      47.865  25.727  17.750  1.00  0.00    -0.079 N 
ATOM     31  H73 UNL     1      47.802  24.720  17.603  1.00  0.00     0.274 HD
ATOM     32  H72 UNL     1      48.871  25.832  17.617  1.00  0.00     0.274 HD
ATOM     33  H71 UNL     1      47.569  25.999  18.688  1.00  0.00     0.274 HD
ENDBRANCH  29  30
ENDBRANCH  28  29
ENDBRANCH  27  28
ENDBRANCH  22  27
ENDBRANCH   6  22
TORSDOF 10
ENDMDL
