MODEL 1
REMARK VINA RESULT: -8.605893694      0.000      0.000
REMARK  8 active torsions:
REMARK  status: ('A' for Active; 'I' for Inactive)
REMARK    1  A    between atoms: C2_2  and  C4_4 
REMARK    2  A    between atoms: C4_4  and  O1_5 
REMARK    3  A    between atoms: O1_5  and  C5_6 
REMARK    4  A    between atoms: C7_12  and  N3_13 
REMARK    5  A    between atoms: N3_13  and  C8_15 
REMARK    6  A    between atoms: C8_15  and  C9_16 
REMARK    7  A    between atoms: C9_16  and  N4_17 
REMARK    8  A    between atoms: N6_25  and  C12_26 
ROOT
HETATM    1  C5  UNL     1      50.575  26.420  15.054  1.00  0.00     0.228 A 
HETATM    2  N1  UNL     1      51.662  25.817  14.543  1.00  0.00    -0.305 N 
ATOM      3  H1  UNL     1      52.515  26.287  14.239  1.00  0.00     0.171 HD
HETATM    4  C6  UNL     1      51.437  24.486  14.500  1.00  0.00     0.157 A 
HETATM    5  N2  UNL     1      52.199  23.458  14.080  1.00  0.00    -0.174 N 
ATOM      6  H2  UNL     1      53.136  23.620  13.709  1.00  0.00     0.186 HD
HETATM    7  C7  UNL     1      51.700  22.216  14.161  1.00  0.00     0.682 A 
HETATM    8  N5  UNL     1      50.472  21.980  14.643  1.00  0.00    -0.154 N 
ATOM      9  H5  UNL     1      50.119  21.024  14.691  1.00  0.00     0.187 HD
HETATM   10  C10 UNL     1      49.700  23.009  15.066  1.00  0.00     0.290 A 
HETATM   11  O2  UNL     1      48.540  22.824  15.527  1.00  0.00    -0.265 OA
HETATM   12  C11 UNL     1      50.167  24.317  15.007  1.00  0.00     0.152 A 
HETATM   13  N6  UNL     1      49.636  25.507  15.348  1.00  0.00    -0.291 N 
ENDROOT
BRANCH   7  14
HETATM   14  N3  UNL     1      52.422  21.238  13.761  1.00  0.00    -0.221 N 
ATOM     15  H3  UNL     1      53.162  20.872  14.359  1.00  0.00     0.178 HD
BRANCH  14  16
HETATM   16  C8  UNL     1      52.187  20.653  12.462  1.00  0.00     0.182 C 
BRANCH  16  17
HETATM   17  C9  UNL     1      53.384  20.858  11.589  1.00  0.00     0.073 C 
BRANCH  17  18
HETATM   18  N4  UNL     1      53.451  21.938  10.920  1.00  0.00    -0.410 N 
ATOM     19  H42 UNL     1      53.755  22.801  11.370  1.00  0.00     0.155 HD
ATOM     20  H41 UNL     1      53.192  21.903   9.935  1.00  0.00     0.155 HD
ENDBRANCH  17  18
ENDBRANCH  16  17
ENDBRANCH  14  16
ENDBRANCH   7  14
BRANCH   1  21
HETATM   21  O1  UNL     1      50.446  27.778  15.246  1.00  0.00    -0.321 OA
BRANCH  21  22
HETATM   22  C4  UNL     1      50.583  28.771  14.270  1.00  0.00     0.182 C 
BRANCH  22  23
HETATM   23  C2  UNL     1      49.279  29.270  13.707  1.00  0.00     0.002 C 
HETATM   24  C1  UNL     1      48.440  28.133  13.199  1.00  0.00     0.011 C 
HETATM   25  C3  UNL     1      49.623  30.142  12.499  1.00  0.00     0.011 C 
ENDBRANCH  22  23
ENDBRANCH  21  22
ENDBRANCH   1  21
BRANCH  13  26
HETATM   26  C12 UNL     1      48.319  25.679  15.910  1.00  0.00     0.209 A 
HETATM   27  C13 UNL     1      48.062  25.618  17.350  1.00  0.00     0.273 A 
HETATM   28  F1  UNL     1      46.770  25.274  17.757  1.00  0.00    -0.241 F 
HETATM   29  C14 UNL     1      48.153  26.978  16.685  1.00  0.00     0.299 A 
HETATM   30  F2  UNL     1      47.025  27.722  16.518  1.00  0.00    -0.201 F 
HETATM   31  F3  UNL     1      49.286  27.714  16.971  1.00  0.00    -0.201 F 
ENDBRANCH  13  26
TORSDOF 8
ENDMDL
MODEL 2
REMARK VINA RESULT: -8.379254303      0.913      1.376
REMARK  8 active torsions:
REMARK  status: ('A' for Active; 'I' for Inactive)
REMARK    1  A    between atoms: C2_2  and  C4_4 
REMARK    2  A    between atoms: C4_4  and  O1_5 
REMARK    3  A    between atoms: O1_5  and  C5_6 
REMARK    4  A    between atoms: C7_12  and  N3_13 
REMARK    5  A    between atoms: N3_13  and  C8_15 
REMARK    6  A    between atoms: C8_15  and  C9_16 
REMARK    7  A    between atoms: C9_16  and  N4_17 
REMARK    8  A    between atoms: N6_25  and  C12_26 
ROOT
HETATM    1  C5  UNL     1      50.680  26.360  15.074  1.00  0.00     0.228 A 
HETATM    2  N1  UNL     1      51.762  25.674  14.667  1.00  0.00    -0.305 N 
ATOM      3  H1  UNL     1      52.653  26.081  14.383  1.00  0.00     0.171 HD
HETATM    4  C6  UNL     1      51.472  24.355  14.698  1.00  0.00     0.157 A 
HETATM    5  N2  UNL     1      52.203  23.266  14.391  1.00  0.00    -0.174 N 
ATOM      6  H2  UNL     1      53.166  23.358  14.065  1.00  0.00     0.186 HD
HETATM    7  C7  UNL     1      51.637  22.058  14.523  1.00  0.00     0.682 A 
HETATM    8  N5  UNL     1      50.375  21.912  14.947  1.00  0.00    -0.154 N 
ATOM      9  H5  UNL     1      49.971  20.980  15.037  1.00  0.00     0.187 HD
HETATM   10  C10 UNL     1      49.633  23.004  15.257  1.00  0.00     0.290 A 
HETATM   11  O2  UNL     1      48.442  22.905  15.660  1.00  0.00    -0.265 OA
HETATM   12  C11 UNL     1      50.169  24.281  15.140  1.00  0.00     0.152 A 
HETATM   13  N6  UNL     1      49.681  25.515  15.371  1.00  0.00    -0.291 N 
ENDROOT
BRANCH   7  14
HETATM   14  N3  UNL     1      52.330  21.022  14.231  1.00  0.00    -0.221 N 
ATOM     15  H3  UNL     1      53.211  20.844  14.713  1.00  0.00     0.178 HD
BRANCH  14  16
HETATM   16  C8  UNL     1      51.861  20.104  13.219  1.00  0.00     0.182 C 
BRANCH  16  17
HETATM   17  C9  UNL     1      51.246  18.904  13.866  1.00  0.00     0.073 C 
BRANCH  17  18
HETATM   18  N4  UNL     1      51.591  18.634  15.060  1.00  0.00    -0.410 N 
ATOM     19  H42 UNL     1      51.856  19.383  15.699  1.00  0.00     0.155 HD
ATOM     20  H41 UNL     1      51.590  17.655  15.344  1.00  0.00     0.155 HD
ENDBRANCH  17  18
ENDBRANCH  16  17
ENDBRANCH  14  16
ENDBRANCH   7  14
BRANCH   1  21
HETATM   21  O1  UNL     1      50.609  27.733  15.169  1.00  0.00    -0.321 OA
BRANCH  21  22
HETATM   22  C4  UNL     1      50.660  28.643  14.106  1.00  0.00     0.182 C 
BRANCH  22  23
HETATM   23  C2  UNL     1      49.317  29.175  13.683  1.00  0.00     0.002 C 
HETATM   24  C1  UNL     1      48.463  28.085  13.103  1.00  0.00     0.011 C 
HETATM   25  C3  UNL     1      49.573  30.182  12.562  1.00  0.00     0.011 C 
ENDBRANCH  22  23
ENDBRANCH  21  22
ENDBRANCH   1  21
BRANCH  13  26
HETATM   26  C12 UNL     1      48.346  25.786  15.843  1.00  0.00     0.209 A 
HETATM   27  C13 UNL     1      47.985  25.735  17.261  1.00  0.00     0.273 A 
HETATM   28  F1  UNL     1      46.644  25.492  17.574  1.00  0.00    -0.241 F 
HETATM   29  C14 UNL     1      48.229  27.089  16.622  1.00  0.00     0.299 A 
HETATM   30  F2  UNL     1      47.177  27.921  16.387  1.00  0.00    -0.201 F 
HETATM   31  F3  UNL     1      49.393  27.731  16.995  1.00  0.00    -0.201 F 
ENDBRANCH  13  26
TORSDOF 8
ENDMDL
MODEL 3
REMARK VINA RESULT: -7.933799964      2.324      3.474
REMARK  8 active torsions:
REMARK  status: ('A' for Active; 'I' for Inactive)
REMARK    1  A    between atoms: C2_2  and  C4_4 
REMARK    2  A    between atoms: C4_4  and  O1_5 
REMARK    3  A    between atoms: O1_5  and  C5_6 
REMARK    4  A    between atoms: C7_12  and  N3_13 
REMARK    5  A    between atoms: N3_13  and  C8_15 
REMARK    6  A    between atoms: C8_15  and  C9_16 
REMARK    7  A    between atoms: C9_16  and  N4_17 
REMARK    8  A    between atoms: N6_25  and  C12_26 
ROOT
HETATM    1  C5  UNL     1      48.676  26.124  14.895  1.00  0.00     0.228 A 
HETATM    2  N1  UNL     1      48.331  24.844  15.118  1.00  0.00    -0.305 N 
ATOM      3  H1  UNL     1      47.381  24.500  15.261  1.00  0.00     0.171 HD
HETATM    4  C6  UNL     1      49.451  24.090  15.123  1.00  0.00     0.157 A 
HETATM    5  N2  UNL     1      49.646  22.769  15.301  1.00  0.00    -0.174 N 
ATOM      6  H2  UNL     1      48.857  22.143  15.470  1.00  0.00     0.186 HD
HETATM    7  C7  UNL     1      50.898  22.294  15.250  1.00  0.00     0.682 A 
HETATM    8  N5  UNL     1      51.949  23.096  15.031  1.00  0.00    -0.154 N 
ATOM      9  H5  UNL     1      52.890  22.706  14.998  1.00  0.00     0.187 HD
HETATM   10  C10 UNL     1      51.761  24.426  14.852  1.00  0.00     0.290 A 
HETATM   11  O2  UNL     1      52.726  25.212  14.642  1.00  0.00    -0.265 OA
HETATM   12  C11 UNL     1      50.483  24.973  14.893  1.00  0.00     0.152 A 
HETATM   13  N6  UNL     1      50.007  26.225  14.753  1.00  0.00    -0.291 N 
ENDROOT
BRANCH   7  14
HETATM   14  N3  UNL     1      51.085  21.039  15.419  1.00  0.00    -0.221 N 
ATOM     15  H3  UNL     1      50.721  20.575  16.251  1.00  0.00     0.178 HD
BRANCH  14  16
HETATM   16  C8  UNL     1      51.814  20.280  14.429  1.00  0.00     0.182 C 
BRANCH  16  17
HETATM   17  C9  UNL     1      51.366  18.853  14.453  1.00  0.00     0.073 C 
BRANCH  17  18
HETATM   18  N4  UNL     1      51.434  18.230  15.560  1.00  0.00    -0.410 N 
ATOM     19  H42 UNL     1      50.581  17.934  16.034  1.00  0.00     0.155 HD
ATOM     20  H41 UNL     1      52.360  18.044  15.944  1.00  0.00     0.155 HD
ENDBRANCH  17  18
ENDBRANCH  16  17
ENDBRANCH  14  16
ENDBRANCH   7  14
BRANCH   1  21
HETATM   21  O1  UNL     1      47.790  27.177  14.824  1.00  0.00    -0.321 OA
BRANCH  21  22
HETATM   22  C4  UNL     1      47.770  28.181  13.850  1.00  0.00     0.182 C 
BRANCH  22  23
HETATM   23  C2  UNL     1      47.335  27.712  12.487  1.00  0.00     0.002 C 
HETATM   24  C1  UNL     1      48.351  28.076  11.442  1.00  0.00     0.011 C 
HETATM   25  C3  UNL     1      46.054  28.474  12.145  1.00  0.00     0.011 C 
ENDBRANCH  22  23
ENDBRANCH  21  22
ENDBRANCH   1  21
BRANCH  13  26
HETATM   26  C12 UNL     1      50.827  27.384  14.502  1.00  0.00     0.209 A 
HETATM   27  C13 UNL     1      50.302  28.750  14.564  1.00  0.00     0.273 A 
HETATM   28  F1  UNL     1      50.973  29.730  13.827  1.00  0.00    -0.241 F 
HETATM   29  C14 UNL     1      51.094  28.221  15.745  1.00  0.00     0.299 A 
HETATM   30  F2  UNL     1      52.348  28.696  15.979  1.00  0.00    -0.201 F 
HETATM   31  F3  UNL     1      50.366  27.945  16.885  1.00  0.00    -0.201 F 
ENDBRANCH  13  26
TORSDOF 8
ENDMDL
MODEL 4
REMARK VINA RESULT: -7.895227012      3.853      6.484
REMARK  8 active torsions:
REMARK  status: ('A' for Active; 'I' for Inactive)
REMARK    1  A    between atoms: C2_2  and  C4_4 
REMARK    2  A    between atoms: C4_4  and  O1_5 
REMARK    3  A    between atoms: O1_5  and  C5_6 
REMARK    4  A    between atoms: C7_12  and  N3_13 
REMARK    5  A    between atoms: N3_13  and  C8_15 
REMARK    6  A    between atoms: C8_15  and  C9_16 
REMARK    7  A    between atoms: C9_16  and  N4_17 
REMARK    8  A    between atoms: N6_25  and  C12_26 
ROOT
HETATM    1  C5  UNL     1      49.984  28.344  14.420  1.00  0.00     0.228 A 
HETATM    2  N1  UNL     1      50.363  29.174  13.432  1.00  0.00    -0.305 N 
ATOM      3  H1  UNL     1      51.236  29.700  13.398  1.00  0.00     0.171 HD
HETATM    4  C6  UNL     1      49.393  29.195  12.492  1.00  0.00     0.157 A 
HETATM    5  N2  UNL     1      49.287  29.856  11.323  1.00  0.00    -0.174 N 
ATOM      6  H2  UNL     1      50.030  30.481  11.008  1.00  0.00     0.186 HD
HETATM    7  C7  UNL     1      48.184  29.675  10.583  1.00  0.00     0.682 A 
HETATM    8  N5  UNL     1      47.196  28.861  10.977  1.00  0.00    -0.154 N 
ATOM      9  H5  UNL     1      46.368  28.744  10.393  1.00  0.00     0.187 HD
HETATM   10  C10 UNL     1      47.295  28.193  12.152  1.00  0.00     0.290 A 
HETATM   11  O2  UNL     1      46.385  27.418  12.555  1.00  0.00    -0.265 OA
HETATM   12  C11 UNL     1      48.417  28.342  12.959  1.00  0.00     0.152 A 
HETATM   13  N6  UNL     1      48.780  27.818  14.146  1.00  0.00    -0.291 N 
ENDROOT
BRANCH   7  14
HETATM   14  N3  UNL     1      48.081  30.303   9.473  1.00  0.00    -0.221 N 
ATOM     15  H3  UNL     1      48.900  30.747   9.059  1.00  0.00     0.178 HD
BRANCH  14  16
HETATM   16  C8  UNL     1      46.802  30.383   8.806  1.00  0.00     0.182 C 
BRANCH  16  17
HETATM   17  C9  UNL     1      46.741  31.621   7.969  1.00  0.00     0.073 C 
BRANCH  17  18
HETATM   18  N4  UNL     1      46.749  31.482   6.705  1.00  0.00    -0.410 N 
ATOM     19  H42 UNL     1      45.882  31.286   6.206  1.00  0.00     0.155 HD
ATOM     20  H41 UNL     1      47.643  31.573   6.223  1.00  0.00     0.155 HD
ENDBRANCH  17  18
ENDBRANCH  16  17
ENDBRANCH  14  16
ENDBRANCH   7  14
BRANCH   1  21
HETATM   21  O1  UNL     1      50.727  28.076  15.549  1.00  0.00    -0.321 OA
BRANCH  21  22
HETATM   22  C4  UNL     1      51.678  27.059  15.695  1.00  0.00     0.182 C 
BRANCH  22  23
HETATM   23  C2  UNL     1      51.469  25.881  14.782  1.00  0.00     0.002 C 
HETATM   24  C1  UNL     1      50.543  24.875  15.404  1.00  0.00     0.011 C 
HETATM   25  C3  UNL     1      52.827  25.196  14.625  1.00  0.00     0.011 C 
ENDBRANCH  22  23
ENDBRANCH  21  22
ENDBRANCH   1  21
BRANCH  13  26
HETATM   26  C12 UNL     1      47.981  26.888  14.904  1.00  0.00     0.209 A 
HETATM   27  C13 UNL     1      48.091  26.756  16.358  1.00  0.00     0.273 A 
HETATM   28  F1  UNL     1      47.705  25.538  16.923  1.00  0.00    -0.241 F 
HETATM   29  C14 UNL     1      46.938  27.559  15.786  1.00  0.00     0.299 A 
HETATM   30  F2  UNL     1      45.676  27.053  15.838  1.00  0.00    -0.201 F 
HETATM   31  F3  UNL     1      47.013  28.927  15.956  1.00  0.00    -0.201 F 
ENDBRANCH  13  26
TORSDOF 8
ENDMDL
MODEL 5
REMARK VINA RESULT: -7.759596295      3.489      6.849
REMARK  8 active torsions:
REMARK  status: ('A' for Active; 'I' for Inactive)
REMARK    1  A    between atoms: C2_2  and  C4_4 
REMARK    2  A    between atoms: C4_4  and  O1_5 
REMARK    3  A    between atoms: O1_5  and  C5_6 
REMARK    4  A    between atoms: C7_12  and  N3_13 
REMARK    5  A    between atoms: N3_13  and  C8_15 
REMARK    6  A    between atoms: C8_15  and  C9_16 
REMARK    7  A    between atoms: C9_16  and  N4_17 
REMARK    8  A    between atoms: N6_25  and  C12_26 
ROOT
HETATM    1  C5  UNL     1      52.053  22.961  13.632  1.00  0.00     0.228 A 
HETATM    2  N1  UNL     1      52.101  24.295  13.794  1.00  0.00    -0.305 N 
ATOM      3  H1  UNL     1      52.835  24.911  13.442  1.00  0.00     0.171 HD
HETATM    4  C6  UNL     1      51.017  24.683  14.500  1.00  0.00     0.157 A 
HETATM    5  N2  UNL     1      50.605  25.894  14.922  1.00  0.00    -0.174 N 
ATOM      6  H2  UNL     1      51.150  26.732  14.715  1.00  0.00     0.186 HD
HETATM    7  C7  UNL     1      49.462  25.974  15.618  1.00  0.00     0.682 A 
HETATM    8  N5  UNL     1      48.731  24.887  15.902  1.00  0.00    -0.154 N 
ATOM      9  H5  UNL     1      47.866  24.979  16.434  1.00  0.00     0.187 HD
HETATM   10  C10 UNL     1      49.141  23.666  15.482  1.00  0.00     0.290 A 
HETATM   11  O2  UNL     1      48.478  22.621  15.730  1.00  0.00    -0.265 OA
HETATM   12  C11 UNL     1      50.317  23.524  14.755  1.00  0.00     0.152 A 
HETATM   13  N6  UNL     1      50.954  22.464  14.221  1.00  0.00    -0.291 N 
ENDROOT
BRANCH   7  14
HETATM   14  N3  UNL     1      49.068  27.123  16.020  1.00  0.00    -0.221 N 
ATOM     15  H3  UNL     1      49.664  27.683  16.630  1.00  0.00     0.178 HD
BRANCH  14  16
HETATM   16  C8  UNL     1      47.779  27.627  15.608  1.00  0.00     0.182 C 
BRANCH  16  17
HETATM   17  C9  UNL     1      47.911  28.364  14.313  1.00  0.00     0.073 C 
BRANCH  17  18
HETATM   18  N4  UNL     1      47.497  27.785  13.258  1.00  0.00    -0.410 N 
ATOM     19  H42 UNL     1      47.012  26.891  13.321  1.00  0.00     0.155 HD
ATOM     20  H41 UNL     1      47.670  28.247  12.365  1.00  0.00     0.155 HD
ENDBRANCH  17  18
ENDBRANCH  16  17
ENDBRANCH  14  16
ENDBRANCH   7  14
BRANCH   1  21
HETATM   21  O1  UNL     1      52.996  22.216  12.959  1.00  0.00    -0.321 OA
BRANCH  21  22
HETATM   22  C4  UNL     1      52.997  21.915  11.592  1.00  0.00     0.182 C 
BRANCH  22  23
HETATM   23  C2  UNL     1      53.462  20.521  11.266  1.00  0.00     0.002 C 
HETATM   24  C1  UNL     1      54.789  20.546  10.563  1.00  0.00     0.011 C 
HETATM   25  C3  UNL     1      52.449  19.936  10.281  1.00  0.00     0.011 C 
ENDBRANCH  22  23
ENDBRANCH  21  22
ENDBRANCH   1  21
BRANCH  13  26
HETATM   26  C12 UNL     1      50.484  21.103  14.308  1.00  0.00     0.209 A 
HETATM   27  C13 UNL     1      51.007  20.032  13.457  1.00  0.00     0.273 A 
HETATM   28  F1  UNL     1      50.179  18.929  13.233  1.00  0.00    -0.241 F 
HETATM   29  C14 UNL     1      51.512  20.140  14.884  1.00  0.00     0.299 A 
HETATM   30  F2  UNL     1      51.126  19.216  15.805  1.00  0.00    -0.201 F 
HETATM   31  F3  UNL     1      52.811  20.586  15.031  1.00  0.00    -0.201 F 
ENDBRANCH  13  26
TORSDOF 8
ENDMDL
