MODEL 1
REMARK VINA RESULT: -6.724919130      0.000      0.000
REMARK  5 active torsions:
REMARK  status: ('A' for Active; 'I' for Inactive)
REMARK    1  A    between atoms: C2_3  and  C3_4 
REMARK    2  A    between atoms: C3_4  and  C4_5 
REMARK    3  A    between atoms: C4_5  and  N2_6 
REMARK    4  A    between atoms: N2_6  and  N3_8 
REMARK    5  A    between atoms: N3_8  and  C5_10 
ROOT
HETATM    1  N1  UNL     1      51.513  27.889  15.855  1.00  0.00    -0.197 NA
HETATM    2  C1  UNL     1      50.689  28.331  15.145  1.00  0.00     0.059 C 
HETATM    3  C2  UNL     1      49.662  28.904  14.271  1.00  0.00     0.125 C 
ENDROOT
BRANCH   3   4
HETATM    4  C3  UNL     1      48.360  28.220  14.595  1.00  0.00     0.035 C 
BRANCH   4   5
HETATM    5  C4  UNL     1      47.251  28.631  13.650  1.00  0.00     0.141 C 
BRANCH   5   6
HETATM    6  N2  UNL     1      47.254  27.813  12.475  1.00  0.00    -0.322 N 
ATOM      7  H2  UNL     1      46.762  26.920  12.489  1.00  0.00     0.180 HD
BRANCH   6   8
HETATM    8  N3  UNL     1      47.904  28.204  11.328  1.00  0.00    -0.134 N 
ATOM      9  H3  UNL     1      48.837  27.830  11.152  1.00  0.00     0.205 HD
BRANCH   8  10
HETATM   10  C5  UNL     1      47.400  29.017  10.460  1.00  0.00     0.722 A 
HETATM   11  N4  UNL     1      48.074  29.741   9.564  1.00  0.00    -0.115 N 
HETATM   12  N5  UNL     1      47.235  30.464   8.836  1.00  0.00     0.006 NA
ATOM     13  H4  UNL     1      49.088  29.739   9.455  1.00  0.00     0.202 HD
HETATM   14  N6  UNL     1      46.013  30.188   9.283  1.00  0.00     0.006 NA
HETATM   15  N7  UNL     1      46.103  29.304  10.276  1.00  0.00    -0.115 N 
ATOM     16  H7  UNL     1      45.322  28.914  10.804  1.00  0.00     0.202 HD
ENDBRANCH   8  10
ENDBRANCH   6   8
ENDBRANCH   5   6
ENDBRANCH   4   5
ENDBRANCH   3   4
TORSDOF 5
ENDMDL
MODEL 2
REMARK VINA RESULT: -6.722786123      0.020      1.029
REMARK  5 active torsions:
REMARK  status: ('A' for Active; 'I' for Inactive)
REMARK    1  A    between atoms: C2_3  and  C3_4 
REMARK    2  A    between atoms: C3_4  and  C4_5 
REMARK    3  A    between atoms: C4_5  and  N2_6 
REMARK    4  A    between atoms: N2_6  and  N3_8 
REMARK    5  A    between atoms: N3_8  and  C5_10 
ROOT
HETATM    1  N1  UNL     1      51.513  27.893  15.856  1.00  0.00    -0.197 NA
HETATM    2  C1  UNL     1      50.687  28.332  15.145  1.00  0.00     0.059 C 
HETATM    3  C2  UNL     1      49.658  28.899  14.270  1.00  0.00     0.125 C 
ENDROOT
BRANCH   3   4
HETATM    4  C3  UNL     1      48.357  28.215  14.599  1.00  0.00     0.035 C 
BRANCH   4   5
HETATM    5  C4  UNL     1      47.244  28.631  13.661  1.00  0.00     0.141 C 
BRANCH   5   6
HETATM    6  N2  UNL     1      47.236  27.816  12.485  1.00  0.00    -0.322 N 
ATOM      7  H2  UNL     1      46.724  26.934  12.493  1.00  0.00     0.180 HD
BRANCH   6   8
HETATM    8  N3  UNL     1      47.903  28.194  11.343  1.00  0.00    -0.134 N 
ATOM      9  H3  UNL     1      48.834  27.810  11.179  1.00  0.00     0.205 HD
BRANCH   8  10
HETATM   10  C5  UNL     1      47.416  29.008  10.465  1.00  0.00     0.722 A 
HETATM   11  N4  UNL     1      46.127  29.299  10.280  1.00  0.00    -0.115 N 
HETATM   12  N5  UNL     1      45.993  30.173   9.294  1.00  0.00     0.006 NA
ATOM     13  H4  UNL     1      45.356  28.906  10.819  1.00  0.00     0.202 HD
HETATM   14  N6  UNL     1      47.221  30.437   8.852  1.00  0.00     0.006 NA
HETATM   15  N7  UNL     1      48.099  29.729   9.563  1.00  0.00    -0.115 N 
ATOM     16  H7  UNL     1      49.111  29.734   9.441  1.00  0.00     0.202 HD
ENDBRANCH   8  10
ENDBRANCH   6   8
ENDBRANCH   5   6
ENDBRANCH   4   5
ENDBRANCH   3   4
TORSDOF 5
ENDMDL
MODEL 3
REMARK VINA RESULT: -6.332216683      3.045      8.395
REMARK  5 active torsions:
REMARK  status: ('A' for Active; 'I' for Inactive)
REMARK    1  A    between atoms: C2_3  and  C3_4 
REMARK    2  A    between atoms: C3_4  and  C4_5 
REMARK    3  A    between atoms: C4_5  and  N2_6 
REMARK    4  A    between atoms: N2_6  and  N3_8 
REMARK    5  A    between atoms: N3_8  and  C5_10 
ROOT
HETATM    1  N1  UNL     1      48.113  29.508  12.203  1.00  0.00    -0.197 NA
HETATM    2  C1  UNL     1      48.491  28.927  13.151  1.00  0.00     0.059 C 
HETATM    3  C2  UNL     1      48.945  28.213  14.346  1.00  0.00     0.125 C 
ENDROOT
BRANCH   3   4
HETATM    4  C3  UNL     1      50.289  28.776  14.726  1.00  0.00     0.035 C 
BRANCH   4   5
HETATM    5  C4  UNL     1      51.134  27.772  15.482  1.00  0.00     0.141 C 
BRANCH   5   6
HETATM    6  N2  UNL     1      52.312  28.390  16.010  1.00  0.00    -0.322 N 
ATOM      7  H2  UNL     1      52.618  29.285  15.628  1.00  0.00     0.180 HD
BRANCH   6   8
HETATM    8  N3  UNL     1      53.041  27.805  17.019  1.00  0.00    -0.134 N 
ATOM      9  H3  UNL     1      52.981  26.793  17.131  1.00  0.00     0.205 HD
BRANCH   8  10
HETATM   10  C5  UNL     1      53.797  28.465  17.832  1.00  0.00     0.722 A 
HETATM   11  N4  UNL     1      54.562  29.517  17.530  1.00  0.00    -0.115 N 
HETATM   12  N5  UNL     1      55.201  29.942  18.609  1.00  0.00     0.006 NA
ATOM     13  H4  UNL     1      54.642  29.933  16.602  1.00  0.00     0.202 HD
HETATM   14  N6  UNL     1      54.831  29.144  19.607  1.00  0.00     0.006 NA
HETATM   15  N7  UNL     1      53.972  28.237  19.142  1.00  0.00    -0.115 N 
ATOM     16  H7  UNL     1      53.526  27.499  19.686  1.00  0.00     0.202 HD
ENDBRANCH   8  10
ENDBRANCH   6   8
ENDBRANCH   5   6
ENDBRANCH   4   5
ENDBRANCH   3   4
TORSDOF 5
ENDMDL
MODEL 4
REMARK VINA RESULT: -6.327872674      3.034      8.421
REMARK  5 active torsions:
REMARK  status: ('A' for Active; 'I' for Inactive)
REMARK    1  A    between atoms: C2_3  and  C3_4 
REMARK    2  A    between atoms: C3_4  and  C4_5 
REMARK    3  A    between atoms: C4_5  and  N2_6 
REMARK    4  A    between atoms: N2_6  and  N3_8 
REMARK    5  A    between atoms: N3_8  and  C5_10 
ROOT
HETATM    1  N1  UNL     1      48.071  29.410  12.199  1.00  0.00    -0.197 NA
HETATM    2  C1  UNL     1      48.438  28.938  13.210  1.00  0.00     0.059 C 
HETATM    3  C2  UNL     1      48.882  28.364  14.483  1.00  0.00     0.125 C 
ENDROOT
BRANCH   3   4
HETATM    4  C3  UNL     1      50.312  28.787  14.696  1.00  0.00     0.035 C 
BRANCH   4   5
HETATM    5  C4  UNL     1      51.076  27.799  15.550  1.00  0.00     0.141 C 
BRANCH   5   6
HETATM    6  N2  UNL     1      52.316  28.359  15.994  1.00  0.00    -0.322 N 
ATOM      7  H2  UNL     1      52.695  29.175  15.513  1.00  0.00     0.180 HD
BRANCH   6   8
HETATM    8  N3  UNL     1      53.009  27.823  17.054  1.00  0.00    -0.134 N 
ATOM      9  H3  UNL     1      52.909  26.825  17.239  1.00  0.00     0.205 HD
BRANCH   8  10
HETATM   10  C5  UNL     1      53.780  28.512  17.829  1.00  0.00     0.722 A 
HETATM   11  N4  UNL     1      53.974  28.317  19.135  1.00  0.00    -0.115 N 
HETATM   12  N5  UNL     1      54.829  29.210  19.608  1.00  0.00     0.006 NA
ATOM     13  H4  UNL     1      53.528  27.585  19.689  1.00  0.00     0.202 HD
HETATM   14  N6  UNL     1      55.180  29.980  18.581  1.00  0.00     0.006 NA
HETATM   15  N7  UNL     1      54.543  29.561  17.488  1.00  0.00    -0.115 N 
ATOM     16  H7  UNL     1      54.621  29.967  16.556  1.00  0.00     0.202 HD
ENDBRANCH   8  10
ENDBRANCH   6   8
ENDBRANCH   5   6
ENDBRANCH   4   5
ENDBRANCH   3   4
TORSDOF 5
ENDMDL
MODEL 5
REMARK VINA RESULT: -6.154473608      1.179      1.611
REMARK  5 active torsions:
REMARK  status: ('A' for Active; 'I' for Inactive)
REMARK    1  A    between atoms: C2_3  and  C3_4 
REMARK    2  A    between atoms: C3_4  and  C4_5 
REMARK    3  A    between atoms: C4_5  and  N2_6 
REMARK    4  A    between atoms: N2_6  and  N3_8 
REMARK    5  A    between atoms: N3_8  and  C5_10 
ROOT
HETATM    1  N1  UNL     1      50.682  28.432  15.079  1.00  0.00    -0.197 NA
HETATM    2  C1  UNL     1      49.544  28.441  14.789  1.00  0.00     0.059 C 
HETATM    3  C2  UNL     1      48.125  28.429  14.427  1.00  0.00     0.125 C 
ENDROOT
BRANCH   3   4
HETATM    4  C3  UNL     1      48.010  28.974  13.028  1.00  0.00     0.035 C 
BRANCH   4   5
HETATM    5  C4  UNL     1      47.158  28.091  12.141  1.00  0.00     0.141 C 
BRANCH   5   6
HETATM    6  N2  UNL     1      45.895  28.707  11.869  1.00  0.00    -0.322 N 
ATOM      7  H2  UNL     1      45.264  28.911  12.644  1.00  0.00     0.180 HD
BRANCH   6   8
HETATM    8  N3  UNL     1      45.513  29.029  10.588  1.00  0.00    -0.134 N 
ATOM      9  H3  UNL     1      44.623  28.666  10.245  1.00  0.00     0.205 HD
BRANCH   8  10
HETATM   10  C5  UNL     1      46.217  29.766   9.794  1.00  0.00     0.722 A 
HETATM   11  N4  UNL     1      47.480  29.551   9.422  1.00  0.00    -0.115 N 
HETATM   12  N5  UNL     1      47.884  30.509   8.600  1.00  0.00     0.006 NA
ATOM     13  H4  UNL     1      48.053  28.763   9.725  1.00  0.00     0.202 HD
HETATM   14  N6  UNL     1      46.855  31.340   8.454  1.00  0.00     0.006 NA
HETATM   15  N7  UNL     1      45.830  30.894   9.180  1.00  0.00    -0.115 N 
ATOM     16  H7  UNL     1      44.913  31.334   9.256  1.00  0.00     0.202 HD
ENDBRANCH   8  10
ENDBRANCH   6   8
ENDBRANCH   5   6
ENDBRANCH   4   5
ENDBRANCH   3   4
TORSDOF 5
ENDMDL
