MODEL 1
REMARK VINA RESULT: -5.919497664      0.000      0.000
REMARK  4 active torsions:
REMARK  status: ('A' for Active; 'I' for Inactive)
REMARK       I    between atoms: C1_4  and  N3_6 
REMARK    1  A    between atoms: N3_6  and  N4_8 
REMARK    2  A    between atoms: N4_8  and  C2_9 
REMARK    3  A    between atoms: C2_9  and  C3_10 
REMARK    4  A    between atoms: C3_10  and  N5_11 
ROOT
HETATM    1  C2  UNL     1      48.165  28.451  10.430  1.00  0.00     0.157 C 
ENDROOT
BRANCH   1   2
HETATM    2  N4  UNL     1      48.160  28.952   9.078  1.00  0.00    -0.137 NA
BRANCH   2   3
HETATM    3  N3  UNL     1      47.835  30.332   9.174  1.00  0.00    -0.278 N 
HETATM    4  C1  UNL     1      46.475  30.750   9.218  1.00  0.00     0.197 C 
HETATM    5  N1  UNL     1      45.579  29.869   9.479  1.00  0.00    -0.373 N 
HETATM    6  N2  UNL     1      46.106  32.079   8.988  1.00  0.00    -0.063 NA
ATOM      7  H12 UNL     1      44.605  30.169   9.511  1.00  0.00     0.158 HD
ATOM      8  H11 UNL     1      45.849  28.900   9.647  1.00  0.00     0.158 HD
ATOM      9  H3  UNL     1      48.581  31.027   9.211  1.00  0.00     0.185 HD
ENDBRANCH   2   3
ENDBRANCH   1   2
BRANCH   1  10
HETATM   10  C3  UNL     1      48.689  29.437  11.433  1.00  0.00     0.167 C 
BRANCH  10  11
HETATM   11  N5  UNL     1      48.362  28.931  12.752  1.00  0.00    -0.286 N 
HETATM   12  C4  UNL     1      47.193  28.424  13.145  1.00  0.00     0.201 A 
HETATM   13  N6  UNL     1      47.288  28.066  14.440  1.00  0.00    -0.346 N 
HETATM   14  C5  UNL     1      48.534  28.356  14.857  1.00  0.00     0.198 A 
ATOM     15  H6  UNL     1      46.548  27.650  15.004  1.00  0.00     0.167 HD
HETATM   16  N7  UNL     1      49.164  28.885  13.793  1.00  0.00    -0.293 N 
ATOM     17  H7  UNL     1      50.133  29.206  13.794  1.00  0.00     0.188 HD
ENDBRANCH  10  11
ENDBRANCH   1  10
TORSDOF 4
ENDMDL
MODEL 2
REMARK VINA RESULT: -5.877663633      0.753      1.060
REMARK  4 active torsions:
REMARK  status: ('A' for Active; 'I' for Inactive)
REMARK       I    between atoms: C1_4  and  N3_6 
REMARK    1  A    between atoms: N3_6  and  N4_8 
REMARK    2  A    between atoms: N4_8  and  C2_9 
REMARK    3  A    between atoms: C2_9  and  C3_10 
REMARK    4  A    between atoms: C3_10  and  N5_11 
ROOT
HETATM    1  C2  UNL     1      48.109  28.374  10.717  1.00  0.00     0.157 C 
ENDROOT
BRANCH   1   2
HETATM    2  N4  UNL     1      48.072  28.809   9.343  1.00  0.00    -0.137 NA
BRANCH   2   3
HETATM    3  N3  UNL     1      47.810  30.204   9.382  1.00  0.00    -0.278 N 
HETATM    4  C1  UNL     1      46.475  30.689   9.292  1.00  0.00     0.197 C 
HETATM    5  N1  UNL     1      45.515  29.859   9.486  1.00  0.00    -0.373 N 
HETATM    6  N2  UNL     1      46.195  32.028   9.003  1.00  0.00    -0.063 NA
ATOM      7  H12 UNL     1      44.558  30.206   9.422  1.00  0.00     0.158 HD
ATOM      8  H11 UNL     1      45.719  28.882   9.697  1.00  0.00     0.158 HD
ATOM      9  H3  UNL     1      48.583  30.863   9.474  1.00  0.00     0.185 HD
ENDBRANCH   2   3
ENDBRANCH   1   2
BRANCH   1  10
HETATM   10  C3  UNL     1      48.555  29.442  11.673  1.00  0.00     0.167 C 
BRANCH  10  11
HETATM   11  N5  UNL     1      48.380  28.925  13.016  1.00  0.00    -0.286 N 
HETATM   12  C4  UNL     1      49.305  28.866  13.975  1.00  0.00     0.201 A 
HETATM   13  N6  UNL     1      48.754  28.322  15.077  1.00  0.00    -0.346 N 
HETATM   14  C5  UNL     1      47.469  28.039  14.798  1.00  0.00     0.198 A 
ATOM     15  H6  UNL     1      49.227  28.154  15.965  1.00  0.00     0.167 HD
HETATM   16  N7  UNL     1      47.276  28.423  13.525  1.00  0.00    -0.293 N 
ATOM     17  H7  UNL     1      46.393  28.338  13.021  1.00  0.00     0.188 HD
ENDBRANCH  10  11
ENDBRANCH   1  10
TORSDOF 4
ENDMDL
MODEL 3
REMARK VINA RESULT: -5.809183909      1.110      5.259
REMARK  4 active torsions:
REMARK  status: ('A' for Active; 'I' for Inactive)
REMARK       I    between atoms: C1_4  and  N3_6 
REMARK    1  A    between atoms: N3_6  and  N4_8 
REMARK    2  A    between atoms: N4_8  and  C2_9 
REMARK    3  A    between atoms: C2_9  and  C3_10 
REMARK    4  A    between atoms: C3_10  and  N5_11 
ROOT
HETATM    1  C2  UNL     1      46.729  28.351  12.068  1.00  0.00     0.157 C 
ENDROOT
BRANCH   1   2
HETATM    2  N4  UNL     1      46.965  29.164  13.235  1.00  0.00    -0.137 NA
BRANCH   2   3
HETATM    3  N3  UNL     1      48.370  29.145  13.448  1.00  0.00    -0.278 N 
HETATM    4  C1  UNL     1      48.930  28.351  14.487  1.00  0.00     0.197 C 
HETATM    5  N1  UNL     1      48.198  27.436  15.012  1.00  0.00    -0.373 N 
HETATM    6  N2  UNL     1      50.239  28.544  14.937  1.00  0.00    -0.063 NA
ATOM      7  H12 UNL     1      48.600  26.867  15.756  1.00  0.00     0.158 HD
ATOM      8  H11 UNL     1      47.243  27.295  14.683  1.00  0.00     0.158 HD
ATOM      9  H3  UNL     1      48.980  29.705  12.852  1.00  0.00     0.185 HD
ENDBRANCH   2   3
ENDBRANCH   1   2
BRANCH   1  10
HETATM   10  C3  UNL     1      47.761  28.532  10.993  1.00  0.00     0.167 C 
BRANCH  10  11
HETATM   11  N5  UNL     1      47.226  29.473  10.029  1.00  0.00    -0.286 N 
HETATM   12  C4  UNL     1      45.955  29.862   9.915  1.00  0.00     0.201 A 
HETATM   13  N6  UNL     1      45.861  30.743   8.900  1.00  0.00    -0.346 N 
HETATM   14  C5  UNL     1      47.090  30.903   8.378  1.00  0.00     0.198 A 
ATOM     15  H6  UNL     1      45.009  31.207   8.584  1.00  0.00     0.167 HD
HETATM   16  N7  UNL     1      47.902  30.108   9.096  1.00  0.00    -0.293 N 
ATOM     17  H7  UNL     1      48.905  30.011   8.940  1.00  0.00     0.188 HD
ENDBRANCH  10  11
ENDBRANCH   1  10
TORSDOF 4
ENDMDL
MODEL 4
REMARK VINA RESULT: -5.703519268      1.090      5.296
REMARK  4 active torsions:
REMARK  status: ('A' for Active; 'I' for Inactive)
REMARK       I    between atoms: C1_4  and  N3_6 
REMARK    1  A    between atoms: N3_6  and  N4_8 
REMARK    2  A    between atoms: N4_8  and  C2_9 
REMARK    3  A    between atoms: C2_9  and  C3_10 
REMARK    4  A    between atoms: C3_10  and  N5_11 
ROOT
HETATM    1  C2  UNL     1      47.787  28.273  11.573  1.00  0.00     0.157 C 
ENDROOT
BRANCH   1   2
HETATM    2  N4  UNL     1      48.056  29.273  12.576  1.00  0.00    -0.137 NA
BRANCH   2   3
HETATM    3  N3  UNL     1      47.250  28.930  13.695  1.00  0.00    -0.278 N 
HETATM    4  C1  UNL     1      47.814  28.239  14.804  1.00  0.00     0.197 C 
HETATM    5  N1  UNL     1      49.093  28.208  14.912  1.00  0.00    -0.373 N 
HETATM    6  N2  UNL     1      47.015  27.606  15.761  1.00  0.00    -0.063 NA
ATOM      7  H12 UNL     1      49.497  27.713  15.707  1.00  0.00     0.158 HD
ATOM      8  H11 UNL     1      49.675  28.670  14.214  1.00  0.00     0.158 HD
ATOM      9  H3  UNL     1      46.261  29.181  13.704  1.00  0.00     0.185 HD
ENDBRANCH   2   3
ENDBRANCH   1   2
BRANCH   1  10
HETATM   10  C3  UNL     1      48.345  28.613  10.222  1.00  0.00     0.167 C 
BRANCH  10  11
HETATM   11  N5  UNL     1      47.451  29.579   9.613  1.00  0.00    -0.286 N 
HETATM   12  C4  UNL     1      46.159  29.757   9.892  1.00  0.00     0.201 A 
HETATM   13  N6  UNL     1      45.680  30.748   9.115  1.00  0.00    -0.346 N 
HETATM   14  C5  UNL     1      46.689  31.190   8.343  1.00  0.00     0.198 A 
ATOM     15  H6  UNL     1      44.723  31.100   9.112  1.00  0.00     0.167 HD
HETATM   16  N7  UNL     1      47.760  30.450   8.677  1.00  0.00    -0.293 N 
ATOM     17  H7  UNL     1      48.686  30.549   8.261  1.00  0.00     0.188 HD
ENDBRANCH  10  11
ENDBRANCH   1  10
TORSDOF 4
ENDMDL
MODEL 5
REMARK VINA RESULT: -5.695484358      1.303      5.389
REMARK  4 active torsions:
REMARK  status: ('A' for Active; 'I' for Inactive)
REMARK       I    between atoms: C1_4  and  N3_6 
REMARK    1  A    between atoms: N3_6  and  N4_8 
REMARK    2  A    between atoms: N4_8  and  C2_9 
REMARK    3  A    between atoms: C2_9  and  C3_10 
REMARK    4  A    between atoms: C3_10  and  N5_11 
ROOT
HETATM    1  C2  UNL     1      46.986  28.379  12.105  1.00  0.00     0.157 C 
ENDROOT
BRANCH   1   2
HETATM    2  N4  UNL     1      47.026  29.115  13.344  1.00  0.00    -0.137 NA
BRANCH   2   3
HETATM    3  N3  UNL     1      48.402  29.277  13.658  1.00  0.00    -0.278 N 
HETATM    4  C1  UNL     1      49.106  28.258  14.358  1.00  0.00     0.197 C 
HETATM    5  N1  UNL     1      48.575  27.091  14.424  1.00  0.00    -0.373 N 
HETATM    6  N2  UNL     1      50.343  28.499  14.963  1.00  0.00    -0.063 NA
ATOM      7  H12 UNL     1      49.080  26.360  14.925  1.00  0.00     0.158 HD
ATOM      8  H11 UNL     1      47.673  26.915  13.982  1.00  0.00     0.158 HD
ATOM      9  H3  UNL     1      48.888  30.130  13.380  1.00  0.00     0.185 HD
ENDBRANCH   2   3
ENDBRANCH   1   2
BRANCH   1  10
HETATM   10  C3  UNL     1      45.875  28.804  11.190  1.00  0.00     0.167 C 
BRANCH  10  11
HETATM   11  N5  UNL     1      46.467  29.577  10.115  1.00  0.00    -0.286 N 
HETATM   12  C4  UNL     1      47.744  29.563   9.733  1.00  0.00     0.201 A 
HETATM   13  N6  UNL     1      47.898  30.416   8.702  1.00  0.00    -0.346 N 
HETATM   14  C5  UNL     1      46.699  30.967   8.441  1.00  0.00     0.198 A 
ATOM     15  H6  UNL     1      48.769  30.610   8.207  1.00  0.00     0.167 HD
HETATM   16  N7  UNL     1      45.846  30.428   9.329  1.00  0.00    -0.293 N 
ATOM     17  H7  UNL     1      44.851  30.648   9.384  1.00  0.00     0.188 HD
ENDBRANCH  10  11
ENDBRANCH   1  10
TORSDOF 4
ENDMDL
