MODEL 1
REMARK VINA RESULT: -6.020213030      0.000      0.000
REMARK  4 active torsions:
REMARK  status: ('A' for Active; 'I' for Inactive)
REMARK    1  A    between atoms: C1_4  and  C2_6 
REMARK    2  A    between atoms: C2_6  and  C3_7 
REMARK    3  A    between atoms: C3_7  and  N3_8 
REMARK    4  A    between atoms: N3_8  and  C4_10 
ROOT
HETATM    1  C4  UNL     1      48.237  29.101  12.145  1.00  0.00     0.694 A 
HETATM    2  N4  UNL     1      47.075  28.562  12.278  1.00  0.00    -0.118 N 
ATOM      3  H4  UNL     1      46.455  28.546  11.468  1.00  0.00     0.207 HD
HETATM    4  N5  UNL     1      46.621  27.999  13.468  1.00  0.00    -0.228 N 
ATOM      5  H5  UNL     1      45.692  27.582  13.520  1.00  0.00     0.209 HD
HETATM    6  N6  UNL     1      47.454  28.012  14.590  1.00  0.00    -0.281 N 
ATOM      7  H6  UNL     1      47.158  27.611  15.481  1.00  0.00     0.189 HD
HETATM    8  C5  UNL     1      48.733  28.612  14.430  1.00  0.00     0.216 A 
HETATM    9  N7  UNL     1      49.087  29.116  13.285  1.00  0.00    -0.185 N 
ATOM     10  H7  UNL     1      50.012  29.539  13.201  1.00  0.00     0.185 HD
ENDROOT
BRANCH   1  11
HETATM   11  N3  UNL     1      48.679  29.677  10.893  1.00  0.00    -0.224 N 
ATOM     12  H3  UNL     1      49.272  30.507  10.907  1.00  0.00     0.177 HD
BRANCH  11  13
HETATM   13  C3  UNL     1      48.301  29.107   9.629  1.00  0.00     0.145 C 
BRANCH  13  14
HETATM   14  C2  UNL     1      47.722  30.192   8.753  1.00  0.00     0.092 C 
BRANCH  14  15
HETATM   15  C1  UNL     1      46.362  30.583   9.135  1.00  0.00     0.088 C 
HETATM   16  N1  UNL     1      45.960  31.781   8.915  1.00  0.00    -0.391 N 
ATOM     17  H12 UNL     1      45.014  32.053   9.181  1.00  0.00     0.157 HD
ATOM     18  H11 UNL     1      46.581  32.461   8.476  1.00  0.00     0.157 HD
HETATM   19  N2  UNL     1      45.509  29.647   9.738  1.00  0.00    -0.088 NA
ENDBRANCH  14  15
ENDBRANCH  13  14
ENDBRANCH  11  13
ENDBRANCH   1  11
TORSDOF 4
ENDMDL
MODEL 2
REMARK VINA RESULT: -5.452644724      0.800      1.365
REMARK  4 active torsions:
REMARK  status: ('A' for Active; 'I' for Inactive)
REMARK    1  A    between atoms: C1_4  and  C2_6 
REMARK    2  A    between atoms: C2_6  and  C3_7 
REMARK    3  A    between atoms: C3_7  and  N3_8 
REMARK    4  A    between atoms: N3_8  and  C4_10 
ROOT
HETATM    1  C4  UNL     1      48.314  29.174  12.146  1.00  0.00     0.694 A 
HETATM    2  N4  UNL     1      49.081  29.182  13.181  1.00  0.00    -0.118 N 
ATOM      3  H4  UNL     1      50.021  29.567  13.083  1.00  0.00     0.207 HD
HETATM    4  N5  UNL     1      48.695  28.693  14.427  1.00  0.00    -0.228 N 
ATOM      5  H5  UNL     1      49.340  28.724  15.216  1.00  0.00     0.209 HD
HETATM    6  N6  UNL     1      47.413  28.159  14.583  1.00  0.00    -0.281 N 
ATOM      7  H6  UNL     1      47.092  27.790  15.478  1.00  0.00     0.189 HD
HETATM    8  C5  UNL     1      46.577  28.155  13.432  1.00  0.00     0.216 A 
HETATM    9  N7  UNL     1      47.008  28.632  12.302  1.00  0.00    -0.185 N 
ATOM     10  H7  UNL     1      46.385  28.616  11.495  1.00  0.00     0.185 HD
ENDROOT
BRANCH   1  11
HETATM   11  N3  UNL     1      48.746  29.691  10.866  1.00  0.00    -0.224 N 
ATOM     12  H3  UNL     1      49.381  30.489  10.840  1.00  0.00     0.177 HD
BRANCH  11  13
HETATM   13  C3  UNL     1      48.303  29.107   9.630  1.00  0.00     0.145 C 
BRANCH  13  14
HETATM   14  C2  UNL     1      47.728  30.192   8.751  1.00  0.00     0.092 C 
BRANCH  14  15
HETATM   15  C1  UNL     1      46.370  30.588   9.131  1.00  0.00     0.088 C 
HETATM   16  N1  UNL     1      45.968  31.785   8.898  1.00  0.00    -0.391 N 
ATOM     17  H12 UNL     1      45.022  32.060   9.163  1.00  0.00     0.157 HD
ATOM     18  H11 UNL     1      46.589  32.460   8.452  1.00  0.00     0.157 HD
HETATM   19  N2  UNL     1      45.516  29.660   9.745  1.00  0.00    -0.088 NA
ENDBRANCH  14  15
ENDBRANCH  13  14
ENDBRANCH  11  13
ENDBRANCH   1  11
TORSDOF 4
ENDMDL
MODEL 3
REMARK VINA RESULT: -5.385951368      1.279      5.021
REMARK  4 active torsions:
REMARK  status: ('A' for Active; 'I' for Inactive)
REMARK    1  A    between atoms: C1_4  and  C2_6 
REMARK    2  A    between atoms: C2_6  and  C3_7 
REMARK    3  A    between atoms: C3_7  and  N3_8 
REMARK    4  A    between atoms: N3_8  and  C4_10 
ROOT
HETATM    1  C4  UNL     1      46.690  28.671  11.478  1.00  0.00     0.694 A 
HETATM    2  N4  UNL     1      45.515  28.917  11.009  1.00  0.00    -0.118 N 
ATOM      3  H4  UNL     1      44.708  28.558  11.518  1.00  0.00     0.207 HD
HETATM    4  N5  UNL     1      45.291  29.646   9.844  1.00  0.00    -0.228 N 
ATOM      5  H5  UNL     1      44.340  29.815   9.516  1.00  0.00     0.209 HD
HETATM    6  N6  UNL     1      46.383  30.145   9.130  1.00  0.00    -0.281 N 
ATOM      7  H6  UNL     1      46.261  30.684   8.272  1.00  0.00     0.189 HD
HETATM    8  C5  UNL     1      47.674  29.865   9.658  1.00  0.00     0.216 A 
HETATM    9  N7  UNL     1      47.804  29.177  10.753  1.00  0.00    -0.185 N 
ATOM     10  H7  UNL     1      48.743  28.994  11.108  1.00  0.00     0.185 HD
ENDROOT
BRANCH   1  11
HETATM   11  N3  UNL     1      46.888  27.909  12.692  1.00  0.00    -0.224 N 
ATOM     12  H3  UNL     1      46.982  26.895  12.634  1.00  0.00     0.177 HD
BRANCH  11  13
HETATM   13  C3  UNL     1      46.957  28.548  13.977  1.00  0.00     0.145 C 
BRANCH  13  14
HETATM   14  C2  UNL     1      48.160  28.022  14.724  1.00  0.00     0.092 C 
BRANCH  14  15
HETATM   15  C1  UNL     1      49.404  28.716  14.382  1.00  0.00     0.088 C 
HETATM   16  N1  UNL     1      50.482  28.440  15.023  1.00  0.00    -0.391 N 
ATOM     17  H12 UNL     1      51.348  28.924  14.785  1.00  0.00     0.157 HD
ATOM     18  H11 UNL     1      50.476  27.743  15.767  1.00  0.00     0.157 HD
HETATM   19  N2  UNL     1      49.413  29.675  13.359  1.00  0.00    -0.088 NA
ENDBRANCH  14  15
ENDBRANCH  13  14
ENDBRANCH  11  13
ENDBRANCH   1  11
TORSDOF 4
ENDMDL
MODEL 4
REMARK VINA RESULT: -5.235914886      1.489      5.174
REMARK  4 active torsions:
REMARK  status: ('A' for Active; 'I' for Inactive)
REMARK    1  A    between atoms: C1_4  and  C2_6 
REMARK    2  A    between atoms: C2_6  and  C3_7 
REMARK    3  A    between atoms: C3_7  and  N3_8 
REMARK    4  A    between atoms: N3_8  and  C4_10 
ROOT
HETATM    1  C4  UNL     1      47.053  28.644  11.453  1.00  0.00     0.694 A 
HETATM    2  N4  UNL     1      48.135  29.017  10.862  1.00  0.00    -0.118 N 
ATOM      3  H4  UNL     1      49.028  28.750  11.276  1.00  0.00     0.207 HD
HETATM    4  N5  UNL     1      48.150  29.767   9.688  1.00  0.00    -0.228 N 
ATOM      5  H5  UNL     1      49.034  30.036   9.259  1.00  0.00     0.209 HD
HETATM    6  N6  UNL     1      46.937  30.145   9.105  1.00  0.00    -0.281 N 
ATOM      7  H6  UNL     1      46.905  30.695   8.246  1.00  0.00     0.189 HD
HETATM    8  C5  UNL     1      45.751  29.727   9.768  1.00  0.00     0.216 A 
HETATM    9  N7  UNL     1      45.817  29.027  10.862  1.00  0.00    -0.185 N 
ATOM     10  H7  UNL     1      44.949  28.741  11.314  1.00  0.00     0.185 HD
ENDROOT
BRANCH   1  11
HETATM   11  N3  UNL     1      47.074  27.864  12.672  1.00  0.00    -0.224 N 
ATOM     12  H3  UNL     1      47.058  26.846  12.613  1.00  0.00     0.177 HD
BRANCH  11  13
HETATM   13  C3  UNL     1      47.116  28.491  13.964  1.00  0.00     0.145 C 
BRANCH  13  14
HETATM   14  C2  UNL     1      48.320  27.979  14.719  1.00  0.00     0.092 C 
BRANCH  14  15
HETATM   15  C1  UNL     1      49.550  28.714  14.417  1.00  0.00     0.088 C 
HETATM   16  N1  UNL     1      50.642  28.399  15.014  1.00  0.00    -0.391 N 
ATOM     17  H12 UNL     1      51.499  28.912  14.803  1.00  0.00     0.157 HD
ATOM     18  H11 UNL     1      50.656  27.642  15.696  1.00  0.00     0.157 HD
HETATM   19  N2  UNL     1      49.530  29.757  13.478  1.00  0.00    -0.088 NA
ENDBRANCH  14  15
ENDBRANCH  13  14
ENDBRANCH  11  13
ENDBRANCH   1  11
TORSDOF 4
ENDMDL
MODEL 5
REMARK VINA RESULT: -5.159563815      1.499      5.215
REMARK  4 active torsions:
REMARK  status: ('A' for Active; 'I' for Inactive)
REMARK    1  A    between atoms: C1_4  and  C2_6 
REMARK    2  A    between atoms: C2_6  and  C3_7 
REMARK    3  A    between atoms: C3_7  and  N3_8 
REMARK    4  A    between atoms: N3_8  and  C4_10 
ROOT
HETATM    1  C4  UNL     1      47.046  28.809  11.088  1.00  0.00     0.694 A 
HETATM    2  N4  UNL     1      48.168  29.048  10.503  1.00  0.00    -0.118 N 
ATOM      3  H4  UNL     1      49.020  28.671  10.918  1.00  0.00     0.207 HD
HETATM    4  N5  UNL     1      48.280  29.796   9.332  1.00  0.00    -0.228 N 
ATOM      5  H5  UNL     1      49.193  29.955   8.907  1.00  0.00     0.209 HD
HETATM    6  N6  UNL     1      47.126  30.325   8.748  1.00  0.00    -0.281 N 
ATOM      7  H6  UNL     1      47.166  30.878   7.892  1.00  0.00     0.189 HD
HETATM    8  C5  UNL     1      45.895  30.054   9.405  1.00  0.00     0.216 A 
HETATM    9  N7  UNL     1      45.870  29.346  10.495  1.00  0.00    -0.185 N 
ATOM     10  H7  UNL     1      44.971  29.168  10.943  1.00  0.00     0.185 HD
ENDROOT
BRANCH   1  11
HETATM   11  N3  UNL     1      46.965  28.028  12.303  1.00  0.00    -0.224 N 
ATOM     12  H3  UNL     1      46.919  27.011  12.239  1.00  0.00     0.177 HD
BRANCH  11  13
HETATM   13  C3  UNL     1      46.948  28.650  13.598  1.00  0.00     0.145 C 
BRANCH  13  14
HETATM   14  C2  UNL     1      48.335  29.157  13.918  1.00  0.00     0.092 C 
BRANCH  14  15
HETATM   15  C1  UNL     1      49.238  28.109  14.403  1.00  0.00     0.088 C 
HETATM   16  N1  UNL     1      50.323  28.435  15.006  1.00  0.00    -0.391 N 
ATOM     17  H12 UNL     1      50.951  27.706  15.343  1.00  0.00     0.157 HD
ATOM     18  H11 UNL     1      50.559  29.417  15.148  1.00  0.00     0.157 HD
HETATM   19  N2  UNL     1      48.912  26.759  14.207  1.00  0.00    -0.088 NA
ENDBRANCH  14  15
ENDBRANCH  13  14
ENDBRANCH  11  13
ENDBRANCH   1  11
TORSDOF 4
ENDMDL
