MODEL 1
REMARK VINA RESULT: -5.889071103      0.000      0.000
REMARK  6 active torsions:
REMARK  status: ('A' for Active; 'I' for Inactive)
REMARK    1  A    between atoms: N1_1  and  C1_4 
REMARK    2  A    between atoms: C2_7  and  N3_8 
REMARK    3  A    between atoms: N3_8  and  C3_10 
REMARK    4  A    between atoms: C3_10  and  C4_11 
REMARK    5  A    between atoms: C4_11  and  C5_12 
REMARK    6  A    between atoms: C5_12  and  N4_13 
ROOT
HETATM    1  C1  UNL     1      47.529  29.256  10.354  1.00  0.00     0.706 A 
HETATM    2  N2  UNL     1      48.192  28.708  11.388  1.00  0.00    -0.020 N 
ATOM      3  H2  UNL     1      49.212  28.735  11.382  1.00  0.00     0.203 HD
HETATM    4  C2  UNL     1      47.570  28.128  12.428  1.00  0.00     0.708 A 
HETATM    5  N5  UNL     1      46.211  28.130  12.363  1.00  0.00    -0.117 N 
ATOM      6  H5  UNL     1      45.685  27.703  13.125  1.00  0.00     0.207 HD
HETATM    7  N6  UNL     1      45.543  28.662  11.356  1.00  0.00    -0.214 N 
ATOM      8  H6  UNL     1      44.522  28.638  11.356  1.00  0.00     0.209 HD
HETATM    9  N7  UNL     1      46.185  29.224  10.351  1.00  0.00    -0.117 N 
ATOM     10  H7  UNL     1      45.665  29.633   9.575  1.00  0.00     0.207 HD
ENDROOT
BRANCH   4  11
HETATM   11  N3  UNL     1      48.243  27.544  13.530  1.00  0.00    -0.224 N 
ATOM     12  H3  UNL     1      48.454  26.547  13.496  1.00  0.00     0.177 HD
BRANCH  11  13
HETATM   13  C3  UNL     1      48.645  28.290  14.694  1.00  0.00     0.140 C 
BRANCH  13  14
HETATM   14  C4  UNL     1      50.085  28.685  14.686  1.00  0.00     0.047 C 
BRANCH  14  15
HETATM   15  C5  UNL     1      50.967  27.753  15.466  1.00  0.00     0.231 C 
BRANCH  15  16
HETATM   16  N4  UNL     1      52.200  28.326  15.892  1.00  0.00    -0.079 N 
ATOM     17  H43 UNL     1      52.145  29.344  15.870  1.00  0.00     0.274 HD
ATOM     18  H42 UNL     1      52.333  28.180  16.893  1.00  0.00     0.274 HD
ATOM     19  H41 UNL     1      53.017  28.004  15.374  1.00  0.00     0.274 HD
ENDBRANCH  15  16
ENDBRANCH  14  15
ENDBRANCH  13  14
ENDBRANCH  11  13
ENDBRANCH   4  11
BRANCH   1  20
HETATM   20  N1  UNL     1      48.120  29.814   9.351  1.00  0.00    -0.233 N 
ATOM     21  H12 UNL     1      49.083  30.124   9.480  1.00  0.00     0.174 HD
ATOM     22  H11 UNL     1      47.671  29.958   8.447  1.00  0.00     0.174 HD
ENDBRANCH   1  20
TORSDOF 6
ENDMDL
MODEL 2
REMARK VINA RESULT: -5.458750729      0.920      1.902
REMARK  6 active torsions:
REMARK  status: ('A' for Active; 'I' for Inactive)
REMARK    1  A    between atoms: N1_1  and  C1_4 
REMARK    2  A    between atoms: C2_7  and  N3_8 
REMARK    3  A    between atoms: N3_8  and  C3_10 
REMARK    4  A    between atoms: C3_10  and  C4_11 
REMARK    5  A    between atoms: C4_11  and  C5_12 
REMARK    6  A    between atoms: C5_12  and  N4_13 
ROOT
HETATM    1  C1  UNL     1      46.078  29.404  10.214  1.00  0.00     0.706 A 
HETATM    2  N2  UNL     1      46.345  28.731  11.347  1.00  0.00    -0.020 N 
ATOM      3  H2  UNL     1      45.565  28.361  11.891  1.00  0.00     0.203 HD
HETATM    4  C2  UNL     1      47.595  28.524  11.796  1.00  0.00     0.708 A 
HETATM    5  N5  UNL     1      48.582  29.048  11.018  1.00  0.00    -0.117 N 
ATOM      6  H5  UNL     1      49.551  28.922  11.310  1.00  0.00     0.207 HD
HETATM    7  N6  UNL     1      48.339  29.711   9.903  1.00  0.00    -0.214 N 
ATOM      8  H6  UNL     1      49.116  30.084   9.356  1.00  0.00     0.209 HD
HETATM    9  N7  UNL     1      47.099  29.896   9.492  1.00  0.00    -0.117 N 
ATOM     10  H7  UNL     1      46.917  30.409   8.630  1.00  0.00     0.207 HD
ENDROOT
BRANCH   4  11
HETATM   11  N3  UNL     1      47.904  27.819  12.985  1.00  0.00    -0.224 N 
ATOM     12  H3  UNL     1      48.122  26.825  12.917  1.00  0.00     0.177 HD
BRANCH  11  13
HETATM   13  C3  UNL     1      47.926  28.437  14.285  1.00  0.00     0.140 C 
BRANCH  13  14
HETATM   14  C4  UNL     1      49.064  27.992  15.143  1.00  0.00     0.047 C 
BRANCH  14  15
HETATM   15  C5  UNL     1      50.379  28.612  14.764  1.00  0.00     0.231 C 
BRANCH  15  16
HETATM   16  N4  UNL     1      51.503  28.086  15.465  1.00  0.00    -0.079 N 
ATOM     17  H43 UNL     1      52.041  28.841  15.891  1.00  0.00     0.274 HD
ATOM     18  H42 UNL     1      51.198  27.593  16.305  1.00  0.00     0.274 HD
ATOM     19  H41 UNL     1      52.110  27.490  14.903  1.00  0.00     0.274 HD
ENDBRANCH  15  16
ENDBRANCH  14  15
ENDBRANCH  13  14
ENDBRANCH  11  13
ENDBRANCH   4  11
BRANCH   1  20
HETATM   20  N1  UNL     1      44.880  29.606   9.778  1.00  0.00    -0.233 N 
ATOM     21  H12 UNL     1      44.764  30.240   8.987  1.00  0.00     0.174 HD
ATOM     22  H11 UNL     1      44.055  29.167  10.186  1.00  0.00     0.174 HD
ENDBRANCH   1  20
TORSDOF 6
ENDMDL
MODEL 3
REMARK VINA RESULT: -5.422670987      3.457      8.839
REMARK  6 active torsions:
REMARK  status: ('A' for Active; 'I' for Inactive)
REMARK    1  A    between atoms: N1_1  and  C1_4 
REMARK    2  A    between atoms: C2_7  and  N3_8 
REMARK    3  A    between atoms: N3_8  and  C3_10 
REMARK    4  A    between atoms: C3_10  and  C4_11 
REMARK    5  A    between atoms: C4_11  and  C5_12 
REMARK    6  A    between atoms: C5_12  and  N4_13 
ROOT
HETATM    1  C1  UNL     1      54.719  28.362  19.737  1.00  0.00     0.706 A 
HETATM    2  N2  UNL     1      53.903  27.793  18.833  1.00  0.00    -0.020 N 
ATOM      3  H2  UNL     1      53.489  26.887  19.052  1.00  0.00     0.203 HD
HETATM    4  C2  UNL     1      53.609  28.366  17.653  1.00  0.00     0.708 A 
HETATM    5  N5  UNL     1      54.199  29.572  17.433  1.00  0.00    -0.117 N 
ATOM      6  H5  UNL     1      54.012  30.053  16.554  1.00  0.00     0.207 HD
HETATM    7  N6  UNL     1      55.003  30.146  18.309  1.00  0.00    -0.214 N 
ATOM      8  H6  UNL     1      55.421  31.052  18.095  1.00  0.00     0.209 HD
HETATM    9  N7  UNL     1      55.271  29.556  19.458  1.00  0.00    -0.117 N 
ATOM     10  H7  UNL     1      55.893  30.003  20.131  1.00  0.00     0.207 HD
ENDROOT
BRANCH   4  11
HETATM   11  N3  UNL     1      52.752  27.788  16.683  1.00  0.00    -0.224 N 
ATOM     12  H3  UNL     1      52.714  26.771  16.615  1.00  0.00     0.177 HD
BRANCH  11  13
HETATM   13  C3  UNL     1      51.935  28.566  15.789  1.00  0.00     0.140 C 
BRANCH  13  14
HETATM   14  C4  UNL     1      50.774  27.812  15.229  1.00  0.00     0.047 C 
BRANCH  14  15
HETATM   15  C5  UNL     1      49.747  28.692  14.574  1.00  0.00     0.231 C 
BRANCH  15  16
HETATM   16  N4  UNL     1      48.400  28.268  14.765  1.00  0.00    -0.079 N 
ATOM     17  H43 UNL     1      47.925  28.178  13.868  1.00  0.00     0.274 HD
ATOM     18  H42 UNL     1      48.374  27.297  15.076  1.00  0.00     0.274 HD
ATOM     19  H41 UNL     1      47.857  28.858  15.396  1.00  0.00     0.274 HD
ENDBRANCH  15  16
ENDBRANCH  14  15
ENDBRANCH  13  14
ENDBRANCH  11  13
ENDBRANCH   4  11
BRANCH   1  20
HETATM   20  N1  UNL     1      55.006  27.818  20.872  1.00  0.00    -0.233 N 
ATOM     21  H12 UNL     1      55.545  26.952  20.860  1.00  0.00     0.174 HD
ATOM     22  H11 UNL     1      54.720  28.211  21.769  1.00  0.00     0.174 HD
ENDBRANCH   1  20
TORSDOF 6
ENDMDL
MODEL 4
REMARK VINA RESULT: -5.350426015      1.615      5.358
REMARK  6 active torsions:
REMARK  status: ('A' for Active; 'I' for Inactive)
REMARK    1  A    between atoms: N1_1  and  C1_4 
REMARK    2  A    between atoms: C2_7  and  N3_8 
REMARK    3  A    between atoms: N3_8  and  C3_10 
REMARK    4  A    between atoms: C3_10  and  C4_11 
REMARK    5  A    between atoms: C4_11  and  C5_12 
REMARK    6  A    between atoms: C5_12  and  N4_13 
ROOT
HETATM    1  C1  UNL     1      49.212  28.594  14.320  1.00  0.00     0.706 A 
HETATM    2  N2  UNL     1      48.884  28.927  13.059  1.00  0.00    -0.020 N 
ATOM      3  H2  UNL     1      49.596  29.355  12.467  1.00  0.00     0.203 HD
HETATM    4  C2  UNL     1      47.660  28.720  12.545  1.00  0.00     0.708 A 
HETATM    5  N5  UNL     1      46.766  28.147  13.395  1.00  0.00    -0.117 N 
ATOM      6  H5  UNL     1      45.820  27.966  13.059  1.00  0.00     0.207 HD
HETATM    7  N6  UNL     1      47.069  27.814  14.636  1.00  0.00    -0.214 N 
ATOM      8  H6  UNL     1      46.361  27.386  15.233  1.00  0.00     0.209 HD
HETATM    9  N7  UNL     1      48.281  28.031  15.109  1.00  0.00    -0.117 N 
ATOM     10  H7  UNL     1      48.510  27.773  16.069  1.00  0.00     0.207 HD
ENDROOT
BRANCH   4  11
HETATM   11  N3  UNL     1      47.289  29.061  11.221  1.00  0.00    -0.224 N 
ATOM     12  H3  UNL     1      46.323  29.337  11.044  1.00  0.00     0.177 HD
BRANCH  11  13
HETATM   13  C3  UNL     1      48.208  29.036  10.113  1.00  0.00     0.140 C 
BRANCH  13  14
HETATM   14  C4  UNL     1      47.801  29.914   8.976  1.00  0.00     0.047 C 
BRANCH  14  15
HETATM   15  C5  UNL     1      46.446  30.539   9.155  1.00  0.00     0.231 C 
BRANCH  15  16
HETATM   16  N4  UNL     1      46.202  31.667   8.320  1.00  0.00    -0.079 N 
ATOM     17  H43 UNL     1      46.793  31.630   7.491  1.00  0.00     0.274 HD
ATOM     18  H42 UNL     1      45.283  31.593   7.883  1.00  0.00     0.274 HD
ATOM     19  H41 UNL     1      46.302  32.568   8.788  1.00  0.00     0.274 HD
ENDBRANCH  15  16
ENDBRANCH  14  15
ENDBRANCH  13  14
ENDBRANCH  11  13
ENDBRANCH   4  11
BRANCH   1  20
HETATM   20  N1  UNL     1      50.385  28.791  14.821  1.00  0.00    -0.233 N 
ATOM     21  H12 UNL     1      51.033  28.003  14.837  1.00  0.00     0.174 HD
ATOM     22  H11 UNL     1      50.689  29.688  15.198  1.00  0.00     0.174 HD
ENDBRANCH   1  20
TORSDOF 6
ENDMDL
MODEL 5
REMARK VINA RESULT: -5.300653266      3.351      8.584
REMARK  6 active torsions:
REMARK  status: ('A' for Active; 'I' for Inactive)
REMARK    1  A    between atoms: N1_1  and  C1_4 
REMARK    2  A    between atoms: C2_7  and  N3_8 
REMARK    3  A    between atoms: N3_8  and  C3_10 
REMARK    4  A    between atoms: C3_10  and  C4_11 
REMARK    5  A    between atoms: C4_11  and  C5_12 
REMARK    6  A    between atoms: C5_12  and  N4_13 
ROOT
HETATM    1  C1  UNL     1      54.893  29.795  19.044  1.00  0.00     0.706 A 
HETATM    2  N2  UNL     1      54.226  29.787  17.877  1.00  0.00    -0.020 N 
ATOM      3  H2  UNL     1      54.261  30.621  17.289  1.00  0.00     0.203 HD
HETATM    4  C2  UNL     1      53.516  28.729  17.449  1.00  0.00     0.708 A 
HETATM    5  N5  UNL     1      53.516  27.657  18.286  1.00  0.00    -0.117 N 
ATOM      6  H5  UNL     1      52.993  26.825  18.013  1.00  0.00     0.207 HD
HETATM    7  N6  UNL     1      54.164  27.646  19.436  1.00  0.00    -0.214 N 
ATOM      8  H6  UNL     1      54.132  26.815  20.028  1.00  0.00     0.209 HD
HETATM    9  N7  UNL     1      54.852  28.702  19.826  1.00  0.00    -0.117 N 
ATOM     10  H7  UNL     1      55.350  28.689  20.715  1.00  0.00     0.207 HD
ENDROOT
BRANCH   4  11
HETATM   11  N3  UNL     1      52.805  28.694  16.224  1.00  0.00    -0.224 N 
ATOM     12  H3  UNL     1      53.177  29.220  15.432  1.00  0.00     0.177 HD
BRANCH  11  13
HETATM   13  C3  UNL     1      51.584  27.954  16.041  1.00  0.00     0.140 C 
BRANCH  13  14
HETATM   14  C4  UNL     1      50.785  28.398  14.860  1.00  0.00     0.047 C 
BRANCH  14  15
HETATM   15  C5  UNL     1      49.301  28.253  15.051  1.00  0.00     0.231 C 
BRANCH  15  16
HETATM   16  N4  UNL     1      48.667  27.391  14.110  1.00  0.00    -0.079 N 
ATOM     17  H43 UNL     1      48.895  26.418  14.310  1.00  0.00     0.274 HD
ATOM     18  H42 UNL     1      47.660  27.371  14.269  1.00  0.00     0.274 HD
ATOM     19  H41 UNL     1      48.869  27.609  13.134  1.00  0.00     0.274 HD
ENDBRANCH  15  16
ENDBRANCH  14  15
ENDBRANCH  13  14
ENDBRANCH  11  13
ENDBRANCH   4  11
BRANCH   1  20
HETATM   20  N1  UNL     1      55.576  30.807  19.461  1.00  0.00    -0.233 N 
ATOM     21  H12 UNL     1      55.557  31.658  18.899  1.00  0.00     0.174 HD
ATOM     22  H11 UNL     1      56.129  30.793  20.318  1.00  0.00     0.174 HD
ENDBRANCH   1  20
TORSDOF 6
ENDMDL
