MODEL 1
REMARK VINA RESULT: -5.297467115      0.000      0.000
REMARK  6 active torsions:
REMARK  status: ('A' for Active; 'I' for Inactive)
REMARK    1  A    between atoms: N1_2  and  C2_5 
REMARK    2  A    between atoms: C2_5  and  C3_6 
REMARK    3  A    between atoms: C3_6  and  N2_7 
REMARK    4  A    between atoms: N2_7  and  C4_9 
REMARK    5  A    between atoms: N6_14  and  C5_15 
REMARK    6  A    between atoms: C5_15  and  N7_16 
ROOT
HETATM    1  C4  UNL     1      47.543  28.769  11.930  1.00  0.00     0.707 A 
HETATM    2  N3  UNL     1      46.458  28.248  12.516  1.00  0.00    -0.117 N 
ATOM      3  H3  UNL     1      46.416  27.914  13.478  1.00  0.00     0.202 HD
HETATM    4  N4  UNL     1      45.443  28.231  11.659  1.00  0.00     0.007 NA
HETATM    5  N5  UNL     1      45.872  28.746  10.508  1.00  0.00     0.011 NA
HETATM    6  N6  UNL     1      47.163  29.075  10.683  1.00  0.00    -0.083 N 
ENDROOT
BRANCH   1   7
HETATM    7  N2  UNL     1      48.712  28.927  12.488  1.00  0.00    -0.222 N 
ATOM      8  H2  UNL     1      49.572  28.795  11.955  1.00  0.00     0.177 HD
BRANCH   7   9
HETATM    9  C3  UNL     1      48.749  29.298  13.898  1.00  0.00     0.165 C 
BRANCH   9  10
HETATM   10  C2  UNL     1      49.537  28.288  14.679  1.00  0.00     0.252 C 
BRANCH  10  11
HETATM   11  N1  UNL     1      50.926  28.649  14.817  1.00  0.00    -0.077 N 
HETATM   12  C1  UNL     1      51.617  27.919  15.837  1.00  0.00     0.267 C 
ATOM     13  H12 UNL     1      51.023  29.653  14.967  1.00  0.00     0.276 HD
ATOM     14  H11 UNL     1      51.411  28.562  13.923  1.00  0.00     0.276 HD
ENDBRANCH  10  11
ENDBRANCH   9  10
ENDBRANCH   7   9
ENDBRANCH   1   7
BRANCH   6  15
HETATM   15  C5  UNL     1      47.999  29.670   9.664  1.00  0.00     0.394 C 
BRANCH  15  16
HETATM   16  N7  UNL     1      47.206  30.472   8.741  1.00  0.00    -0.061 N 
ATOM     17  H73 UNL     1      47.644  31.374   8.554  1.00  0.00     0.276 HD
ATOM     18  H72 UNL     1      47.229  30.089   7.795  1.00  0.00     0.276 HD
ATOM     19  H71 UNL     1      46.250  30.580   9.079  1.00  0.00     0.276 HD
ENDBRANCH  15  16
ENDBRANCH   6  15
TORSDOF 6
ENDMDL
MODEL 2
REMARK VINA RESULT: -5.284519931      1.347      1.630
REMARK  6 active torsions:
REMARK  status: ('A' for Active; 'I' for Inactive)
REMARK    1  A    between atoms: N1_2  and  C2_5 
REMARK    2  A    between atoms: C2_5  and  C3_6 
REMARK    3  A    between atoms: C3_6  and  N2_7 
REMARK    4  A    between atoms: N2_7  and  C4_9 
REMARK    5  A    between atoms: N6_14  and  C5_15 
REMARK    6  A    between atoms: C5_15  and  N7_16 
ROOT
HETATM    1  C4  UNL     1      47.339  29.052  11.379  1.00  0.00     0.707 A 
HETATM    2  N3  UNL     1      46.270  28.509  11.974  1.00  0.00    -0.117 N 
ATOM      3  H3  UNL     1      46.253  28.142  12.925  1.00  0.00     0.202 HD
HETATM    4  N4  UNL     1      45.234  28.517  11.143  1.00  0.00     0.007 NA
HETATM    5  N5  UNL     1      45.633  29.073   9.999  1.00  0.00     0.011 NA
HETATM    6  N6  UNL     1      46.928  29.399  10.154  1.00  0.00    -0.083 N 
ENDROOT
BRANCH   1   7
HETATM    7  N2  UNL     1      48.522  29.195  11.912  1.00  0.00    -0.222 N 
ATOM      8  H2  UNL     1      49.368  29.038  11.366  1.00  0.00     0.177 HD
BRANCH   7   9
HETATM    9  C3  UNL     1      48.593  29.585  13.316  1.00  0.00     0.165 C 
BRANCH   9  10
HETATM   10  C2  UNL     1      49.225  28.491  14.127  1.00  0.00     0.252 C 
BRANCH  10  11
HETATM   11  N1  UNL     1      48.280  27.480  14.531  1.00  0.00    -0.077 N 
HETATM   12  C1  UNL     1      47.270  27.955  15.429  1.00  0.00     0.267 C 
ATOM     13  H12 UNL     1      48.764  26.675  14.929  1.00  0.00     0.276 HD
ATOM     14  H11 UNL     1      47.856  27.038  13.715  1.00  0.00     0.276 HD
ENDBRANCH  10  11
ENDBRANCH   9  10
ENDBRANCH   7   9
ENDBRANCH   1   7
BRANCH   6  15
HETATM   15  C5  UNL     1      47.736  30.031   9.134  1.00  0.00     0.394 C 
BRANCH  15  16
HETATM   16  N7  UNL     1      46.939  30.949   8.330  1.00  0.00    -0.061 N 
ATOM     17  H73 UNL     1      47.359  31.106   7.413  1.00  0.00     0.276 HD
ATOM     18  H72 UNL     1      46.063  30.522   8.029  1.00  0.00     0.276 HD
ATOM     19  H71 UNL     1      46.779  31.825   8.827  1.00  0.00     0.276 HD
ENDBRANCH  15  16
ENDBRANCH   6  15
TORSDOF 6
ENDMDL
MODEL 3
REMARK VINA RESULT: -5.225029645      1.229      1.722
REMARK  6 active torsions:
REMARK  status: ('A' for Active; 'I' for Inactive)
REMARK    1  A    between atoms: N1_2  and  C2_5 
REMARK    2  A    between atoms: C2_5  and  C3_6 
REMARK    3  A    between atoms: C3_6  and  N2_7 
REMARK    4  A    between atoms: N2_7  and  C4_9 
REMARK    5  A    between atoms: N6_14  and  C5_15 
REMARK    6  A    between atoms: C5_15  and  N7_16 
ROOT
HETATM    1  C4  UNL     1      46.596  28.557  11.357  1.00  0.00     0.707 A 
HETATM    2  N3  UNL     1      45.302  28.738  11.067  1.00  0.00    -0.117 N 
ATOM      3  H3  UNL     1      44.523  28.440  11.655  1.00  0.00     0.202 HD
HETATM    4  N4  UNL     1      45.180  29.361   9.901  1.00  0.00     0.007 NA
HETATM    5  N5  UNL     1      46.406  29.588   9.430  1.00  0.00     0.011 NA
HETATM    6  N6  UNL     1      47.270  29.092  10.332  1.00  0.00    -0.083 N 
ENDROOT
BRANCH   1   7
HETATM    7  N2  UNL     1      47.067  27.973  12.426  1.00  0.00    -0.222 N 
ATOM      8  H2  UNL     1      47.363  26.998  12.405  1.00  0.00     0.177 HD
BRANCH   7   9
HETATM    9  C3  UNL     1      47.154  28.761  13.649  1.00  0.00     0.165 C 
BRANCH   9  10
HETATM   10  C2  UNL     1      48.236  28.221  14.539  1.00  0.00     0.252 C 
BRANCH  10  11
HETATM   11  N1  UNL     1      49.500  28.888  14.348  1.00  0.00    -0.077 N 
HETATM   12  C1  UNL     1      50.578  28.312  15.094  1.00  0.00     0.267 C 
ATOM     13  H12 UNL     1      49.414  29.883  14.552  1.00  0.00     0.276 HD
ATOM     14  H11 UNL     1      49.735  28.935  13.356  1.00  0.00     0.276 HD
ENDBRANCH  10  11
ENDBRANCH   9  10
ENDBRANCH   7   9
ENDBRANCH   1   7
BRANCH   6  15
HETATM   15  C5  UNL     1      48.709  29.140  10.195  1.00  0.00     0.394 C 
BRANCH  15  16
HETATM   16  N7  UNL     1      49.298  30.036  11.181  1.00  0.00    -0.061 N 
ATOM     17  H73 UNL     1      48.586  30.459  11.777  1.00  0.00     0.276 HD
ATOM     18  H72 UNL     1      49.814  29.522  11.895  1.00  0.00     0.276 HD
ATOM     19  H71 UNL     1      49.881  30.742  10.731  1.00  0.00     0.276 HD
ENDBRANCH  15  16
ENDBRANCH   6  15
TORSDOF 6
ENDMDL
MODEL 4
REMARK VINA RESULT: -5.212883003      0.951      1.016
REMARK  6 active torsions:
REMARK  status: ('A' for Active; 'I' for Inactive)
REMARK    1  A    between atoms: N1_2  and  C2_5 
REMARK    2  A    between atoms: C2_5  and  C3_6 
REMARK    3  A    between atoms: C3_6  and  N2_7 
REMARK    4  A    between atoms: N2_7  and  C4_9 
REMARK    5  A    between atoms: N6_14  and  C5_15 
REMARK    6  A    between atoms: C5_15  and  N7_16 
ROOT
HETATM    1  C4  UNL     1      47.777  28.770  12.763  1.00  0.00     0.707 A 
HETATM    2  N3  UNL     1      46.700  28.150  13.261  1.00  0.00    -0.117 N 
ATOM      3  H3  UNL     1      46.559  27.921  14.245  1.00  0.00     0.202 HD
HETATM    4  N4  UNL     1      45.841  27.877  12.285  1.00  0.00     0.007 NA
HETATM    5  N5  UNL     1      46.364  28.325  11.144  1.00  0.00     0.011 NA
HETATM    6  N6  UNL     1      47.553  28.872  11.447  1.00  0.00    -0.083 N 
ENDROOT
BRANCH   1   7
HETATM    7  N2  UNL     1      48.813  29.172  13.447  1.00  0.00    -0.222 N 
ATOM      8  H2  UNL     1      49.271  30.059  13.236  1.00  0.00     0.177 HD
BRANCH   7   9
HETATM    9  C3  UNL     1      49.294  28.313  14.523  1.00  0.00     0.165 C 
BRANCH   9  10
HETATM   10  C2  UNL     1      50.692  28.698  14.909  1.00  0.00     0.252 C 
BRANCH  10  11
HETATM   11  N1  UNL     1      51.463  27.584  15.401  1.00  0.00    -0.077 N 
HETATM   12  C1  UNL     1      52.303  27.906  16.516  1.00  0.00     0.267 C 
ATOM     13  H12 UNL     1      52.010  27.165  14.649  1.00  0.00     0.276 HD
ATOM     14  H11 UNL     1      50.853  26.798  15.628  1.00  0.00     0.276 HD
ENDBRANCH  10  11
ENDBRANCH   9  10
ENDBRANCH   7   9
ENDBRANCH   1   7
BRANCH   6  15
HETATM   15  C5  UNL     1      48.442  29.477  10.480  1.00  0.00     0.394 C 
BRANCH  15  16
HETATM   16  N7  UNL     1      47.721  29.853   9.271  1.00  0.00    -0.061 N 
ATOM     17  H73 UNL     1      46.950  29.213   9.079  1.00  0.00     0.276 HD
ATOM     18  H72 UNL     1      47.183  30.709   9.404  1.00  0.00     0.276 HD
ATOM     19  H71 UNL     1      48.355  29.928   8.475  1.00  0.00     0.276 HD
ENDBRANCH  15  16
ENDBRANCH   6  15
TORSDOF 6
ENDMDL
MODEL 5
REMARK VINA RESULT: -5.075094082      1.557      5.229
REMARK  6 active torsions:
REMARK  status: ('A' for Active; 'I' for Inactive)
REMARK    1  A    between atoms: N1_2  and  C2_5 
REMARK    2  A    between atoms: C2_5  and  C3_6 
REMARK    3  A    between atoms: C3_6  and  N2_7 
REMARK    4  A    between atoms: N2_7  and  C4_9 
REMARK    5  A    between atoms: N6_14  and  C5_15 
REMARK    6  A    between atoms: C5_15  and  N7_16 
ROOT
HETATM    1  C4  UNL     1      48.170  28.747  13.182  1.00  0.00     0.707 A 
HETATM    2  N3  UNL     1      46.980  28.223  13.502  1.00  0.00    -0.117 N 
ATOM      3  H3  UNL     1      46.175  28.176  12.878  1.00  0.00     0.202 HD
HETATM    4  N4  UNL     1      47.003  27.774  14.752  1.00  0.00     0.007 NA
HETATM    5  N5  UNL     1      48.218  28.007  15.247  1.00  0.00     0.011 NA
HETATM    6  N6  UNL     1      48.929  28.604  14.275  1.00  0.00    -0.083 N 
ENDROOT
BRANCH   1   7
HETATM    7  N2  UNL     1      48.487  29.281  12.034  1.00  0.00    -0.222 N 
ATOM      8  H2  UNL     1      49.000  30.161  11.986  1.00  0.00     0.177 HD
BRANCH   7   9
HETATM    9  C3  UNL     1      48.083  28.578  10.822  1.00  0.00     0.165 C 
BRANCH   9  10
HETATM   10  C2  UNL     1      48.027  29.531   9.663  1.00  0.00     0.252 C 
BRANCH  10  11
HETATM   11  N1  UNL     1      46.740  30.166   9.525  1.00  0.00    -0.077 N 
HETATM   12  C1  UNL     1      46.663  31.087   8.430  1.00  0.00     0.267 C 
ATOM     13  H12 UNL     1      46.470  30.622  10.396  1.00  0.00     0.276 HD
ATOM     14  H11 UNL     1      46.000  29.467   9.459  1.00  0.00     0.276 HD
ENDBRANCH  10  11
ENDBRANCH   9  10
ENDBRANCH   7   9
ENDBRANCH   1   7
BRANCH   6  15
HETATM   15  C5  UNL     1      50.307  29.021  14.412  1.00  0.00     0.394 C 
BRANCH  15  16
HETATM   16  N7  UNL     1      51.062  28.072  15.220  1.00  0.00    -0.061 N 
ATOM     17  H73 UNL     1      50.680  27.994  16.162  1.00  0.00     0.276 HD
ATOM     18  H72 UNL     1      50.912  27.112  14.910  1.00  0.00     0.276 HD
ATOM     19  H71 UNL     1      52.054  28.312  15.234  1.00  0.00     0.276 HD
ENDBRANCH  15  16
ENDBRANCH   6  15
TORSDOF 6
ENDMDL
