MODEL 1
REMARK VINA RESULT: -6.766827491      0.000      0.000
REMARK  5 active torsions:
REMARK  status: ('A' for Active; 'I' for Inactive)
REMARK    1  A    between atoms: C3_7  and  C4_8 
REMARK    2  A    between atoms: C4_8  and  N3_9 
REMARK       I    between atoms: N3_9  and  C5_11 
REMARK    3  A    between atoms: C5_11  and  C6_13 
REMARK    4  A    between atoms: C6_13  and  C7_15 
REMARK    5  A    between atoms: C7_15  and  S1_16 
ROOT
HETATM    1  C4  UNL     1      15.137 -10.818  20.452  1.00  0.00     0.182 C 
ENDROOT
BRANCH   1   2
HETATM    2  C3  UNL     1      14.116 -10.569  21.520  1.00  0.00     0.063 A 
HETATM    3  N2  UNL     1      13.825  -9.447  22.176  1.00  0.00    -0.336 N 
HETATM    4  C2  UNL     1      12.806  -9.680  23.054  1.00  0.00     0.156 A 
ATOM      5  H2  UNL     1      14.292  -8.550  22.043  1.00  0.00     0.168 HD
HETATM    6  N1  UNL     1      12.478 -10.976  22.918  1.00  0.00    -0.324 N 
HETATM    7 BR1  UNL     1      12.019  -8.404  24.229  1.00  0.00    -0.010 Br
HETATM    8  C1  UNL     1      11.419 -11.583  23.706  1.00  0.00     0.159 C 
HETATM    9  C9  UNL     1      13.247 -11.550  22.001  1.00  0.00     0.108 A 
HETATM   10 BR3  UNL     1      13.177 -13.368  21.445  1.00  0.00    -0.029 Br
ENDBRANCH   1   2
BRANCH   1  11
HETATM   11  N3  UNL     1      16.452 -11.073  20.961  1.00  0.00    -0.354 N 
HETATM   12  C5  UNL     1      17.560 -11.309  20.099  1.00  0.00     0.233 C 
HETATM   13  O1  UNL     1      17.350 -11.281  18.860  1.00  0.00    -0.272 OA
ATOM     14  H3  UNL     1      16.599 -11.085  21.970  1.00  0.00     0.162 HD
BRANCH  12  15
HETATM   15  C6  UNL     1      18.921 -11.582  20.587  1.00  0.00     0.161 C 
HETATM   16 BR2  UNL     1      20.056 -12.323  19.203  1.00  0.00    -0.080 Br
BRANCH  15  17
HETATM   17  C7  UNL     1      18.921 -12.586  21.736  1.00  0.00     0.133 C 
BRANCH  17  18
HETATM   18  S1  UNL     1      20.135 -13.819  21.335  1.00  0.00     0.012 S 
HETATM   19  C8  UNL     1      19.463 -15.449  21.539  1.00  0.00     0.127 C 
HETATM   20  O2  UNL     1      21.471 -13.644  22.315  1.00  0.00    -0.258 OA
ENDBRANCH  17  18
ENDBRANCH  15  17
ENDBRANCH  12  15
ENDBRANCH   1  11
TORSDOF 5
ENDMDL
MODEL 2
REMARK VINA RESULT: -6.506244332      1.508      1.606
REMARK  5 active torsions:
REMARK  status: ('A' for Active; 'I' for Inactive)
REMARK    1  A    between atoms: C3_7  and  C4_8 
REMARK    2  A    between atoms: C4_8  and  N3_9 
REMARK       I    between atoms: N3_9  and  C5_11 
REMARK    3  A    between atoms: C5_11  and  C6_13 
REMARK    4  A    between atoms: C6_13  and  C7_15 
REMARK    5  A    between atoms: C7_15  and  S1_16 
ROOT
HETATM    1  C4  UNL     1      14.489 -10.515  20.371  1.00  0.00     0.182 C 
ENDROOT
BRANCH   1   2
HETATM    2  C3  UNL     1      13.644 -10.294  21.588  1.00  0.00     0.063 A 
HETATM    3  N2  UNL     1      13.413  -9.177  22.276  1.00  0.00    -0.336 N 
HETATM    4  C2  UNL     1      12.560  -9.441  23.308  1.00  0.00     0.156 A 
ATOM      5  H2  UNL     1      13.815  -8.263  22.064  1.00  0.00     0.168 HD
HETATM    6  N1  UNL     1      12.270 -10.750  23.234  1.00  0.00    -0.324 N 
HETATM    7 BR1  UNL     1      11.918  -8.184  24.586  1.00  0.00    -0.010 Br
HETATM    8  C1  UNL     1      11.378 -11.391  24.185  1.00  0.00     0.159 C 
HETATM    9  C9  UNL     1      12.906 -11.305  22.209  1.00  0.00     0.108 A 
HETATM   10 BR3  UNL     1      12.825 -13.131  21.682  1.00  0.00    -0.029 Br
ENDBRANCH   1   2
BRANCH   1  11
HETATM   11  N3  UNL     1      15.695 -11.245  20.633  1.00  0.00    -0.354 N 
HETATM   12  C5  UNL     1      16.724 -11.373  19.659  1.00  0.00     0.233 C 
HETATM   13  O1  UNL     1      16.546 -10.812  18.547  1.00  0.00    -0.272 OA
ATOM     14  H3  UNL     1      15.819 -11.686  21.545  1.00  0.00     0.162 HD
BRANCH  12  15
HETATM   15  C6  UNL     1      17.970 -12.120  19.890  1.00  0.00     0.161 C 
HETATM   16 BR2  UNL     1      17.647 -13.822  20.757  1.00  0.00    -0.080 Br
BRANCH  15  17
HETATM   17  C7  UNL     1      18.935 -11.350  20.785  1.00  0.00     0.133 C 
BRANCH  17  18
HETATM   18  S1  UNL     1      20.576 -11.805  20.276  1.00  0.00     0.012 S 
HETATM   19  C8  UNL     1      20.586 -12.310  18.574  1.00  0.00     0.127 C 
HETATM   20  O2  UNL     1      21.142 -13.050  21.227  1.00  0.00    -0.258 OA
ENDBRANCH  17  18
ENDBRANCH  15  17
ENDBRANCH  12  15
ENDBRANCH   1  11
TORSDOF 5
ENDMDL
MODEL 3
REMARK VINA RESULT: -6.276314801      3.689      4.707
REMARK  5 active torsions:
REMARK  status: ('A' for Active; 'I' for Inactive)
REMARK    1  A    between atoms: C3_7  and  C4_8 
REMARK    2  A    between atoms: C4_8  and  N3_9 
REMARK       I    between atoms: N3_9  and  C5_11 
REMARK    3  A    between atoms: C5_11  and  C6_13 
REMARK    4  A    between atoms: C6_13  and  C7_15 
REMARK    5  A    between atoms: C7_15  and  S1_16 
ROOT
HETATM    1  C4  UNL     1      15.088 -10.524  20.742  1.00  0.00     0.182 C 
ENDROOT
BRANCH   1   2
HETATM    2  C3  UNL     1      14.020 -10.330  21.775  1.00  0.00     0.063 A 
HETATM    3  N2  UNL     1      13.634  -9.223  22.407  1.00  0.00    -0.336 N 
HETATM    4  C2  UNL     1      12.606  -9.513  23.256  1.00  0.00     0.156 A 
ATOM      5  H2  UNL     1      14.045  -8.298  22.275  1.00  0.00     0.168 HD
HETATM    6  N1  UNL     1      12.370 -10.829  23.129  1.00  0.00    -0.324 N 
HETATM    7 BR1  UNL     1      11.700  -8.279  24.389  1.00  0.00    -0.010 Br
HETATM    8  C1  UNL     1      11.330 -11.497  23.893  1.00  0.00     0.159 C 
HETATM    9  C9  UNL     1      13.204 -11.362  22.244  1.00  0.00     0.108 A 
HETATM   10 BR3  UNL     1      13.272 -13.187  21.712  1.00  0.00    -0.029 Br
ENDBRANCH   1   2
BRANCH   1  11
HETATM   11  N3  UNL     1      14.640 -11.226  19.576  1.00  0.00    -0.354 N 
HETATM   12  C5  UNL     1      15.476 -11.405  18.438  1.00  0.00     0.233 C 
HETATM   13  O1  UNL     1      16.638 -10.929  18.488  1.00  0.00    -0.272 OA
ATOM     14  H3  UNL     1      13.695 -11.609  19.561  1.00  0.00     0.162 HD
BRANCH  12  15
HETATM   15  C6  UNL     1      15.046 -12.113  17.221  1.00  0.00     0.161 C 
HETATM   16 BR2  UNL     1      14.844 -14.016  17.519  1.00  0.00    -0.080 Br
BRANCH  15  17
HETATM   17  C7  UNL     1      16.054 -11.952  16.087  1.00  0.00     0.133 C 
BRANCH  17  18
HETATM   18  S1  UNL     1      15.189 -11.174  14.744  1.00  0.00     0.012 S 
HETATM   19  C8  UNL     1      16.206 -11.123  13.290  1.00  0.00     0.127 C 
HETATM   20  O2  UNL     1      14.752  -9.624  15.170  1.00  0.00    -0.258 OA
ENDBRANCH  17  18
ENDBRANCH  15  17
ENDBRANCH  12  15
ENDBRANCH   1  11
TORSDOF 5
ENDMDL
MODEL 4
REMARK VINA RESULT: -6.174052906      3.619      6.564
REMARK  5 active torsions:
REMARK  status: ('A' for Active; 'I' for Inactive)
REMARK    1  A    between atoms: C3_7  and  C4_8 
REMARK    2  A    between atoms: C4_8  and  N3_9 
REMARK       I    between atoms: N3_9  and  C5_11 
REMARK    3  A    between atoms: C5_11  and  C6_13 
REMARK    4  A    between atoms: C6_13  and  C7_15 
REMARK    5  A    between atoms: C7_15  and  S1_16 
ROOT
HETATM    1  C4  UNL     1      17.142 -13.988  22.227  1.00  0.00     0.182 C 
ENDROOT
BRANCH   1   2
HETATM    2  C3  UNL     1      18.383 -13.945  23.064  1.00  0.00     0.063 A 
HETATM    3  N2  UNL     1      18.519 -13.915  24.389  1.00  0.00    -0.336 N 
HETATM    4  C2  UNL     1      19.845 -13.899  24.715  1.00  0.00     0.156 A 
ATOM      5  H2  UNL     1      17.749 -13.904  25.058  1.00  0.00     0.168 HD
HETATM    6  N1  UNL     1      20.520 -13.923  23.554  1.00  0.00    -0.324 N 
HETATM    7 BR1  UNL     1      20.570 -13.855  26.475  1.00  0.00    -0.010 Br
HETATM    8  C1  UNL     1      21.972 -13.915  23.514  1.00  0.00     0.159 C 
HETATM    9  C9  UNL     1      19.674 -13.950  22.531  1.00  0.00     0.108 A 
HETATM   10 BR3  UNL     1      20.134 -13.990  20.686  1.00  0.00    -0.029 Br
ENDBRANCH   1   2
BRANCH   1  11
HETATM   11  N3  UNL     1      16.871 -12.763  21.535  1.00  0.00    -0.354 N 
HETATM   12  C5  UNL     1      15.559 -12.218  21.455  1.00  0.00     0.233 C 
HETATM   13  O1  UNL     1      14.631 -12.848  22.023  1.00  0.00    -0.272 OA
ATOM     14  H3  UNL     1      17.641 -12.266  21.088  1.00  0.00     0.162 HD
BRANCH  12  15
HETATM   15  C6  UNL     1      15.243 -10.967  20.747  1.00  0.00     0.161 C 
HETATM   16 BR2  UNL     1      13.986  -9.870  21.730  1.00  0.00    -0.080 Br
BRANCH  15  17
HETATM   17  C7  UNL     1      14.617 -11.232  19.381  1.00  0.00     0.133 C 
BRANCH  17  18
HETATM   18  S1  UNL     1      15.952 -11.626  18.276  1.00  0.00     0.012 S 
HETATM   19  C8  UNL     1      15.990 -13.368  17.936  1.00  0.00     0.127 C 
HETATM   20  O2  UNL     1      17.404 -11.160  18.948  1.00  0.00    -0.258 OA
ENDBRANCH  17  18
ENDBRANCH  15  17
ENDBRANCH  12  15
ENDBRANCH   1  11
TORSDOF 5
ENDMDL
MODEL 5
REMARK VINA RESULT: -6.110765906      3.979      7.273
REMARK  5 active torsions:
REMARK  status: ('A' for Active; 'I' for Inactive)
REMARK    1  A    between atoms: C3_7  and  C4_8 
REMARK    2  A    between atoms: C4_8  and  N3_9 
REMARK       I    between atoms: N3_9  and  C5_11 
REMARK    3  A    between atoms: C5_11  and  C6_13 
REMARK    4  A    between atoms: C6_13  and  C7_15 
REMARK    5  A    between atoms: C7_15  and  S1_16 
ROOT
HETATM    1  C4  UNL     1      17.355 -12.919  21.314  1.00  0.00     0.182 C 
ENDROOT
BRANCH   1   2
HETATM    2  C3  UNL     1      18.277 -13.442  22.371  1.00  0.00     0.063 A 
HETATM    3  N2  UNL     1      17.998 -13.983  23.556  1.00  0.00    -0.336 N 
HETATM    4  C2  UNL     1      19.157 -14.337  24.185  1.00  0.00     0.156 A 
ATOM      5  H2  UNL     1      17.060 -14.113  23.936  1.00  0.00     0.168 HD
HETATM    6  N1  UNL     1      20.157 -14.000  23.353  1.00  0.00    -0.324 N 
HETATM    7 BR1  UNL     1      19.304 -15.148  25.901  1.00  0.00    -0.010 Br
HETATM    8  C1  UNL     1      21.549 -14.232  23.696  1.00  0.00     0.159 C 
HETATM    9  C9  UNL     1      19.668 -13.455  22.245  1.00  0.00     0.108 A 
HETATM   10 BR3  UNL     1      20.673 -12.813  20.763  1.00  0.00    -0.029 Br
ENDBRANCH   1   2
BRANCH   1  11
HETATM   11  N3  UNL     1      15.983 -12.855  21.727  1.00  0.00    -0.354 N 
HETATM   12  C5  UNL     1      15.165 -11.725  21.446  1.00  0.00     0.233 C 
HETATM   13  O1  UNL     1      15.684 -10.773  20.810  1.00  0.00    -0.272 OA
ATOM     14  H3  UNL     1      15.582 -13.642  22.236  1.00  0.00     0.162 HD
BRANCH  12  15
HETATM   15  C6  UNL     1      13.757 -11.622  21.862  1.00  0.00     0.161 C 
HETATM   16 BR2  UNL     1      12.564 -12.511  20.621  1.00  0.00    -0.080 Br
BRANCH  15  17
HETATM   17  C7  UNL     1      13.296 -10.170  21.946  1.00  0.00     0.133 C 
BRANCH  17  18
HETATM   18  S1  UNL     1      11.942 -10.132  23.097  1.00  0.00     0.012 S 
HETATM   19  C8  UNL     1      12.076  -8.727  24.174  1.00  0.00     0.127 C 
HETATM   20  O2  UNL     1      11.928 -11.528  24.006  1.00  0.00    -0.258 OA
ENDBRANCH  17  18
ENDBRANCH  15  17
ENDBRANCH  12  15
ENDBRANCH   1  11
TORSDOF 5
ENDMDL
