MODEL 1
REMARK VINA RESULT: -6.796205310      0.000      0.000
REMARK  7 active torsions:
REMARK  status: ('A' for Active; 'I' for Inactive)
REMARK       I    between atoms: N1_2  and  C2_4 
REMARK    1  A    between atoms: C2_4  and  C3_6 
REMARK    2  A    between atoms: C3_6  and  N2_9 
REMARK       I    between atoms: N2_9  and  C6_11 
REMARK    3  A    between atoms: C6_11  and  C7_13 
REMARK    4  A    between atoms: C7_13  and  C8_14 
REMARK    5  A    between atoms: N4_20  and  C11_21 
REMARK    6  A    between atoms: C11_21  and  C12_22 
REMARK    7  A    between atoms: C13_23  and  C14_24 
ROOT
HETATM    1  C7  UNL     1      15.771 -13.594  21.539  1.00  0.00     0.161 C 
ENDROOT
BRANCH   1   2
HETATM    2  C6  UNL     1      14.546 -12.801  21.260  1.00  0.00     0.224 C 
HETATM    3  N2  UNL     1      14.146 -11.705  22.072  1.00  0.00    -0.343 N 
ATOM      4  H2  UNL     1      14.731 -11.464  22.872  1.00  0.00     0.163 HD
HETATM    5  O2  UNL     1      13.782 -13.065  20.270  1.00  0.00    -0.273 OA
BRANCH   3   6
HETATM    6  C3  UNL     1      12.975 -10.919  21.834  1.00  0.00     0.106 C 
HETATM    7  C4  UNL     1      12.880 -10.456  20.388  1.00  0.00     0.048 C 
HETATM    8  C5  UNL     1      11.696 -11.726  22.100  1.00  0.00     0.048 C 
BRANCH   6   9
HETATM    9  C2  UNL     1      12.930  -9.747  22.731  1.00  0.00     0.244 C 
HETATM   10  N1  UNL     1      11.854  -9.588  23.615  1.00  0.00    -0.363 N 
HETATM   11  C1  UNL     1      11.781  -8.455  24.503  1.00  0.00     0.149 C 
ATOM     12  H1  UNL     1      11.111 -10.286  23.630  1.00  0.00     0.162 HD
HETATM   13  O1  UNL     1      13.855  -8.876  22.715  1.00  0.00    -0.271 OA
ENDBRANCH   6   9
ENDBRANCH   3   6
ENDBRANCH   1   2
BRANCH   1  14
HETATM   14  C8  UNL     1      16.936 -12.771  21.121  1.00  0.00     0.039 A 
HETATM   15  C9  UNL     1      16.927 -11.455  20.654  1.00  0.00     0.116 A 
HETATM   16  N3  UNL     1      18.201 -11.109  20.392  1.00  0.00    -0.344 N 
HETATM   17  C10 UNL     1      19.010 -12.159  20.677  1.00  0.00     0.156 A 
ATOM     18  H3  UNL     1      18.508 -10.203  20.037  1.00  0.00     0.167 HD
HETATM   19 BR1  UNL     1      20.925 -12.187  20.479  1.00  0.00    -0.010 Br
HETATM   20  N4  UNL     1      18.224 -13.157  21.117  1.00  0.00    -0.318 N 
BRANCH  20  21
HETATM   21  C11 UNL     1      18.740 -14.447  21.520  1.00  0.00     0.225 C 
BRANCH  21  22
HETATM   22  C12 UNL     1      19.004 -14.486  22.969  1.00  0.00    -0.086 C 
HETATM   23  C13 UNL     1      19.227 -14.537  24.156  1.00  0.00    -0.094 C 
BRANCH  23  24
HETATM   24  C14 UNL     1      19.498 -14.617  25.605  1.00  0.00     0.178 C 
HETATM   25 BR2  UNL     1      20.917 -13.357  26.051  1.00  0.00    -0.083 Br
ENDBRANCH  23  24
ENDBRANCH  21  22
ENDBRANCH  20  21
ENDBRANCH   1  14
TORSDOF 7
ENDMDL
MODEL 2
REMARK VINA RESULT: -6.758926405      2.929      3.807
REMARK  7 active torsions:
REMARK  status: ('A' for Active; 'I' for Inactive)
REMARK       I    between atoms: N1_2  and  C2_4 
REMARK    1  A    between atoms: C2_4  and  C3_6 
REMARK    2  A    between atoms: C3_6  and  N2_9 
REMARK       I    between atoms: N2_9  and  C6_11 
REMARK    3  A    between atoms: C6_11  and  C7_13 
REMARK    4  A    between atoms: C7_13  and  C8_14 
REMARK    5  A    between atoms: N4_20  and  C11_21 
REMARK    6  A    between atoms: C11_21  and  C12_22 
REMARK    7  A    between atoms: C13_23  and  C14_24 
ROOT
HETATM    1  C7  UNL     1      13.007 -13.860  19.631  1.00  0.00     0.161 C 
ENDROOT
BRANCH   1   2
HETATM    2  C6  UNL     1      13.246 -12.431  19.958  1.00  0.00     0.224 C 
HETATM    3  N2  UNL     1      12.891 -11.868  21.213  1.00  0.00    -0.343 N 
ATOM      4  H2  UNL     1      12.457 -12.476  21.906  1.00  0.00     0.163 HD
HETATM    5  O2  UNL     1      13.788 -11.630  19.123  1.00  0.00    -0.273 OA
BRANCH   3   6
HETATM    6  C3  UNL     1      13.107 -10.497  21.564  1.00  0.00     0.106 C 
HETATM    7  C4  UNL     1      14.581 -10.122  21.526  1.00  0.00     0.048 C 
HETATM    8  C5  UNL     1      12.408  -9.550  20.578  1.00  0.00     0.048 C 
BRANCH   6   9
HETATM    9  C2  UNL     1      12.557 -10.198  22.901  1.00  0.00     0.244 C 
HETATM   10  N1  UNL     1      12.406  -8.866  23.309  1.00  0.00    -0.363 N 
HETATM   11  C1  UNL     1      11.873  -8.540  24.609  1.00  0.00     0.149 C 
ATOM     12  H1  UNL     1      12.679  -8.114  22.676  1.00  0.00     0.162 HD
HETATM   13  O1  UNL     1      12.216 -11.133  23.692  1.00  0.00    -0.271 OA
ENDBRANCH   6   9
ENDBRANCH   3   6
ENDBRANCH   1   2
BRANCH   1  14
HETATM   14  C8  UNL     1      13.914 -14.669  20.487  1.00  0.00     0.039 A 
HETATM   15  C9  UNL     1      13.601 -15.326  21.679  1.00  0.00     0.116 A 
HETATM   16  N3  UNL     1      14.720 -15.932  22.114  1.00  0.00    -0.344 N 
HETATM   17  C10 UNL     1      15.726 -15.680  21.241  1.00  0.00     0.156 A 
ATOM     18  H3  UNL     1      14.799 -16.491  22.964  1.00  0.00     0.167 HD
HETATM   19 BR1  UNL     1      17.536 -16.317  21.399  1.00  0.00    -0.010 Br
HETATM   20  N4  UNL     1      15.217 -14.913  20.261  1.00  0.00    -0.318 N 
BRANCH  20  21
HETATM   21  C11 UNL     1      16.002 -14.441  19.142  1.00  0.00     0.225 C 
BRANCH  21  22
HETATM   22  C12 UNL     1      16.951 -13.394  19.560  1.00  0.00    -0.086 C 
HETATM   23  C13 UNL     1      17.743 -12.549  19.907  1.00  0.00    -0.094 C 
BRANCH  23  24
HETATM   24  C14 UNL     1      18.718 -11.528  20.341  1.00  0.00     0.178 C 
HETATM   25 BR2  UNL     1      20.513 -12.142  19.894  1.00  0.00    -0.083 Br
ENDBRANCH  23  24
ENDBRANCH  21  22
ENDBRANCH  20  21
ENDBRANCH   1  14
TORSDOF 7
ENDMDL
MODEL 3
REMARK VINA RESULT: -6.750253461      2.306      3.044
REMARK  7 active torsions:
REMARK  status: ('A' for Active; 'I' for Inactive)
REMARK       I    between atoms: N1_2  and  C2_4 
REMARK    1  A    between atoms: C2_4  and  C3_6 
REMARK    2  A    between atoms: C3_6  and  N2_9 
REMARK       I    between atoms: N2_9  and  C6_11 
REMARK    3  A    between atoms: C6_11  and  C7_13 
REMARK    4  A    between atoms: C7_13  and  C8_14 
REMARK    5  A    between atoms: N4_20  and  C11_21 
REMARK    6  A    between atoms: C11_21  and  C12_22 
REMARK    7  A    between atoms: C13_23  and  C14_24 
ROOT
HETATM    1  C7  UNL     1      18.059 -11.308  21.180  1.00  0.00     0.161 C 
ENDROOT
BRANCH   1   2
HETATM    2  C6  UNL     1      16.930 -11.397  20.219  1.00  0.00     0.224 C 
HETATM    3  N2  UNL     1      15.864 -12.322  20.380  1.00  0.00    -0.343 N 
ATOM      4  H2  UNL     1      15.886 -12.943  21.189  1.00  0.00     0.163 HD
HETATM    5  O2  UNL     1      16.858 -10.641  19.191  1.00  0.00    -0.273 OA
BRANCH   3   6
HETATM    6  C3  UNL     1      14.760 -12.436  19.476  1.00  0.00     0.106 C 
HETATM    7  C4  UNL     1      15.216 -12.634  18.038  1.00  0.00     0.048 C 
HETATM    8  C5  UNL     1      13.886 -13.653  19.809  1.00  0.00     0.048 C 
BRANCH   6   9
HETATM    9  C2  UNL     1      13.884 -11.250  19.555  1.00  0.00     0.244 C 
HETATM   10  N1  UNL     1      13.274 -10.917  20.771  1.00  0.00    -0.363 N 
HETATM   11  C1  UNL     1      12.412  -9.765  20.882  1.00  0.00     0.149 C 
ATOM     12  H1  UNL     1      13.441 -11.498  21.592  1.00  0.00     0.162 HD
HETATM   13  O1  UNL     1      13.674 -10.523  18.534  1.00  0.00    -0.271 OA
ENDBRANCH   6   9
ENDBRANCH   3   6
ENDBRANCH   1   2
BRANCH   1  14
HETATM   14  C8  UNL     1      18.921 -12.499  20.964  1.00  0.00     0.039 A 
HETATM   15  C9  UNL     1      19.914 -12.670  19.997  1.00  0.00     0.116 A 
HETATM   16  N3  UNL     1      20.437 -13.898  20.164  1.00  0.00    -0.344 N 
HETATM   17  C10 UNL     1      19.810 -14.506  21.201  1.00  0.00     0.156 A 
ATOM     18  H3  UNL     1      21.185 -14.305  19.603  1.00  0.00     0.167 HD
HETATM   19 BR1  UNL     1      20.183 -16.278  21.856  1.00  0.00    -0.010 Br
HETATM   20  N4  UNL     1      18.894 -13.642  21.672  1.00  0.00    -0.318 N 
BRANCH  20  21
HETATM   21  C11 UNL     1      18.026 -13.946  22.788  1.00  0.00     0.225 C 
BRANCH  21  22
HETATM   22  C12 UNL     1      18.796 -14.105  24.035  1.00  0.00    -0.086 C 
HETATM   23  C13 UNL     1      19.440 -14.249  25.048  1.00  0.00    -0.094 C 
BRANCH  23  24
HETATM   24  C14 UNL     1      20.231 -14.441  26.280  1.00  0.00     0.178 C 
HETATM   25 BR2  UNL     1      21.287 -12.836  26.606  1.00  0.00    -0.083 Br
ENDBRANCH  23  24
ENDBRANCH  21  22
ENDBRANCH  20  21
ENDBRANCH   1  14
TORSDOF 7
ENDMDL
MODEL 4
REMARK VINA RESULT: -6.733387811      1.919      2.240
REMARK  7 active torsions:
REMARK  status: ('A' for Active; 'I' for Inactive)
REMARK       I    between atoms: N1_2  and  C2_4 
REMARK    1  A    between atoms: C2_4  and  C3_6 
REMARK    2  A    between atoms: C3_6  and  N2_9 
REMARK       I    between atoms: N2_9  and  C6_11 
REMARK    3  A    between atoms: C6_11  and  C7_13 
REMARK    4  A    between atoms: C7_13  and  C8_14 
REMARK    5  A    between atoms: N4_20  and  C11_21 
REMARK    6  A    between atoms: C11_21  and  C12_22 
REMARK    7  A    between atoms: C13_23  and  C14_24 
ROOT
HETATM    1  C7  UNL     1      17.065 -11.973  21.515  1.00  0.00     0.161 C 
ENDROOT
BRANCH   1   2
HETATM    2  C6  UNL     1      15.580 -11.924  21.508  1.00  0.00     0.224 C 
HETATM    3  N2  UNL     1      14.857 -10.797  21.033  1.00  0.00    -0.343 N 
ATOM      4  H2  UNL     1      15.388  -9.998  20.688  1.00  0.00     0.163 HD
HETATM    5  O2  UNL     1      14.872 -12.900  21.931  1.00  0.00    -0.273 OA
BRANCH   3   6
HETATM    6  C3  UNL     1      13.429 -10.715  21.011  1.00  0.00     0.106 C 
HETATM    7  C4  UNL     1      12.934  -9.605  20.097  1.00  0.00     0.048 C 
HETATM    8  C5  UNL     1      12.802 -12.010  20.474  1.00  0.00     0.048 C 
BRANCH   6   9
HETATM    9  C2  UNL     1      12.887 -10.514  22.369  1.00  0.00     0.244 C 
HETATM   10  N1  UNL     1      12.080 -11.502  22.949  1.00  0.00    -0.363 N 
HETATM   11  C1  UNL     1      11.534 -11.336  24.275  1.00  0.00     0.149 C 
ATOM     12  H1  UNL     1      11.875 -12.353  22.426  1.00  0.00     0.162 HD
HETATM   13  O1  UNL     1      13.141  -9.455  23.024  1.00  0.00    -0.271 OA
ENDBRANCH   6   9
ENDBRANCH   3   6
ENDBRANCH   1   2
BRANCH   1  14
HETATM   14  C8  UNL     1      17.512 -12.058  20.100  1.00  0.00     0.039 A 
HETATM   15  C9  UNL     1      16.732 -12.325  18.973  1.00  0.00     0.116 A 
HETATM   16  N3  UNL     1      17.547 -12.308  17.903  1.00  0.00    -0.344 N 
HETATM   17  C10 UNL     1      18.810 -12.040  18.314  1.00  0.00     0.156 A 
ATOM     18  H3  UNL     1      17.260 -12.470  16.937  1.00  0.00     0.167 HD
HETATM   19 BR1  UNL     1      20.357 -11.903  17.176  1.00  0.00    -0.010 Br
HETATM   20  N4  UNL     1      18.769 -11.893  19.650  1.00  0.00    -0.318 N 
BRANCH  20  21
HETATM   21  C11 UNL     1      19.939 -11.596  20.446  1.00  0.00     0.225 C 
BRANCH  21  22
HETATM   22  C12 UNL     1      20.359 -12.768  21.234  1.00  0.00    -0.086 C 
HETATM   23  C13 UNL     1      20.692 -13.724  21.896  1.00  0.00    -0.094 C 
BRANCH  23  24
HETATM   24  C14 UNL     1      21.094 -14.882  22.719  1.00  0.00     0.178 C 
HETATM   25 BR2  UNL     1      22.204 -14.254  24.192  1.00  0.00    -0.083 Br
ENDBRANCH  23  24
ENDBRANCH  21  22
ENDBRANCH  20  21
ENDBRANCH   1  14
TORSDOF 7
ENDMDL
MODEL 5
REMARK VINA RESULT: -6.716970095      3.041      4.220
REMARK  7 active torsions:
REMARK  status: ('A' for Active; 'I' for Inactive)
REMARK       I    between atoms: N1_2  and  C2_4 
REMARK    1  A    between atoms: C2_4  and  C3_6 
REMARK    2  A    between atoms: C3_6  and  N2_9 
REMARK       I    between atoms: N2_9  and  C6_11 
REMARK    3  A    between atoms: C6_11  and  C7_13 
REMARK    4  A    between atoms: C7_13  and  C8_14 
REMARK    5  A    between atoms: N4_20  and  C11_21 
REMARK    6  A    between atoms: C11_21  and  C12_22 
REMARK    7  A    between atoms: C13_23  and  C14_24 
ROOT
HETATM    1  C7  UNL     1      18.556 -11.832  20.567  1.00  0.00     0.161 C 
ENDROOT
BRANCH   1   2
HETATM    2  C6  UNL     1      17.485 -11.558  19.575  1.00  0.00     0.224 C 
HETATM    3  N2  UNL     1      17.182 -12.454  18.514  1.00  0.00    -0.343 N 
ATOM      4  H2  UNL     1      17.726 -13.313  18.442  1.00  0.00     0.163 HD
HETATM    5  O2  UNL     1      16.777 -10.496  19.623  1.00  0.00    -0.273 OA
BRANCH   3   6
HETATM    6  C3  UNL     1      16.158 -12.224  17.542  1.00  0.00     0.106 C 
HETATM    7  C4  UNL     1      16.572 -11.186  16.509  1.00  0.00     0.048 C 
HETATM    8  C5  UNL     1      15.842 -13.500  16.749  1.00  0.00     0.048 C 
BRANCH   6   9
HETATM    9  C2  UNL     1      14.898 -11.802  18.186  1.00  0.00     0.244 C 
HETATM   10  N1  UNL     1      14.400 -12.524  19.279  1.00  0.00    -0.363 N 
HETATM   11  C1  UNL     1      13.172 -12.139  19.930  1.00  0.00     0.149 C 
ATOM     12  H1  UNL     1      14.915 -13.335  19.619  1.00  0.00     0.162 HD
HETATM   13  O1  UNL     1      14.255 -10.790  17.764  1.00  0.00    -0.271 OA
ENDBRANCH   6   9
ENDBRANCH   3   6
ENDBRANCH   1   2
BRANCH   1  14
HETATM   14  C8  UNL     1      18.123 -13.002  21.375  1.00  0.00     0.039 A 
HETATM   15  C9  UNL     1      16.845 -13.274  21.866  1.00  0.00     0.116 A 
HETATM   16  N3  UNL     1      16.908 -14.435  22.542  1.00  0.00    -0.344 N 
HETATM   17  C10 UNL     1      18.179 -14.903  22.495  1.00  0.00     0.156 A 
ATOM     18  H3  UNL     1      16.126 -14.889  23.014  1.00  0.00     0.167 HD
HETATM   19 BR1  UNL     1      18.806 -16.533  23.306  1.00  0.00    -0.010 Br
HETATM   20  N4  UNL     1      18.901 -14.020  21.784  1.00  0.00    -0.318 N 
BRANCH  20  21
HETATM   21  C11 UNL     1      20.313 -14.188  21.520  1.00  0.00     0.225 C 
BRANCH  21  22
HETATM   22  C12 UNL     1      21.106 -14.044  22.754  1.00  0.00    -0.086 C 
HETATM   23  C13 UNL     1      21.740 -13.931  23.778  1.00  0.00    -0.094 C 
BRANCH  23  24
HETATM   24  C14 UNL     1      22.500 -13.792  25.036  1.00  0.00     0.178 C 
HETATM   25 BR2  UNL     1      21.316 -13.087  26.413  1.00  0.00    -0.083 Br
ENDBRANCH  23  24
ENDBRANCH  21  22
ENDBRANCH  20  21
ENDBRANCH   1  14
TORSDOF 7
ENDMDL
