MODEL 1
REMARK VINA RESULT: -6.609988648      0.000      0.000
REMARK  7 active torsions:
REMARK  status: ('A' for Active; 'I' for Inactive)
REMARK    1  A    between atoms: C3_3  and  N1_4 
REMARK       I    between atoms: N1_4  and  C4_6 
REMARK    2  A    between atoms: C4_6  and  C5_8 
REMARK    3  A    between atoms: C5_8  and  C6_10 
REMARK    4  A    between atoms: C6_10  and  N3_17 
REMARK    5  A    between atoms: C7_11  and  N2_12 
REMARK    6  A    between atoms: N2_12  and  C10_15 
REMARK    7  A    between atoms: N3_17  and  C12_19 
ROOT
HETATM    1  C1  UNL     1      20.413 -11.940  17.381  1.00  0.00     0.014 C 
HETATM    2  C2  UNL     1      20.654 -11.955  18.570  1.00  0.00    -0.098 C 
HETATM    3  C3  UNL     1      20.930 -11.958  19.998  1.00  0.00     0.216 C 
ENDROOT
BRANCH   3   4
HETATM    4  N1  UNL     1      19.906 -12.669  20.739  1.00  0.00    -0.349 N 
HETATM    5  C4  UNL     1      18.692 -12.041  21.101  1.00  0.00     0.238 C 
HETATM    6  O1  UNL     1      18.493 -10.852  20.777  1.00  0.00    -0.272 OA
ATOM      7  H1  UNL     1      20.066 -13.641  21.005  1.00  0.00     0.163 HD
BRANCH   5   8
HETATM    8  C5  UNL     1      17.641 -12.756  21.857  1.00  0.00     0.201 C 
HETATM    9 BR1  UNL     1      18.509 -14.147  22.878  1.00  0.00    -0.074 Br
BRANCH   8  10
HETATM   10  C6  UNL     1      16.613 -13.312  20.940  1.00  0.00     0.058 C 
HETATM   11  C7  UNL     1      16.467 -14.599  20.722  1.00  0.00     0.233 C 
BRANCH  11  12
HETATM   12  N2  UNL     1      15.524 -15.188  19.875  1.00  0.00    -0.034 N 
HETATM   13  C8  UNL     1      15.788 -16.611  19.718  1.00  0.00     0.284 C 
HETATM   14  C9  UNL     1      15.470 -14.594  18.559  1.00  0.00     0.284 C 
BRANCH  12  15
HETATM   15  C10 UNL     1      14.222 -15.083  20.497  1.00  0.00     0.197 C 
HETATM   16  C11 UNL     1      13.954 -15.836  21.551  1.00  0.00     0.038 C 
ENDBRANCH  12  15
ENDBRANCH  11  12
BRANCH  10  17
HETATM   17  N3  UNL     1      15.767 -12.383  20.287  1.00  0.00    -0.342 N 
ATOM     18  H3  UNL     1      15.656 -12.481  19.278  1.00  0.00     0.167 HD
BRANCH  17  19
HETATM   19  C12 UNL     1      15.136 -11.437  20.856  1.00  0.00     0.122 A 
HETATM   20  C13 UNL     1      13.987 -11.595  21.600  1.00  0.00     0.088 A 
HETATM   21  C14 UNL     1      13.578 -10.341  22.068  1.00  0.00     0.098 A 
HETATM   22 BR2  UNL     1      12.048  -9.976  23.148  1.00  0.00    -0.030 Br
HETATM   23  N4  UNL     1      14.492  -9.474  21.591  1.00  0.00    -0.292 N 
HETATM   24  N5  UNL     1      15.404 -10.121  20.880  1.00  0.00    -0.284 N 
ATOM     25  H4  UNL     1      14.484  -8.468  21.753  1.00  0.00     0.187 HD
ATOM     26  H5  UNL     1      16.199  -9.682  20.416  1.00  0.00     0.188 HD
ENDBRANCH  17  19
ENDBRANCH  10  17
ENDBRANCH   8  10
ENDBRANCH   5   8
ENDBRANCH   3   4
TORSDOF 7
ENDMDL
MODEL 2
REMARK VINA RESULT: -6.518448581      1.253      1.855
REMARK  7 active torsions:
REMARK  status: ('A' for Active; 'I' for Inactive)
REMARK    1  A    between atoms: C3_3  and  N1_4 
REMARK       I    between atoms: N1_4  and  C4_6 
REMARK    2  A    between atoms: C4_6  and  C5_8 
REMARK    3  A    between atoms: C5_8  and  C6_10 
REMARK    4  A    between atoms: C6_10  and  N3_17 
REMARK    5  A    between atoms: C7_11  and  N2_12 
REMARK    6  A    between atoms: N2_12  and  C10_15 
REMARK    7  A    between atoms: N3_17  and  C12_19 
ROOT
HETATM    1  C1  UNL     1      20.633 -11.949  17.494  1.00  0.00     0.014 C 
HETATM    2  C2  UNL     1      20.628 -11.985  18.707  1.00  0.00    -0.098 C 
HETATM    3  C3  UNL     1      20.608 -12.013  20.161  1.00  0.00     0.216 C 
ENDROOT
BRANCH   3   4
HETATM    4  N1  UNL     1      19.454 -12.731  20.667  1.00  0.00    -0.349 N 
HETATM    5  C4  UNL     1      18.184 -12.114  20.748  1.00  0.00     0.238 C 
HETATM    6  O1  UNL     1      18.050 -10.930  20.378  1.00  0.00    -0.272 OA
ATOM      7  H1  UNL     1      19.560 -13.699  20.970  1.00  0.00     0.163 HD
BRANCH   5   8
HETATM    8  C5  UNL     1      17.000 -12.836  21.262  1.00  0.00     0.201 C 
HETATM    9 BR1  UNL     1      17.586 -14.594  21.806  1.00  0.00    -0.074 Br
BRANCH   8  10
HETATM   10  C6  UNL     1      15.934 -12.909  20.230  1.00  0.00     0.058 C 
HETATM   11  C7  UNL     1      15.673 -14.001  19.546  1.00  0.00     0.233 C 
BRANCH  11  12
HETATM   12  N2  UNL     1      14.689 -14.139  18.564  1.00  0.00    -0.034 N 
HETATM   13  C8  UNL     1      14.695 -12.997  17.661  1.00  0.00     0.284 C 
HETATM   14  C9  UNL     1      13.353 -14.286  19.093  1.00  0.00     0.284 C 
BRANCH  12  15
HETATM   15  C10 UNL     1      15.008 -15.297  17.756  1.00  0.00     0.197 C 
HETATM   16  C11 UNL     1      15.442 -15.114  16.519  1.00  0.00     0.038 C 
ENDBRANCH  12  15
ENDBRANCH  11  12
BRANCH  10  17
HETATM   17  N3  UNL     1      15.184 -11.732  19.998  1.00  0.00    -0.342 N 
ATOM     18  H3  UNL     1      15.162 -11.372  19.043  1.00  0.00     0.167 HD
BRANCH  17  19
HETATM   19  C12 UNL     1      14.536 -11.086  20.880  1.00  0.00     0.122 A 
HETATM   20  C13 UNL     1      13.479 -11.592  21.606  1.00  0.00     0.088 A 
HETATM   21  C14 UNL     1      13.018 -10.600  22.480  1.00  0.00     0.098 A 
HETATM   22 BR2  UNL     1      11.574 -10.759  23.717  1.00  0.00    -0.030 Br
HETATM   23  N4  UNL     1      13.810  -9.535  22.250  1.00  0.00    -0.292 N 
HETATM   24  N5  UNL     1      14.699  -9.824  21.311  1.00  0.00    -0.284 N 
ATOM     25  H4  UNL     1      13.737  -8.638  22.729  1.00  0.00     0.187 HD
ATOM     26  H5  UNL     1      15.409  -9.179  20.963  1.00  0.00     0.188 HD
ENDBRANCH  17  19
ENDBRANCH  10  17
ENDBRANCH   8  10
ENDBRANCH   5   8
ENDBRANCH   3   4
TORSDOF 7
ENDMDL
MODEL 3
REMARK VINA RESULT: -6.513425070      2.587      4.146
REMARK  7 active torsions:
REMARK  status: ('A' for Active; 'I' for Inactive)
REMARK    1  A    between atoms: C3_3  and  N1_4 
REMARK       I    between atoms: N1_4  and  C4_6 
REMARK    2  A    between atoms: C4_6  and  C5_8 
REMARK    3  A    between atoms: C5_8  and  C6_10 
REMARK    4  A    between atoms: C6_10  and  N3_17 
REMARK    5  A    between atoms: C7_11  and  N2_12 
REMARK    6  A    between atoms: N2_12  and  C10_15 
REMARK    7  A    between atoms: N3_17  and  C12_19 
ROOT
HETATM    1  C1  UNL     1      20.580 -11.933  17.470  1.00  0.00     0.014 C 
HETATM    2  C2  UNL     1      20.484 -12.341  18.609  1.00  0.00    -0.098 C 
HETATM    3  C3  UNL     1      20.359 -12.812  19.979  1.00  0.00     0.216 C 
ENDROOT
BRANCH   3   4
HETATM    4  N1  UNL     1      19.035 -13.341  20.245  1.00  0.00    -0.349 N 
HETATM    5  C4  UNL     1      18.107 -12.630  21.041  1.00  0.00     0.238 C 
HETATM    6  O1  UNL     1      18.430 -11.526  21.526  1.00  0.00    -0.272 OA
ATOM      7  H1  UNL     1      18.768 -14.243  19.850  1.00  0.00     0.163 HD
BRANCH   5   8
HETATM    8  C5  UNL     1      16.754 -13.159  21.319  1.00  0.00     0.201 C 
HETATM    9 BR1  UNL     1      16.473 -14.670  20.149  1.00  0.00    -0.074 Br
BRANCH   8  10
HETATM   10  C6  UNL     1      15.722 -12.110  21.115  1.00  0.00     0.058 C 
HETATM   11  C7  UNL     1      14.588 -12.082  21.777  1.00  0.00     0.233 C 
BRANCH  11  12
HETATM   12  N2  UNL     1      13.576 -11.129  21.635  1.00  0.00    -0.034 N 
HETATM   13  C8  UNL     1      12.771 -11.402  20.453  1.00  0.00     0.284 C 
HETATM   14  C9  UNL     1      14.063  -9.771  21.543  1.00  0.00     0.284 C 
BRANCH  12  15
HETATM   15  C10 UNL     1      12.684 -11.236  22.768  1.00  0.00     0.197 C 
HETATM   16  C11 UNL     1      12.062 -10.150  23.199  1.00  0.00     0.038 C 
ENDBRANCH  12  15
ENDBRANCH  11  12
BRANCH  10  17
HETATM   17  N3  UNL     1      16.006 -11.110  20.154  1.00  0.00    -0.342 N 
ATOM     18  H3  UNL     1      16.393 -10.230  20.496  1.00  0.00     0.167 HD
BRANCH  17  19
HETATM   19  C12 UNL     1      15.819 -11.218  18.901  1.00  0.00     0.122 A 
HETATM   20  C13 UNL     1      16.746 -11.708  18.008  1.00  0.00     0.088 A 
HETATM   21  C14 UNL     1      16.191 -11.679  16.723  1.00  0.00     0.098 A 
HETATM   22 BR2  UNL     1      17.037 -12.243  15.108  1.00  0.00    -0.030 Br
HETATM   23  N4  UNL     1      14.953 -11.175  16.888  1.00  0.00    -0.292 N 
HETATM   24  N5  UNL     1      14.739 -10.906  18.167  1.00  0.00    -0.284 N 
ATOM     25  H4  UNL     1      14.279 -11.023  16.138  1.00  0.00     0.187 HD
ATOM     26  H5  UNL     1      13.874 -10.515  18.542  1.00  0.00     0.188 HD
ENDBRANCH  17  19
ENDBRANCH  10  17
ENDBRANCH   8  10
ENDBRANCH   5   8
ENDBRANCH   3   4
TORSDOF 7
ENDMDL
MODEL 4
REMARK VINA RESULT: -6.448656083      1.641      2.399
REMARK  7 active torsions:
REMARK  status: ('A' for Active; 'I' for Inactive)
REMARK    1  A    between atoms: C3_3  and  N1_4 
REMARK       I    between atoms: N1_4  and  C4_6 
REMARK    2  A    between atoms: C4_6  and  C5_8 
REMARK    3  A    between atoms: C5_8  and  C6_10 
REMARK    4  A    between atoms: C6_10  and  N3_17 
REMARK    5  A    between atoms: C7_11  and  N2_12 
REMARK    6  A    between atoms: N2_12  and  C10_15 
REMARK    7  A    between atoms: N3_17  and  C12_19 
ROOT
HETATM    1  C1  UNL     1      20.632 -11.966  17.684  1.00  0.00     0.014 C 
HETATM    2  C2  UNL     1      20.596 -12.023  18.896  1.00  0.00    -0.098 C 
HETATM    3  C3  UNL     1      20.540 -12.076  20.348  1.00  0.00     0.216 C 
ENDROOT
BRANCH   3   4
HETATM    4  N1  UNL     1      19.355 -12.772  20.813  1.00  0.00    -0.349 N 
HETATM    5  C4  UNL     1      18.086 -12.150  20.799  1.00  0.00     0.238 C 
HETATM    6  O1  UNL     1      17.978 -10.980  20.378  1.00  0.00    -0.272 OA
ATOM      7  H1  UNL     1      19.440 -13.729  21.157  1.00  0.00     0.163 HD
BRANCH   5   8
HETATM    8  C5  UNL     1      16.871 -12.850  21.270  1.00  0.00     0.201 C 
HETATM    9 BR1  UNL     1      17.392 -14.645  21.758  1.00  0.00    -0.074 Br
BRANCH   8  10
HETATM   10  C6  UNL     1      15.819 -12.852  20.222  1.00  0.00     0.058 C 
HETATM   11  C7  UNL     1      15.807 -13.702  19.219  1.00  0.00     0.233 C 
BRANCH  11  12
HETATM   12  N2  UNL     1      14.852 -13.760  18.202  1.00  0.00    -0.034 N 
HETATM   13  C8  UNL     1      14.640 -12.443  17.617  1.00  0.00     0.284 C 
HETATM   14  C9  UNL     1      13.571 -14.272  18.632  1.00  0.00     0.284 C 
BRANCH  12  15
HETATM   15  C10 UNL     1      15.365 -14.598  17.139  1.00  0.00     0.197 C 
HETATM   16  C11 UNL     1      15.796 -14.027  16.026  1.00  0.00     0.038 C 
ENDBRANCH  12  15
ENDBRANCH  11  12
BRANCH  10  17
HETATM   17  N3  UNL     1      14.797 -11.880  20.337  1.00  0.00    -0.342 N 
ATOM     18  H3  UNL     1      14.754 -11.159  19.617  1.00  0.00     0.167 HD
BRANCH  17  19
HETATM   19  C12 UNL     1      13.928 -11.832  21.264  1.00  0.00     0.122 A 
HETATM   20  C13 UNL     1      13.511 -10.679  21.892  1.00  0.00     0.088 A 
HETATM   21  C14 UNL     1      12.550 -11.012  22.853  1.00  0.00     0.098 A 
HETATM   22 BR2  UNL     1      11.638  -9.802  24.013  1.00  0.00    -0.030 Br
HETATM   23  N4  UNL     1      12.422 -12.350  22.771  1.00  0.00    -0.292 N 
HETATM   24  N5  UNL     1      13.232 -12.827  21.838  1.00  0.00    -0.284 N 
ATOM     25  H4  UNL     1      11.793 -12.913  23.343  1.00  0.00     0.187 HD
ATOM     26  H5  UNL     1      13.316 -13.814  21.589  1.00  0.00     0.188 HD
ENDBRANCH  17  19
ENDBRANCH  10  17
ENDBRANCH   8  10
ENDBRANCH   5   8
ENDBRANCH   3   4
TORSDOF 7
ENDMDL
MODEL 5
REMARK VINA RESULT: -6.409169063      1.991      2.438
REMARK  7 active torsions:
REMARK  status: ('A' for Active; 'I' for Inactive)
REMARK    1  A    between atoms: C3_3  and  N1_4 
REMARK       I    between atoms: N1_4  and  C4_6 
REMARK    2  A    between atoms: C4_6  and  C5_8 
REMARK    3  A    between atoms: C5_8  and  C6_10 
REMARK    4  A    between atoms: C6_10  and  N3_17 
REMARK    5  A    between atoms: C7_11  and  N2_12 
REMARK    6  A    between atoms: N2_12  and  C10_15 
REMARK    7  A    between atoms: N3_17  and  C12_19 
ROOT
HETATM    1  C1  UNL     1      20.660 -11.811  16.953  1.00  0.00     0.014 C 
HETATM    2  C2  UNL     1      19.447 -11.789  16.997  1.00  0.00    -0.098 C 
HETATM    3  C3  UNL     1      17.994 -11.783  17.042  1.00  0.00     0.216 C 
ENDROOT
BRANCH   3   4
HETATM    4  N1  UNL     1      17.493 -12.458  18.224  1.00  0.00    -0.349 N 
HETATM    5  C4  UNL     1      16.552 -11.838  19.079  1.00  0.00     0.238 C 
HETATM    6  O1  UNL     1      16.143 -10.689  18.815  1.00  0.00    -0.272 OA
ATOM      7  H1  UNL     1      17.825 -13.397  18.443  1.00  0.00     0.163 HD
BRANCH   5   8
HETATM    8  C5  UNL     1      16.034 -12.516  20.287  1.00  0.00     0.201 C 
HETATM    9 BR1  UNL     1      17.489 -13.532  21.049  1.00  0.00    -0.074 Br
BRANCH   8  10
HETATM   10  C6  UNL     1      14.877 -13.386  19.952  1.00  0.00     0.058 C 
HETATM   11  C7  UNL     1      14.950 -14.698  19.926  1.00  0.00     0.233 C 
BRANCH  11  12
HETATM   12  N2  UNL     1      13.905 -15.573  19.620  1.00  0.00    -0.034 N 
HETATM   13  C8  UNL     1      13.370 -15.296  18.295  1.00  0.00     0.284 C 
HETATM   14  C9  UNL     1      12.812 -15.529  20.564  1.00  0.00     0.284 C 
BRANCH  12  15
HETATM   15  C10 UNL     1      14.435 -16.919  19.571  1.00  0.00     0.197 C 
HETATM   16  C11 UNL     1      15.746 -17.089  19.514  1.00  0.00     0.038 C 
ENDBRANCH  12  15
ENDBRANCH  11  12
BRANCH  10  17
HETATM   17  N3  UNL     1      13.655 -12.739  19.651  1.00  0.00    -0.342 N 
ATOM     18  H3  UNL     1      13.102 -13.118  18.882  1.00  0.00     0.167 HD
BRANCH  17  19
HETATM   19  C12 UNL     1      13.189 -11.725  20.261  1.00  0.00     0.122 A 
HETATM   20  C13 UNL     1      12.766 -11.722  21.572  1.00  0.00     0.088 A 
HETATM   21  C14 UNL     1      12.321 -10.436  21.898  1.00  0.00     0.098 A 
HETATM   22 BR2  UNL     1      11.629  -9.867  23.583  1.00  0.00    -0.030 Br
HETATM   23  N4  UNL     1      12.492  -9.711  20.775  1.00  0.00    -0.292 N 
HETATM   24  N5  UNL     1      13.001 -10.471  19.817  1.00  0.00    -0.284 N 
ATOM     25  H4  UNL     1      12.263  -8.722  20.677  1.00  0.00     0.187 HD
ATOM     26  H5  UNL     1      13.219 -10.149  18.874  1.00  0.00     0.188 HD
ENDBRANCH  17  19
ENDBRANCH  10  17
ENDBRANCH   8  10
ENDBRANCH   5   8
ENDBRANCH   3   4
TORSDOF 7
ENDMDL
