MODEL 1
REMARK VINA RESULT: -7.625094406      0.000      0.000
REMARK  9 active torsions:
REMARK  status: ('A' for Active; 'I' for Inactive)
REMARK    1  A    between atoms: C2_3  and  C3_4 
REMARK    2  A    between atoms: C3_4  and  C4_5 
REMARK    3  A    between atoms: C4_5  and  N2_6 
REMARK    4  A    between atoms: C5_9  and  N4_10 
REMARK    5  A    between atoms: N7_19  and  C8_20 
REMARK    6  A    between atoms: C8_20  and  C9_21 
REMARK    7  A    between atoms: C9_21  and  C10_22 
REMARK    8  A    between atoms: C10_22  and  C11_23 
REMARK    9  A    between atoms: C12_24  and  C13_25 
ROOT
HETATM    1  C1  UNL     1      14.312 -11.479  18.596  1.00  0.00     0.159 C 
HETATM    2  N1  UNL     1      15.668 -11.474  19.168  1.00  0.00    -0.324 N 
HETATM    3  C2  UNL     1      15.841 -11.126  20.449  1.00  0.00     0.093 A 
HETATM    4  C6  UNL     1      17.118 -11.130  20.960  1.00  0.00     0.056 A 
HETATM    5  C7  UNL     1      18.183 -11.481  20.180  1.00  0.00     0.096 A 
HETATM    6  N7  UNL     1      17.979 -11.826  18.895  1.00  0.00    -0.337 N 
HETATM    7  C14 UNL     1      16.720 -11.815  18.416  1.00  0.00     0.158 A 
HETATM    8 BR2  UNL     1      16.447 -12.308  16.589  1.00  0.00    -0.010 Br
ENDROOT
BRANCH   3   9
HETATM    9  C3  UNL     1      14.715 -10.757  21.269  1.00  0.00    -0.022 C 
BRANCH   9  10
HETATM   10  C4  UNL     1      13.778 -10.444  21.977  1.00  0.00     0.062 C 
BRANCH  10  11
HETATM   11  N2  UNL     1      12.706 -10.081  22.816  1.00  0.00    -0.121 N 
HETATM   12  N3  UNL     1      12.599  -8.977  23.555  1.00  0.00    -0.101 N 
HETATM   13  C5  UNL     1      11.433  -8.987  24.219  1.00  0.00     0.708 A 
ATOM     14  H3  UNL     1      13.297  -8.236  23.607  1.00  0.00     0.208 HD
HETATM   15  N5  UNL     1      10.808 -10.119  23.885  1.00  0.00    -0.114 N 
HETATM   16  N6  UNL     1      11.598 -10.761  23.038  1.00  0.00    -0.199 N 
ATOM     17  H5  UNL     1       9.896 -10.431  24.219  1.00  0.00     0.207 HD
ATOM     18  H6  UNL     1      11.379 -11.662  22.614  1.00  0.00     0.211 HD
BRANCH  13  19
HETATM   19  N4  UNL     1      10.955  -8.100  25.036  1.00  0.00    -0.232 N 
ATOM     20  H42 UNL     1      11.517  -7.563  25.697  1.00  0.00     0.174 HD
ATOM     21  H41 UNL     1       9.989  -7.799  25.158  1.00  0.00     0.174 HD
ENDBRANCH  13  19
ENDBRANCH  10  11
ENDBRANCH   9  10
ENDBRANCH   3   9
BRANCH   6  22
HETATM   22  C8  UNL     1      19.118 -12.195  18.079  1.00  0.00     0.131 C 
BRANCH  22  23
HETATM   23  C9  UNL     1      20.329 -12.195  18.987  1.00  0.00     0.024 C 
BRANCH  23  24
HETATM   24  C10 UNL     1      20.342 -13.456  19.862  1.00  0.00     0.028 C 
BRANCH  24  25
HETATM   25  C11 UNL     1      21.001 -13.221  21.140  1.00  0.00    -0.030 C 
HETATM   26  C12 UNL     1      20.526 -13.602  22.302  1.00  0.00    -0.020 C 
BRANCH  26  27
HETATM   27  C13 UNL     1      19.263 -14.324  22.543  1.00  0.00     0.112 C 
HETATM   28 BR1  UNL     1      18.872 -14.259  24.459  1.00  0.00    -0.092 Br
ENDBRANCH  26  27
ENDBRANCH  24  25
ENDBRANCH  23  24
ENDBRANCH  22  23
ENDBRANCH   6  22
TORSDOF 9
ENDMDL
MODEL 2
REMARK VINA RESULT: -7.479106891      4.619      6.809
REMARK  9 active torsions:
REMARK  status: ('A' for Active; 'I' for Inactive)
REMARK    1  A    between atoms: C2_3  and  C3_4 
REMARK    2  A    between atoms: C3_4  and  C4_5 
REMARK    3  A    between atoms: C4_5  and  N2_6 
REMARK    4  A    between atoms: C5_9  and  N4_10 
REMARK    5  A    between atoms: N7_19  and  C8_20 
REMARK    6  A    between atoms: C8_20  and  C9_21 
REMARK    7  A    between atoms: C9_21  and  C10_22 
REMARK    8  A    between atoms: C10_22  and  C11_23 
REMARK    9  A    between atoms: C12_24  and  C13_25 
ROOT
HETATM    1  C1  UNL     1      15.974 -11.831  18.436  1.00  0.00     0.159 C 
HETATM    2  N1  UNL     1      17.440 -11.905  18.320  1.00  0.00    -0.324 N 
HETATM    3  C2  UNL     1      18.004 -11.922  17.105  1.00  0.00     0.093 A 
HETATM    4  C6  UNL     1      19.375 -11.990  17.023  1.00  0.00     0.056 A 
HETATM    5  C7  UNL     1      20.142 -12.040  18.152  1.00  0.00     0.096 A 
HETATM    6  N7  UNL     1      19.548 -12.022  19.359  1.00  0.00    -0.337 N 
HETATM    7  C14 UNL     1      18.203 -11.954  19.415  1.00  0.00     0.158 A 
HETATM    8 BR2  UNL     1      17.374 -11.929  21.138  1.00  0.00    -0.010 Br
ENDROOT
BRANCH   3   9
HETATM    9  C3  UNL     1      17.191 -11.868  15.916  1.00  0.00    -0.022 C 
BRANCH   9  10
HETATM   10  C4  UNL     1      16.492 -11.834  14.922  1.00  0.00     0.062 C 
BRANCH  10  11
HETATM   11  N2  UNL     1      15.663 -11.797  13.784  1.00  0.00    -0.121 N 
HETATM   12  N3  UNL     1      14.850 -10.809  13.411  1.00  0.00    -0.101 N 
HETATM   13  C5  UNL     1      14.225 -11.142  12.271  1.00  0.00     0.708 A 
ATOM     14  H3  UNL     1      14.723  -9.932  13.915  1.00  0.00     0.208 HD
HETATM   15  N5  UNL     1      14.659 -12.359  11.934  1.00  0.00    -0.114 N 
HETATM   16  N6  UNL     1      15.525 -12.731  12.863  1.00  0.00    -0.199 N 
ATOM     17  H5  UNL     1      14.377 -12.899  11.116  1.00  0.00     0.207 HD
ATOM     18  H6  UNL     1      16.020 -13.623  12.867  1.00  0.00     0.211 HD
BRANCH  13  19
HETATM   19  N4  UNL     1      13.361 -10.456  11.588  1.00  0.00    -0.232 N 
ATOM     20  H42 UNL     1      13.598  -9.672  10.980  1.00  0.00     0.174 HD
ATOM     21  H41 UNL     1      12.349 -10.571  11.540  1.00  0.00     0.174 HD
ENDBRANCH  13  19
ENDBRANCH  10  11
ENDBRANCH   9  10
ENDBRANCH   3   9
BRANCH   6  22
HETATM   22  C8  UNL     1      20.374 -12.076  20.548  1.00  0.00     0.131 C 
BRANCH  22  23
HETATM   23  C9  UNL     1      20.598 -13.540  20.862  1.00  0.00     0.024 C 
BRANCH  23  24
HETATM   24  C10 UNL     1      20.962 -13.721  22.341  1.00  0.00     0.028 C 
BRANCH  24  25
HETATM   25  C11 UNL     1      19.776 -13.804  23.184  1.00  0.00    -0.030 C 
HETATM   26  C12 UNL     1      19.788 -14.129  24.455  1.00  0.00    -0.020 C 
BRANCH  26  27
HETATM   27  C13 UNL     1      20.973 -14.467  25.265  1.00  0.00     0.112 C 
HETATM   28 BR1  UNL     1      21.303 -13.001  26.518  1.00  0.00    -0.092 Br
ENDBRANCH  26  27
ENDBRANCH  24  25
ENDBRANCH  23  24
ENDBRANCH  22  23
ENDBRANCH   6  22
TORSDOF 9
ENDMDL
MODEL 3
REMARK VINA RESULT: -7.212977488      4.360      6.768
REMARK  9 active torsions:
REMARK  status: ('A' for Active; 'I' for Inactive)
REMARK    1  A    between atoms: C2_3  and  C3_4 
REMARK    2  A    between atoms: C3_4  and  C4_5 
REMARK    3  A    between atoms: C4_5  and  N2_6 
REMARK    4  A    between atoms: C5_9  and  N4_10 
REMARK    5  A    between atoms: N7_19  and  C8_20 
REMARK    6  A    between atoms: C8_20  and  C9_21 
REMARK    7  A    between atoms: C9_21  and  C10_22 
REMARK    8  A    between atoms: C10_22  and  C11_23 
REMARK    9  A    between atoms: C12_24  and  C13_25 
ROOT
HETATM    1  C1  UNL     1      19.199 -11.949  17.007  1.00  0.00     0.159 C 
HETATM    2  N1  UNL     1      18.292 -12.048  18.163  1.00  0.00    -0.324 N 
HETATM    3  C2  UNL     1      16.968 -12.049  17.962  1.00  0.00     0.093 A 
HETATM    4  C6  UNL     1      16.141 -12.143  19.057  1.00  0.00     0.056 A 
HETATM    5  C7  UNL     1      16.659 -12.233  20.318  1.00  0.00     0.096 A 
HETATM    6  N7  UNL     1      17.993 -12.230  20.489  1.00  0.00    -0.337 N 
HETATM    7  C14 UNL     1      18.783 -12.136  19.402  1.00  0.00     0.158 A 
HETATM    8 BR2  UNL     1      20.678 -12.133  19.663  1.00  0.00    -0.010 Br
ENDROOT
BRANCH   3   9
HETATM    9  C3  UNL     1      16.427 -11.955  16.630  1.00  0.00    -0.022 C 
BRANCH   9  10
HETATM   10  C4  UNL     1      15.974 -11.894  15.503  1.00  0.00     0.062 C 
BRANCH  10  11
HETATM   11  N2  UNL     1      15.429 -11.833  14.206  1.00  0.00    -0.121 N 
HETATM   12  N3  UNL     1      14.693 -10.850  13.686  1.00  0.00    -0.101 N 
HETATM   13  C5  UNL     1      14.358 -11.155  12.422  1.00  0.00     0.708 A 
ATOM     14  H3  UNL     1      14.425  -9.997  14.174  1.00  0.00     0.208 HD
HETATM   15  N5  UNL     1      14.897 -12.347  12.156  1.00  0.00    -0.114 N 
HETATM   16  N6  UNL     1      15.537 -12.734  13.249  1.00  0.00    -0.199 N 
ATOM     17  H5  UNL     1      14.829 -12.862  11.279  1.00  0.00     0.207 HD
ATOM     18  H6  UNL     1      16.046 -13.613  13.339  1.00  0.00     0.211 HD
BRANCH  13  19
HETATM   19  N4  UNL     1      13.654 -10.464  11.580  1.00  0.00    -0.232 N 
ATOM     20  H42 UNL     1      12.747 -10.047  11.791  1.00  0.00     0.174 HD
ATOM     21  H41 UNL     1      13.867 -10.229  10.611  1.00  0.00     0.174 HD
ENDBRANCH  13  19
ENDBRANCH  10  11
ENDBRANCH   9  10
ENDBRANCH   3   9
BRANCH   6  22
HETATM   22  C8  UNL     1      18.527 -12.325  21.833  1.00  0.00     0.131 C 
BRANCH  22  23
HETATM   23  C9  UNL     1      18.212 -13.718  22.335  1.00  0.00     0.024 C 
BRANCH  23  24
HETATM   24  C10 UNL     1      19.128 -14.084  23.510  1.00  0.00     0.028 C 
BRANCH  24  25
HETATM   25  C11 UNL     1      20.535 -13.922  23.170  1.00  0.00    -0.030 C 
HETATM   26  C12 UNL     1      21.530 -14.153  23.993  1.00  0.00    -0.020 C 
BRANCH  26  27
HETATM   27  C13 UNL     1      21.427 -14.611  25.391  1.00  0.00     0.112 C 
HETATM   28 BR1  UNL     1      21.262 -13.039  26.544  1.00  0.00    -0.092 Br
ENDBRANCH  26  27
ENDBRANCH  24  25
ENDBRANCH  23  24
ENDBRANCH  22  23
ENDBRANCH   6  22
TORSDOF 9
ENDMDL
MODEL 4
REMARK VINA RESULT: -7.127522991      4.211      6.122
REMARK  9 active torsions:
REMARK  status: ('A' for Active; 'I' for Inactive)
REMARK    1  A    between atoms: C2_3  and  C3_4 
REMARK    2  A    between atoms: C3_4  and  C4_5 
REMARK    3  A    between atoms: C4_5  and  N2_6 
REMARK    4  A    between atoms: C5_9  and  N4_10 
REMARK    5  A    between atoms: N7_19  and  C8_20 
REMARK    6  A    between atoms: C8_20  and  C9_21 
REMARK    7  A    between atoms: C9_21  and  C10_22 
REMARK    8  A    between atoms: C10_22  and  C11_23 
REMARK    9  A    between atoms: C12_24  and  C13_25 
ROOT
HETATM    1  C1  UNL     1      13.676 -14.656  19.302  1.00  0.00     0.159 C 
HETATM    2  N1  UNL     1      14.244 -13.660  18.378  1.00  0.00    -0.324 N 
HETATM    3  C2  UNL     1      14.109 -12.357  18.651  1.00  0.00     0.093 A 
HETATM    4  C6  UNL     1      14.648 -11.446  17.773  1.00  0.00     0.056 A 
HETATM    5  C7  UNL     1      15.305 -11.861  16.650  1.00  0.00     0.096 A 
HETATM    6  N7  UNL     1      15.425 -13.178  16.400  1.00  0.00    -0.337 N 
HETATM    7  C14 UNL     1      14.888 -14.052  17.274  1.00  0.00     0.158 A 
HETATM    8 BR2  UNL     1      15.068 -15.920  16.905  1.00  0.00    -0.010 Br
ENDROOT
BRANCH   3   9
HETATM    9  C3  UNL     1      13.416 -11.922  19.838  1.00  0.00    -0.022 C 
BRANCH   9  10
HETATM   10  C4  UNL     1      12.817 -11.568  20.835  1.00  0.00     0.062 C 
BRANCH  10  11
HETATM   11  N2  UNL     1      12.141 -11.168  22.004  1.00  0.00    -0.121 N 
HETATM   12  N3  UNL     1      12.234  -9.993  22.627  1.00  0.00    -0.101 N 
HETATM   13  C5  UNL     1      11.437  -9.988  23.707  1.00  0.00     0.708 A 
ATOM     14  H3  UNL     1      12.822  -9.215  22.329  1.00  0.00     0.208 HD
HETATM   15  N5  UNL     1      10.841 -11.182  23.752  1.00  0.00    -0.114 N 
HETATM   16  N6  UNL     1      11.283 -11.874  22.714  1.00  0.00    -0.199 N 
ATOM     17  H5  UNL     1      10.172 -11.500  24.453  1.00  0.00     0.207 HD
ATOM     18  H6  UNL     1      10.998 -12.828  22.492  1.00  0.00     0.211 HD
BRANCH  13  19
HETATM   19  N4  UNL     1      11.245  -9.039  24.570  1.00  0.00    -0.232 N 
ATOM     20  H42 UNL     1      10.726  -8.182  24.379  1.00  0.00     0.174 HD
ATOM     21  H41 UNL     1      11.560  -8.983  25.538  1.00  0.00     0.174 HD
ENDBRANCH  13  19
ENDBRANCH  10  11
ENDBRANCH   9  10
ENDBRANCH   3   9
BRANCH   6  22
HETATM   22  C8  UNL     1      16.123 -13.604  15.204  1.00  0.00     0.131 C 
BRANCH  22  23
HETATM   23  C9  UNL     1      16.259 -12.386  14.316  1.00  0.00     0.024 C 
BRANCH  23  24
HETATM   24  C10 UNL     1      16.694 -12.798  12.904  1.00  0.00     0.028 C 
BRANCH  24  25
HETATM   25  C11 UNL     1      16.779 -11.653  12.007  1.00  0.00    -0.030 C 
HETATM   26  C12 UNL     1      15.891 -11.361  11.087  1.00  0.00    -0.020 C 
BRANCH  26  27
HETATM   27  C13 UNL     1      14.660 -12.114  10.782  1.00  0.00     0.112 C 
HETATM   28 BR1  UNL     1      13.185 -11.321  11.795  1.00  0.00    -0.092 Br
ENDBRANCH  26  27
ENDBRANCH  24  25
ENDBRANCH  23  24
ENDBRANCH  22  23
ENDBRANCH   6  22
TORSDOF 9
ENDMDL
MODEL 5
REMARK VINA RESULT: -7.070885673      4.215      5.728
REMARK  9 active torsions:
REMARK  status: ('A' for Active; 'I' for Inactive)
REMARK    1  A    between atoms: C2_3  and  C3_4 
REMARK    2  A    between atoms: C3_4  and  C4_5 
REMARK    3  A    between atoms: C4_5  and  N2_6 
REMARK    4  A    between atoms: C5_9  and  N4_10 
REMARK    5  A    between atoms: N7_19  and  C8_20 
REMARK    6  A    between atoms: C8_20  and  C9_21 
REMARK    7  A    between atoms: C9_21  and  C10_22 
REMARK    8  A    between atoms: C10_22  and  C11_23 
REMARK    9  A    between atoms: C12_24  and  C13_25 
ROOT
HETATM    1  C1  UNL     1      13.713 -14.595  19.213  1.00  0.00     0.159 C 
HETATM    2  N1  UNL     1      14.255 -13.552  18.326  1.00  0.00    -0.324 N 
HETATM    3  C2  UNL     1      14.083 -12.263  18.644  1.00  0.00     0.093 A 
HETATM    4  C6  UNL     1      14.598 -11.307  17.800  1.00  0.00     0.056 A 
HETATM    5  C7  UNL     1      15.269 -11.665  16.665  1.00  0.00     0.096 A 
HETATM    6  N7  UNL     1      15.427 -12.968  16.371  1.00  0.00    -0.337 N 
HETATM    7  C14 UNL     1      14.913 -13.886  17.212  1.00  0.00     0.158 A 
HETATM    8 BR2  UNL     1      15.146 -15.735  16.779  1.00  0.00    -0.010 Br
ENDROOT
BRANCH   3   9
HETATM    9  C3  UNL     1      13.375 -11.889  19.843  1.00  0.00    -0.022 C 
BRANCH   9  10
HETATM   10  C4  UNL     1      12.782 -11.555  20.850  1.00  0.00     0.062 C 
BRANCH  10  11
HETATM   11  N2  UNL     1      12.117 -11.165  22.029  1.00  0.00    -0.121 N 
HETATM   12  N3  UNL     1      12.203  -9.989  22.651  1.00  0.00    -0.101 N 
HETATM   13  C5  UNL     1      11.420  -9.995  23.742  1.00  0.00     0.708 A 
ATOM     14  H3  UNL     1      12.776  -9.204  22.345  1.00  0.00     0.208 HD
HETATM   15  N5  UNL     1      10.840 -11.197  23.794  1.00  0.00    -0.114 N 
HETATM   16  N6  UNL     1      11.278 -11.882  22.749  1.00  0.00    -0.199 N 
ATOM     17  H5  UNL     1      10.185 -11.524  24.503  1.00  0.00     0.207 HD
ATOM     18  H6  UNL     1      11.002 -12.840  22.531  1.00  0.00     0.211 HD
BRANCH  13  19
HETATM   19  N4  UNL     1      11.227  -9.049  24.608  1.00  0.00    -0.232 N 
ATOM     20  H42 UNL     1      11.951  -8.411  24.937  1.00  0.00     0.174 HD
ATOM     21  H41 UNL     1      10.366  -8.789  25.088  1.00  0.00     0.174 HD
ENDBRANCH  13  19
ENDBRANCH  10  11
ENDBRANCH   9  10
ENDBRANCH   3   9
BRANCH   6  22
HETATM   22  C8  UNL     1      16.140 -13.332  15.163  1.00  0.00     0.131 C 
BRANCH  22  23
HETATM   23  C9  UNL     1      16.417 -12.049  14.411  1.00  0.00     0.024 C 
BRANCH  23  24
HETATM   24  C10 UNL     1      15.799 -12.105  13.008  1.00  0.00     0.028 C 
BRANCH  24  25
HETATM   25  C11 UNL     1      16.721 -11.618  11.990  1.00  0.00    -0.030 C 
HETATM   26  C12 UNL     1      17.453 -12.388  11.221  1.00  0.00    -0.020 C 
BRANCH  26  27
HETATM   27  C13 UNL     1      17.491 -13.862  11.231  1.00  0.00     0.112 C 
HETATM   28 BR1  UNL     1      18.900 -14.434  12.462  1.00  0.00    -0.092 Br
ENDBRANCH  26  27
ENDBRANCH  24  25
ENDBRANCH  23  24
ENDBRANCH  22  23
ENDBRANCH   6  22
TORSDOF 9
ENDMDL
