MODEL 1
REMARK VINA RESULT: -5.892068982      0.000      0.000
REMARK  7 active torsions:
REMARK  status: ('A' for Active; 'I' for Inactive)
REMARK    1  A    between atoms: C2_2  and  N1_3 
REMARK    2  A    between atoms: C2_2  and  C3_7 
REMARK    3  A    between atoms: C3_7  and  N2_8 
REMARK    4  A    between atoms: N3_13  and  C7_14 
REMARK    5  A    between atoms: C7_14  and  O1_15 
REMARK    6  A    between atoms: C7_14  and  C8_17 
REMARK    7  A    between atoms: C11_20  and  C12_21 
ROOT
HETATM    1  N2  UNL     1     -21.175  47.257  50.006  1.00  0.00    -0.344 N 
HETATM    2  C4  UNL     1     -21.676  48.377  50.503  1.00  0.00    -0.068 C 
HETATM    3  C5  UNL     1     -22.207  49.614  50.940  1.00  0.00     0.164 C 
HETATM    4  C6  UNL     1     -22.963  50.177  49.656  1.00  0.00     0.289 C 
HETATM    5  F1  UNL     1     -23.928  50.991  49.953  1.00  0.00    -0.225 F 
HETATM    6  N3  UNL     1     -23.192  49.038  48.762  1.00  0.00    -0.295 N 
HETATM    7  C11 UNL     1     -22.247  48.256  48.010  1.00  0.00     0.100 C 
HETATM    8  C13 UNL     1     -21.653  47.042  48.614  1.00  0.00     0.194 C 
ENDROOT
BRANCH   1   9
HETATM    9  C3  UNL     1     -20.384  46.322  50.578  1.00  0.00     0.164 C 
BRANCH   9  10
HETATM   10  C2  UNL     1     -20.646  46.253  52.089  1.00  0.00     0.198 C 
HETATM   11  C1  UNL     1     -21.004  44.841  52.505  1.00  0.00     0.041 C 
BRANCH  10  12
HETATM   12  N1  UNL     1     -19.432  46.602  52.802  1.00  0.00    -0.074 N 
ATOM     13  H13 UNL     1     -18.743  45.849  52.817  1.00  0.00     0.274 HD
ATOM     14  H12 UNL     1     -18.861  47.290  52.311  1.00  0.00     0.274 HD
ATOM     15  H11 UNL     1     -19.716  46.907  53.733  1.00  0.00     0.274 HD
ENDBRANCH  10  12
ENDBRANCH   9  10
ENDBRANCH   1   9
BRANCH   7  16
HETATM   16  C12 UNL     1     -22.573  48.029  46.611  1.00  0.00     0.279 C 
HETATM   17  N4  UNL     1     -22.990  46.829  45.985  1.00  0.00    -0.056 NA
HETATM   18  O2  UNL     1     -22.484  49.040  45.824  1.00  0.00    -0.270 OA
ENDBRANCH   7  16
BRANCH   6  19
HETATM   19  C7  UNL     1     -24.523  48.643  48.674  1.00  0.00     0.123 C 
BRANCH  19  20
HETATM   20  O1  UNL     1     -24.817  47.585  49.393  1.00  0.00    -0.349 OA
ATOM     21  H1  UNL     1     -25.434  46.993  48.978  1.00  0.00     0.219 HD
ENDBRANCH  19  20
BRANCH  19  22
HETATM   22  C8  UNL     1     -25.679  49.149  47.958  1.00  0.00     0.052 C 
HETATM   23  C9  UNL     1     -25.487  50.332  47.081  1.00  0.00     0.018 C 
HETATM   24  C10 UNL     1     -26.804  49.566  48.954  1.00  0.00     0.018 C 
ENDBRANCH  19  22
ENDBRANCH   6  19
TORSDOF 7
ENDMDL
MODEL 2
REMARK VINA RESULT: -5.718169562      3.810      5.294
REMARK  7 active torsions:
REMARK  status: ('A' for Active; 'I' for Inactive)
REMARK    1  A    between atoms: C2_2  and  N1_3 
REMARK    2  A    between atoms: C2_2  and  C3_7 
REMARK    3  A    between atoms: C3_7  and  N2_8 
REMARK    4  A    between atoms: N3_13  and  C7_14 
REMARK    5  A    between atoms: C7_14  and  O1_15 
REMARK    6  A    between atoms: C7_14  and  C8_17 
REMARK    7  A    between atoms: C11_20  and  C12_21 
ROOT
HETATM    1  N2  UNL     1     -22.959  49.703  50.661  1.00  0.00    -0.344 N 
HETATM    2  C4  UNL     1     -23.989  49.938  49.863  1.00  0.00    -0.068 C 
HETATM    3  C5  UNL     1     -25.147  50.204  49.094  1.00  0.00     0.164 C 
HETATM    4  C6  UNL     1     -25.988  51.202  50.008  1.00  0.00     0.289 C 
HETATM    5  F1  UNL     1     -26.782  51.967  49.325  1.00  0.00    -0.225 F 
HETATM    6  N3  UNL     1     -25.057  51.772  50.986  1.00  0.00    -0.295 N 
HETATM    7  C11 UNL     1     -24.381  51.141  52.088  1.00  0.00     0.100 C 
HETATM    8  C13 UNL     1     -23.043  50.543  51.886  1.00  0.00     0.194 C 
ENDROOT
BRANCH   1   9
HETATM    9  C3  UNL     1     -21.888  48.894  50.494  1.00  0.00     0.164 C 
BRANCH   9  10
HETATM   10  C2  UNL     1     -21.786  47.895  51.655  1.00  0.00     0.198 C 
HETATM   11  C1  UNL     1     -22.443  46.581  51.287  1.00  0.00     0.041 C 
BRANCH  10  12
HETATM   12  N1  UNL     1     -20.389  47.606  51.916  1.00  0.00    -0.074 N 
ATOM     13  H13 UNL     1     -20.134  47.705  52.899  1.00  0.00     0.274 HD
ATOM     14  H12 UNL     1     -20.159  46.616  51.822  1.00  0.00     0.274 HD
ATOM     15  H11 UNL     1     -19.844  48.205  51.296  1.00  0.00     0.274 HD
ENDBRANCH  10  12
ENDBRANCH   9  10
ENDBRANCH   1   9
BRANCH   7  16
HETATM   16  C12 UNL     1     -24.447  51.838  53.363  1.00  0.00     0.279 C 
HETATM   17  N4  UNL     1     -23.466  52.659  53.971  1.00  0.00    -0.056 NA
HETATM   18  O2  UNL     1     -25.532  51.710  54.039  1.00  0.00    -0.270 OA
ENDBRANCH   7  16
BRANCH   6  19
HETATM   19  C7  UNL     1     -24.761  53.115  50.773  1.00  0.00     0.123 C 
BRANCH  19  20
HETATM   20  O1  UNL     1     -23.567  53.329  50.273  1.00  0.00    -0.349 OA
ATOM     21  H1  UNL     1     -23.468  53.052  49.369  1.00  0.00     0.219 HD
ENDBRANCH  19  20
BRANCH  19  22
HETATM   22  C8  UNL     1     -25.490  54.352  50.981  1.00  0.00     0.052 C 
HETATM   23  C9  UNL     1     -26.047  55.036  49.786  1.00  0.00     0.018 C 
HETATM   24  C10 UNL     1     -24.581  55.418  51.666  1.00  0.00     0.018 C 
ENDBRANCH  19  22
ENDBRANCH   6  19
TORSDOF 7
ENDMDL
MODEL 3
REMARK VINA RESULT: -5.594022212      2.225      5.785
REMARK  7 active torsions:
REMARK  status: ('A' for Active; 'I' for Inactive)
REMARK    1  A    between atoms: C2_2  and  N1_3 
REMARK    2  A    between atoms: C2_2  and  C3_7 
REMARK    3  A    between atoms: C3_7  and  N2_8 
REMARK    4  A    between atoms: N3_13  and  C7_14 
REMARK    5  A    between atoms: C7_14  and  O1_15 
REMARK    6  A    between atoms: C7_14  and  C8_17 
REMARK    7  A    between atoms: C11_20  and  C12_21 
ROOT
HETATM    1  N2  UNL     1     -24.241  49.209  47.996  1.00  0.00    -0.344 N 
HETATM    2  C4  UNL     1     -23.460  49.709  48.941  1.00  0.00    -0.068 C 
HETATM    3  C5  UNL     1     -22.673  50.181  50.017  1.00  0.00     0.164 C 
HETATM    4  C6  UNL     1     -22.595  48.935  51.006  1.00  0.00     0.289 C 
HETATM    5  F1  UNL     1     -21.538  48.950  51.758  1.00  0.00    -0.225 F 
HETATM    6  N3  UNL     1     -22.939  47.746  50.220  1.00  0.00    -0.295 N 
HETATM    7  C11 UNL     1     -24.197  47.359  49.640  1.00  0.00     0.100 C 
HETATM    8  C13 UNL     1     -24.528  47.773  48.259  1.00  0.00     0.194 C 
ENDROOT
BRANCH   1   9
HETATM    9  C3  UNL     1     -24.732  49.780  46.872  1.00  0.00     0.164 C 
BRANCH   9  10
HETATM   10  C2  UNL     1     -26.149  50.315  47.120  1.00  0.00     0.198 C 
HETATM   11  C1  UNL     1     -26.160  51.829  47.091  1.00  0.00     0.041 C 
BRANCH  10  12
HETATM   12  N1  UNL     1     -27.022  49.871  46.050  1.00  0.00    -0.074 N 
ATOM     13  H13 UNL     1     -27.902  49.479  46.385  1.00  0.00     0.274 HD
ATOM     14  H12 UNL     1     -27.420  50.640  45.511  1.00  0.00     0.274 HD
ATOM     15  H11 UNL     1     -26.482  49.219  45.481  1.00  0.00     0.274 HD
ENDBRANCH  10  12
ENDBRANCH   9  10
ENDBRANCH   1   9
BRANCH   7  16
HETATM   16  C12 UNL     1     -24.621  45.989  49.883  1.00  0.00     0.279 C 
HETATM   17  N4  UNL     1     -24.595  44.887  48.995  1.00  0.00    -0.056 NA
HETATM   18  O2  UNL     1     -25.075  45.723  51.055  1.00  0.00    -0.270 OA
ENDBRANCH   7  16
BRANCH   6  19
HETATM   19  C7  UNL     1     -21.864  46.898  49.973  1.00  0.00     0.123 C 
BRANCH  19  20
HETATM   20  O1  UNL     1     -21.208  47.171  48.869  1.00  0.00    -0.349 OA
ATOM     21  H1  UNL     1     -20.685  46.449  48.539  1.00  0.00     0.219 HD
ENDBRANCH  19  20
BRANCH  19  22
HETATM   22  C8  UNL     1     -21.293  45.763  50.675  1.00  0.00     0.052 C 
HETATM   23  C9  UNL     1     -21.718  45.533  52.079  1.00  0.00     0.018 C 
HETATM   24  C10 UNL     1     -19.740  45.880  50.739  1.00  0.00     0.018 C 
ENDBRANCH  19  22
ENDBRANCH   6  19
TORSDOF 7
ENDMDL
MODEL 4
REMARK VINA RESULT: -5.574391894      1.145      1.278
REMARK  7 active torsions:
REMARK  status: ('A' for Active; 'I' for Inactive)
REMARK    1  A    between atoms: C2_2  and  N1_3 
REMARK    2  A    between atoms: C2_2  and  C3_7 
REMARK    3  A    between atoms: C3_7  and  N2_8 
REMARK    4  A    between atoms: N3_13  and  C7_14 
REMARK    5  A    between atoms: C7_14  and  O1_15 
REMARK    6  A    between atoms: C7_14  and  C8_17 
REMARK    7  A    between atoms: C11_20  and  C12_21 
ROOT
HETATM    1  N2  UNL     1     -21.928  47.324  50.187  1.00  0.00    -0.344 N 
HETATM    2  C4  UNL     1     -22.111  48.518  50.730  1.00  0.00    -0.068 C 
HETATM    3  C5  UNL     1     -22.286  49.834  51.219  1.00  0.00     0.164 C 
HETATM    4  C6  UNL     1     -22.792  50.646  49.945  1.00  0.00     0.289 C 
HETATM    5  F1  UNL     1     -23.498  51.689  50.258  1.00  0.00    -0.225 F 
HETATM    6  N3  UNL     1     -23.297  49.661  48.984  1.00  0.00    -0.295 N 
HETATM    7  C11 UNL     1     -22.582  48.675  48.219  1.00  0.00     0.100 C 
HETATM    8  C13 UNL     1     -22.385  47.317  48.772  1.00  0.00     0.194 C 
ENDROOT
BRANCH   1   9
HETATM    9  C3  UNL     1     -21.462  46.176  50.731  1.00  0.00     0.164 C 
BRANCH   9  10
HETATM   10  C2  UNL     1     -21.216  46.359  52.235  1.00  0.00     0.198 C 
HETATM   11  C1  UNL     1     -21.656  45.128  53.001  1.00  0.00     0.041 C 
BRANCH  10  12
HETATM   12  N1  UNL     1     -19.793  46.512  52.473  1.00  0.00    -0.074 N 
ATOM     13  H13 UNL     1     -19.305  45.622  52.578  1.00  0.00     0.274 HD
ATOM     14  H12 UNL     1     -19.282  46.844  51.655  1.00  0.00     0.274 HD
ATOM     15  H11 UNL     1     -19.695  47.123  53.283  1.00  0.00     0.274 HD
ENDBRANCH  10  12
ENDBRANCH   9  10
ENDBRANCH   1   9
BRANCH   7  16
HETATM   16  C12 UNL     1     -22.896  48.613  46.800  1.00  0.00     0.279 C 
HETATM   17  N4  UNL     1     -22.929  49.669  45.857  1.00  0.00    -0.056 NA
HETATM   18  O2  UNL     1     -23.177  47.455  46.319  1.00  0.00    -0.270 OA
ENDBRANCH   7  16
BRANCH   6  19
HETATM   19  C7  UNL     1     -24.680  49.669  48.835  1.00  0.00     0.123 C 
BRANCH  19  20
HETATM   20  O1  UNL     1     -25.271  48.577  49.259  1.00  0.00    -0.349 OA
ATOM     21  H1  UNL     1     -25.864  48.714  49.989  1.00  0.00     0.219 HD
ENDBRANCH  19  20
BRANCH  19  22
HETATM   22  C8  UNL     1     -25.632  50.631  48.310  1.00  0.00     0.052 C 
HETATM   23  C9  UNL     1     -26.607  51.226  49.258  1.00  0.00     0.018 C 
HETATM   24  C10 UNL     1     -26.504  49.986  47.190  1.00  0.00     0.018 C 
ENDBRANCH  19  22
ENDBRANCH   6  19
TORSDOF 7
ENDMDL
MODEL 5
REMARK VINA RESULT: -5.548560929      1.914      2.105
REMARK  7 active torsions:
REMARK  status: ('A' for Active; 'I' for Inactive)
REMARK    1  A    between atoms: C2_2  and  N1_3 
REMARK    2  A    between atoms: C2_2  and  C3_7 
REMARK    3  A    between atoms: C3_7  and  N2_8 
REMARK    4  A    between atoms: N3_13  and  C7_14 
REMARK    5  A    between atoms: C7_14  and  O1_15 
REMARK    6  A    between atoms: C7_14  and  C8_17 
REMARK    7  A    between atoms: C11_20  and  C12_21 
ROOT
HETATM    1  N2  UNL     1     -23.099  47.044  51.052  1.00  0.00    -0.344 N 
HETATM    2  C4  UNL     1     -22.805  48.313  51.291  1.00  0.00    -0.068 C 
HETATM    3  C5  UNL     1     -22.444  49.671  51.454  1.00  0.00     0.164 C 
HETATM    4  C6  UNL     1     -22.414  50.237  49.966  1.00  0.00     0.289 C 
HETATM    5  F1  UNL     1     -22.629  51.515  49.905  1.00  0.00    -0.225 F 
HETATM    6  N3  UNL     1     -23.190  49.307  49.140  1.00  0.00    -0.295 N 
HETATM    7  C11 UNL     1     -22.895  47.952  48.758  1.00  0.00     0.100 C 
HETATM    8  C13 UNL     1     -23.364  46.832  49.604  1.00  0.00     0.194 C 
ENDROOT
BRANCH   1   9
HETATM    9  C3  UNL     1     -23.234  46.001  51.903  1.00  0.00     0.164 C 
BRANCH   9  10
HETATM   10  C2  UNL     1     -22.969  46.451  53.346  1.00  0.00     0.198 C 
HETATM   11  C1  UNL     1     -24.001  45.863  54.286  1.00  0.00     0.041 C 
BRANCH  10  12
HETATM   12  N1  UNL     1     -21.678  45.947  53.775  1.00  0.00    -0.074 N 
ATOM     13  H13 UNL     1     -20.996  45.891  53.018  1.00  0.00     0.274 HD
ATOM     14  H12 UNL     1     -21.165  46.604  54.363  1.00  0.00     0.274 HD
ATOM     15  H11 UNL     1     -21.849  45.050  54.229  1.00  0.00     0.274 HD
ENDBRANCH  10  12
ENDBRANCH   9  10
ENDBRANCH   1   9
BRANCH   7  16
HETATM   16  C12 UNL     1     -23.055  47.635  47.348  1.00  0.00     0.279 C 
HETATM   17  N4  UNL     1     -22.261  48.055  46.253  1.00  0.00    -0.056 NA
HETATM   18  O2  UNL     1     -24.037  46.868  47.034  1.00  0.00    -0.270 OA
ENDBRANCH   7  16
BRANCH   6  19
HETATM   19  C7  UNL     1     -24.410  49.815  48.706  1.00  0.00     0.123 C 
BRANCH  19  20
HETATM   20  O1  UNL     1     -24.454  50.083  47.422  1.00  0.00    -0.349 OA
ATOM     21  H1  UNL     1     -24.946  50.867  47.205  1.00  0.00     0.219 HD
ENDBRANCH  19  20
BRANCH  19  22
HETATM   22  C8  UNL     1     -25.668  50.117  49.365  1.00  0.00     0.052 C 
HETATM   23  C9  UNL     1     -26.870  49.355  48.943  1.00  0.00     0.018 C 
HETATM   24  C10 UNL     1     -26.050  51.615  49.161  1.00  0.00     0.018 C 
ENDBRANCH  19  22
ENDBRANCH   6  19
TORSDOF 7
ENDMDL
