MODEL 1
REMARK VINA RESULT: -7.394077518      0.000      0.000
REMARK  4 active torsions:
REMARK  status: ('A' for Active; 'I' for Inactive)
REMARK    1  A    between atoms: C1_2  and  C2_4 
REMARK    2  A    between atoms: C4_6  and  C5_7 
REMARK       I    between atoms: N2_10  and  C6_11 
REMARK    3  A    between atoms: C6_11  and  C7_13 
REMARK    4  A    between atoms: C11_17  and  C12_18 
ROOT
HETATM    1  C2  UNL     1     -23.711  48.716  49.495  1.00  0.00     0.095 C 
HETATM    2  C3  UNL     1     -25.107  48.491  48.962  1.00  0.00     0.051 C 
HETATM    3  C4  UNL     1     -25.772  49.826  48.935  1.00  0.00     0.189 C 
HETATM    4  N2  UNL     1     -24.819  50.716  49.618  1.00  0.00    -0.336 N 
HETATM    5  C6  UNL     1     -25.131  51.795  50.482  1.00  0.00     0.225 C 
HETATM    6  O4  UNL     1     -26.341  52.044  50.700  1.00  0.00    -0.273 OA
HETATM    7  C13 UNL     1     -23.532  50.202  49.176  1.00  0.00     0.140 C 
ENDROOT
BRANCH   3   8
HETATM    8  C5  UNL     1     -26.010  50.324  47.568  1.00  0.00     0.197 C 
HETATM    9  O2  UNL     1     -25.807  49.613  46.556  1.00  0.00    -0.646 OA
HETATM   10  O3  UNL     1     -26.475  51.613  47.367  1.00  0.00    -0.646 OA
ENDBRANCH   3   8
BRANCH   5  11
HETATM   11  C7  UNL     1     -24.136  52.663  51.156  1.00  0.00     0.084 C 
HETATM   12  C8  UNL     1     -23.672  51.939  52.388  1.00  0.00     0.014 C 
HETATM   13  C9  UNL     1     -23.868  52.854  53.574  1.00  0.00     0.001 C 
HETATM   14  C10 UNL     1     -24.083  54.237  52.995  1.00  0.00     0.008 C 
HETATM   15  C11 UNL     1     -24.797  53.890  51.708  1.00  0.00     0.027 C 
BRANCH  15  16
HETATM   16  C12 UNL     1     -24.717  55.079  50.786  1.00  0.00     0.227 C 
HETATM   17  F1  UNL     1     -24.350  56.169  51.570  1.00  0.00    -0.255 F 
ENDBRANCH  15  16
ENDBRANCH   5  11
BRANCH   1  18
HETATM   18  C1  UNL     1     -22.696  47.949  48.763  1.00  0.00     0.236 C 
HETATM   19  N1  UNL     1     -22.442  48.260  47.402  1.00  0.00    -0.062 NA
HETATM   20  O1  UNL     1     -22.070  47.033  49.347  1.00  0.00    -0.276 OA
ENDBRANCH   1  18
TORSDOF 4
ENDMDL
MODEL 2
REMARK VINA RESULT: -7.364083239      0.729      1.021
REMARK  4 active torsions:
REMARK  status: ('A' for Active; 'I' for Inactive)
REMARK    1  A    between atoms: C1_2  and  C2_4 
REMARK    2  A    between atoms: C4_6  and  C5_7 
REMARK       I    between atoms: N2_10  and  C6_11 
REMARK    3  A    between atoms: C6_11  and  C7_13 
REMARK    4  A    between atoms: C11_17  and  C12_18 
ROOT
HETATM    1  C2  UNL     1     -23.751  48.713  49.469  1.00  0.00     0.095 C 
HETATM    2  C3  UNL     1     -25.151  48.496  48.944  1.00  0.00     0.051 C 
HETATM    3  C4  UNL     1     -25.810  49.835  48.925  1.00  0.00     0.189 C 
HETATM    4  N2  UNL     1     -24.848  50.717  49.606  1.00  0.00    -0.336 N 
HETATM    5  C6  UNL     1     -25.149  51.796  50.475  1.00  0.00     0.225 C 
HETATM    6  O4  UNL     1     -26.357  52.049  50.701  1.00  0.00    -0.273 OA
HETATM    7  C13 UNL     1     -23.566  50.198  49.155  1.00  0.00     0.140 C 
ENDROOT
BRANCH   3   8
HETATM    8  C5  UNL     1     -26.054  50.339  47.561  1.00  0.00     0.197 C 
HETATM    9  O2  UNL     1     -26.493  51.494  47.347  1.00  0.00    -0.646 OA
HETATM   10  O3  UNL     1     -25.797  49.535  46.464  1.00  0.00    -0.646 OA
ENDBRANCH   3   8
BRANCH   5  11
HETATM   11  C7  UNL     1     -24.147  52.656  51.146  1.00  0.00     0.084 C 
HETATM   12  C8  UNL     1     -23.679  51.925  52.373  1.00  0.00     0.014 C 
HETATM   13  C9  UNL     1     -23.863  52.837  53.563  1.00  0.00     0.001 C 
HETATM   14  C10 UNL     1     -24.075  54.223  52.991  1.00  0.00     0.008 C 
HETATM   15  C11 UNL     1     -24.798  53.885  51.707  1.00  0.00     0.027 C 
BRANCH  15  16
HETATM   16  C12 UNL     1     -24.717  55.076  50.788  1.00  0.00     0.227 C 
HETATM   17  F1  UNL     1     -24.348  56.163  51.575  1.00  0.00    -0.255 F 
ENDBRANCH  15  16
ENDBRANCH   5  11
BRANCH   1  18
HETATM   18  C1  UNL     1     -22.745  47.943  48.728  1.00  0.00     0.236 C 
HETATM   19  N1  UNL     1     -21.778  47.195  49.447  1.00  0.00    -0.062 NA
HETATM   20  O1  UNL     1     -22.754  47.956  47.474  1.00  0.00    -0.276 OA
ENDBRANCH   1  18
TORSDOF 4
ENDMDL
MODEL 3
REMARK VINA RESULT: -7.141193157      0.801      1.068
REMARK  4 active torsions:
REMARK  status: ('A' for Active; 'I' for Inactive)
REMARK    1  A    between atoms: C1_2  and  C2_4 
REMARK    2  A    between atoms: C4_6  and  C5_7 
REMARK       I    between atoms: N2_10  and  C6_11 
REMARK    3  A    between atoms: C6_11  and  C7_13 
REMARK    4  A    between atoms: C11_17  and  C12_18 
ROOT
HETATM    1  C2  UNL     1     -23.363  48.560  49.687  1.00  0.00     0.095 C 
HETATM    2  C3  UNL     1     -24.738  48.171  49.194  1.00  0.00     0.051 C 
HETATM    3  C4  UNL     1     -25.518  49.437  49.071  1.00  0.00     0.189 C 
HETATM    4  N2  UNL     1     -24.642  50.458  49.667  1.00  0.00    -0.336 N 
HETATM    5  C6  UNL     1     -25.041  51.573  50.447  1.00  0.00     0.225 C 
HETATM    6  O4  UNL     1     -26.267  51.731  50.662  1.00  0.00    -0.273 OA
HETATM    7  C13 UNL     1     -23.318  50.025  49.249  1.00  0.00     0.140 C 
ENDROOT
BRANCH   3   8
HETATM    8  C5  UNL     1     -25.810  49.801  47.673  1.00  0.00     0.197 C 
HETATM    9  O2  UNL     1     -26.466  50.827  47.375  1.00  0.00    -0.646 OA
HETATM   10  O3  UNL     1     -25.358  49.003  46.635  1.00  0.00    -0.646 OA
ENDBRANCH   3   8
BRANCH   5  11
HETATM   11  C7  UNL     1     -24.122  52.575  51.035  1.00  0.00     0.084 C 
HETATM   12  C8  UNL     1     -23.665  52.039  52.362  1.00  0.00     0.014 C 
HETATM   13  C9  UNL     1     -23.955  53.082  53.417  1.00  0.00     0.001 C 
HETATM   14  C10 UNL     1     -24.225  54.366  52.661  1.00  0.00     0.008 C 
HETATM   15  C11 UNL     1     -24.870  53.820  51.407  1.00  0.00     0.027 C 
BRANCH  15  16
HETATM   16  C12 UNL     1     -24.821  54.887  50.345  1.00  0.00     0.227 C 
HETATM   17  F1  UNL     1     -25.965  54.731  49.569  1.00  0.00    -0.255 F 
ENDBRANCH  15  16
ENDBRANCH   5  11
BRANCH   1  18
HETATM   18  C1  UNL     1     -22.291  47.828  49.003  1.00  0.00     0.236 C 
HETATM   19  N1  UNL     1     -22.210  47.880  47.588  1.00  0.00    -0.062 NA
HETATM   20  O1  UNL     1     -21.462  47.169  49.676  1.00  0.00    -0.276 OA
ENDBRANCH   1  18
TORSDOF 4
ENDMDL
MODEL 4
REMARK VINA RESULT: -6.993056067      2.204      3.766
REMARK  4 active torsions:
REMARK  status: ('A' for Active; 'I' for Inactive)
REMARK    1  A    between atoms: C1_2  and  C2_4 
REMARK    2  A    between atoms: C4_6  and  C5_7 
REMARK       I    between atoms: N2_10  and  C6_11 
REMARK    3  A    between atoms: C6_11  and  C7_13 
REMARK    4  A    between atoms: C11_17  and  C12_18 
ROOT
HETATM    1  C2  UNL     1     -25.756  51.244  46.786  1.00  0.00     0.095 C 
HETATM    2  C3  UNL     1     -24.688  50.185  46.643  1.00  0.00     0.051 C 
HETATM    3  C4  UNL     1     -24.251  49.832  48.025  1.00  0.00     0.189 C 
HETATM    4  N2  UNL     1     -24.934  50.817  48.879  1.00  0.00    -0.336 N 
HETATM    5  C6  UNL     1     -24.420  51.430  50.050  1.00  0.00     0.225 C 
HETATM    6  O4  UNL     1     -23.265  51.112  50.422  1.00  0.00    -0.273 OA
HETATM    7  C13 UNL     1     -26.220  50.974  48.219  1.00  0.00     0.140 C 
ENDROOT
BRANCH   3   8
HETATM    8  C5  UNL     1     -24.655  48.473  48.428  1.00  0.00     0.197 C 
HETATM    9  O2  UNL     1     -24.494  48.051  49.597  1.00  0.00    -0.646 OA
HETATM   10  O3  UNL     1     -25.234  47.616  47.508  1.00  0.00    -0.646 OA
ENDBRANCH   3   8
BRANCH   5  11
HETATM   11  C7  UNL     1     -25.142  52.425  50.878  1.00  0.00     0.084 C 
HETATM   12  C8  UNL     1     -25.170  53.714  50.107  1.00  0.00     0.014 C 
HETATM   13  C9  UNL     1     -24.599  54.802  50.986  1.00  0.00     0.001 C 
HETATM   14  C10 UNL     1     -24.594  54.235  52.390  1.00  0.00     0.008 C 
HETATM   15  C11 UNL     1     -24.342  52.773  52.098  1.00  0.00     0.027 C 
BRANCH  15  16
HETATM   16  C12 UNL     1     -24.728  51.973  53.314  1.00  0.00     0.227 C 
HETATM   17  F1  UNL     1     -26.110  51.815  53.266  1.00  0.00    -0.255 F 
ENDBRANCH  15  16
ENDBRANCH   5  11
BRANCH   1  18
HETATM   18  C1  UNL     1     -26.886  51.032  45.874  1.00  0.00     0.236 C 
HETATM   19  N1  UNL     1     -27.709  52.133  45.524  1.00  0.00    -0.062 NA
HETATM   20  O1  UNL     1     -27.108  49.885  45.418  1.00  0.00    -0.276 OA
ENDBRANCH   1  18
TORSDOF 4
ENDMDL
MODEL 5
REMARK VINA RESULT: -6.772191545      1.147      1.147
REMARK  4 active torsions:
REMARK  status: ('A' for Active; 'I' for Inactive)
REMARK    1  A    between atoms: C1_2  and  C2_4 
REMARK    2  A    between atoms: C4_6  and  C5_7 
REMARK       I    between atoms: N2_10  and  C6_11 
REMARK    3  A    between atoms: C6_11  and  C7_13 
REMARK    4  A    between atoms: C11_17  and  C12_18 
ROOT
HETATM    1  C2  UNL     1     -23.367  48.349  49.695  1.00  0.00     0.095 C 
HETATM    2  C3  UNL     1     -24.682  48.020  49.026  1.00  0.00     0.051 C 
HETATM    3  C4  UNL     1     -25.369  49.320  48.776  1.00  0.00     0.189 C 
HETATM    4  N2  UNL     1     -24.527  50.310  49.468  1.00  0.00    -0.336 N 
HETATM    5  C6  UNL     1     -24.967  51.462  50.167  1.00  0.00     0.225 C 
HETATM    6  O4  UNL     1     -26.200  51.689  50.210  1.00  0.00    -0.273 OA
HETATM    7  C13 UNL     1     -23.184  49.799  49.241  1.00  0.00     0.140 C 
ENDROOT
BRANCH   3   8
HETATM    8  C5  UNL     1     -25.449  49.664  47.345  1.00  0.00     0.197 C 
HETATM    9  O2  UNL     1     -24.809  49.033  46.471  1.00  0.00    -0.646 OA
HETATM   10  O3  UNL     1     -26.251  50.711  46.924  1.00  0.00    -0.646 OA
ENDBRANCH   3   8
BRANCH   5  11
HETATM   11  C7  UNL     1     -24.082  52.430  50.856  1.00  0.00     0.084 C 
HETATM   12  C8  UNL     1     -23.577  51.764  52.105  1.00  0.00     0.014 C 
HETATM   13  C9  UNL     1     -23.893  52.661  53.279  1.00  0.00     0.001 C 
HETATM   14  C10 UNL     1     -24.234  54.012  52.684  1.00  0.00     0.008 C 
HETATM   15  C11 UNL     1     -24.878  53.587  51.383  1.00  0.00     0.027 C 
BRANCH  15  16
HETATM   16  C12 UNL     1     -24.896  54.772  50.454  1.00  0.00     0.227 C 
HETATM   17  F1  UNL     1     -26.201  54.893  49.985  1.00  0.00    -0.255 F 
ENDBRANCH  15  16
ENDBRANCH   5  11
BRANCH   1  18
HETATM   18  C1  UNL     1     -22.254  47.546  49.176  1.00  0.00     0.236 C 
HETATM   19  N1  UNL     1     -21.203  47.171  50.052  1.00  0.00    -0.062 NA
HETATM   20  O1  UNL     1     -22.246  47.202  47.969  1.00  0.00    -0.276 OA
ENDBRANCH   1  18
TORSDOF 4
ENDMDL
