MODEL 1
REMARK VINA RESULT: -6.664338385      0.000      0.000
REMARK  5 active torsions:
REMARK  status: ('A' for Active; 'I' for Inactive)
REMARK    1  A    between atoms: C2_2  and  C3_3 
REMARK    2  A    between atoms: C2_2  and  N2_6 
REMARK       I    between atoms: N2_6  and  C5_8 
REMARK       I    between atoms: C5_8  and  N5_13 
REMARK    3  A    between atoms: N5_13  and  C7_15 
REMARK    4  A    between atoms: N6_19  and  C11_20 
REMARK    5  A    between atoms: C11_20  and  C12_21 
ROOT
HETATM    1  C3  UNL     1     -24.372  53.432  51.827  1.00  0.00     0.149 C 
HETATM    2  C4  UNL     1     -23.899  53.118  53.172  1.00  0.00     0.061 C 
HETATM    3  N1  UNL     1     -23.532  52.852  54.248  1.00  0.00    -0.197 NA
ENDROOT
BRANCH   1   4
HETATM    4  C2  UNL     1     -24.808  52.124  51.196  1.00  0.00     0.108 C 
HETATM    5  C1  UNL     1     -25.945  52.346  50.229  1.00  0.00     0.034 C 
BRANCH   4   6
HETATM    6  N2  UNL     1     -23.706  51.465  50.531  1.00  0.00    -0.221 N 
HETATM    7  C5  UNL     1     -23.489  50.077  50.664  1.00  0.00     0.685 C 
HETATM    8  N3  UNL     1     -22.873  49.627  51.691  1.00  0.00    -0.126 N 
HETATM    9  N5  UNL     1     -23.936  49.163  49.687  1.00  0.00    -0.195 N 
HETATM   10  C6  UNL     1     -22.621  48.265  51.892  1.00  0.00     0.196 C 
ATOM     11  H3  UNL     1     -22.551  50.290  52.396  1.00  0.00     0.197 HD
HETATM   12  N4  UNL     1     -22.427  47.121  52.072  1.00  0.00    -0.171 NA
ATOM     13  H5  UNL     1     -24.340  48.267  49.959  1.00  0.00     0.180 HD
ATOM     14  H2  UNL     1     -23.072  52.016  49.953  1.00  0.00     0.178 HD
BRANCH   9  15
HETATM   15  C7  UNL     1     -23.810  49.520  48.303  1.00  0.00     0.308 C 
HETATM   16  C8  UNL     1     -22.732  48.689  47.593  1.00  0.00     0.040 C 
HETATM   17  C9  UNL     1     -23.314  47.324  47.669  1.00  0.00     0.036 C 
HETATM   18  C14 UNL     1     -22.968  49.211  46.178  1.00  0.00     0.036 C 
HETATM   19  C10 UNL     1     -24.821  47.598  47.731  1.00  0.00     0.240 C 
HETATM   20  N6  UNL     1     -24.940  49.016  47.503  1.00  0.00    -0.043 N 
HETATM   21  C13 UNL     1     -24.487  49.297  46.171  1.00  0.00     0.240 C 
BRANCH  20  22
HETATM   22  C11 UNL     1     -26.179  49.584  47.864  1.00  0.00     0.271 C 
BRANCH  22  23
HETATM   23  C12 UNL     1     -26.749  50.409  46.740  1.00  0.00     0.250 C 
HETATM   24  F1  UNL     1     -26.562  51.741  47.059  1.00  0.00    -0.254 F 
ENDBRANCH  22  23
ENDBRANCH  20  22
ENDBRANCH   9  15
ENDBRANCH   4   6
ENDBRANCH   1   4
TORSDOF 5
ENDMDL
MODEL 2
REMARK VINA RESULT: -6.451862736      1.053      1.558
REMARK  5 active torsions:
REMARK  status: ('A' for Active; 'I' for Inactive)
REMARK    1  A    between atoms: C2_2  and  C3_3 
REMARK    2  A    between atoms: C2_2  and  N2_6 
REMARK       I    between atoms: N2_6  and  C5_8 
REMARK       I    between atoms: C5_8  and  N5_13 
REMARK    3  A    between atoms: N5_13  and  C7_15 
REMARK    4  A    between atoms: N6_19  and  C11_20 
REMARK    5  A    between atoms: C11_20  and  C12_21 
ROOT
HETATM    1  C3  UNL     1     -24.368  53.792  50.907  1.00  0.00     0.149 C 
HETATM    2  C4  UNL     1     -25.417  54.209  49.980  1.00  0.00     0.061 C 
HETATM    3  N1  UNL     1     -26.256  54.525  49.233  1.00  0.00    -0.197 NA
ENDROOT
BRANCH   1   4
HETATM    4  C2  UNL     1     -24.545  52.303  51.133  1.00  0.00     0.108 C 
HETATM    5  C1  UNL     1     -25.913  51.851  50.684  1.00  0.00     0.034 C 
BRANCH   4   6
HETATM    6  N2  UNL     1     -23.519  51.541  50.458  1.00  0.00    -0.221 N 
HETATM    7  C5  UNL     1     -23.405  50.145  50.629  1.00  0.00     0.685 C 
HETATM    8  N3  UNL     1     -22.794  49.678  51.652  1.00  0.00    -0.126 N 
HETATM    9  N5  UNL     1     -23.951  49.240  49.695  1.00  0.00    -0.195 N 
HETATM   10  C6  UNL     1     -22.641  48.308  51.889  1.00  0.00     0.196 C 
ATOM     11  H3  UNL     1     -22.399  50.336  52.325  1.00  0.00     0.197 HD
HETATM   12  N4  UNL     1     -22.530  47.158  52.100  1.00  0.00    -0.171 NA
ATOM     13  H5  UNL     1     -24.415  48.386  50.008  1.00  0.00     0.180 HD
ATOM     14  H2  UNL     1     -22.862  52.023  49.845  1.00  0.00     0.178 HD
BRANCH   9  15
HETATM   15  C7  UNL     1     -23.842  49.545  48.297  1.00  0.00     0.308 C 
HETATM   16  C8  UNL     1     -22.745  48.715  47.615  1.00  0.00     0.040 C 
HETATM   17  C9  UNL     1     -23.289  47.340  47.749  1.00  0.00     0.036 C 
HETATM   18  C14 UNL     1     -23.001  49.174  46.182  1.00  0.00     0.036 C 
HETATM   19  C10 UNL     1     -24.803  47.575  47.808  1.00  0.00     0.240 C 
HETATM   20  N6  UNL     1     -24.961  48.979  47.524  1.00  0.00    -0.043 N 
HETATM   21  C13 UNL     1     -24.523  49.219  46.180  1.00  0.00     0.240 C 
BRANCH  20  22
HETATM   22  C11 UNL     1     -26.214  49.527  47.870  1.00  0.00     0.271 C 
BRANCH  22  23
HETATM   23  C12 UNL     1     -26.636  50.585  46.885  1.00  0.00     0.250 C 
HETATM   24  F1  UNL     1     -26.229  51.809  47.380  1.00  0.00    -0.254 F 
ENDBRANCH  22  23
ENDBRANCH  20  22
ENDBRANCH   9  15
ENDBRANCH   4   6
ENDBRANCH   1   4
TORSDOF 5
ENDMDL
MODEL 3
REMARK VINA RESULT: -6.210900374      2.612      4.613
REMARK  5 active torsions:
REMARK  status: ('A' for Active; 'I' for Inactive)
REMARK    1  A    between atoms: C2_2  and  C3_3 
REMARK    2  A    between atoms: C2_2  and  N2_6 
REMARK       I    between atoms: N2_6  and  C5_8 
REMARK       I    between atoms: C5_8  and  N5_13 
REMARK    3  A    between atoms: N5_13  and  C7_15 
REMARK    4  A    between atoms: N6_19  and  C11_20 
REMARK    5  A    between atoms: C11_20  and  C12_21 
ROOT
HETATM    1  C3  UNL     1     -25.905  52.658  50.628  1.00  0.00     0.149 C 
HETATM    2  C4  UNL     1     -26.238  53.300  49.359  1.00  0.00     0.061 C 
HETATM    3  N1  UNL     1     -26.486  53.811  48.339  1.00  0.00    -0.197 NA
ENDROOT
BRANCH   1   4
HETATM    4  C2  UNL     1     -24.678  51.802  50.381  1.00  0.00     0.108 C 
HETATM    5  C1  UNL     1     -23.909  51.583  51.662  1.00  0.00     0.034 C 
BRANCH   4   6
HETATM    6  N2  UNL     1     -25.030  50.533  49.784  1.00  0.00    -0.221 N 
HETATM    7  C5  UNL     1     -24.295  49.996  48.707  1.00  0.00     0.685 C 
HETATM    8  N3  UNL     1     -24.534  50.393  47.514  1.00  0.00    -0.126 N 
HETATM    9  N5  UNL     1     -23.293  49.024  48.909  1.00  0.00    -0.195 N 
HETATM   10  C6  UNL     1     -23.846  49.907  46.397  1.00  0.00     0.196 C 
ATOM     11  H3  UNL     1     -25.260  51.095  47.371  1.00  0.00     0.197 HD
HETATM   12  N4  UNL     1     -23.256  49.515  45.460  1.00  0.00    -0.171 NA
ATOM     13  H5  UNL     1     -22.421  49.058  48.381  1.00  0.00     0.180 HD
ATOM     14  H2  UNL     1     -25.829  50.015  50.151  1.00  0.00     0.178 HD
BRANCH   9  15
HETATM   15  C7  UNL     1     -23.526  47.987  49.873  1.00  0.00     0.308 C 
HETATM   16  C8  UNL     1     -24.675  47.060  49.450  1.00  0.00     0.040 C 
HETATM   17  C9  UNL     1     -24.114  46.436  48.223  1.00  0.00     0.036 C 
HETATM   18  C14 UNL     1     -24.548  46.043  50.581  1.00  0.00     0.036 C 
HETATM   19  C10 UNL     1     -22.602  46.496  48.470  1.00  0.00     0.240 C 
HETATM   20  N6  UNL     1     -22.476  46.954  49.831  1.00  0.00    -0.043 N 
HETATM   21  C13 UNL     1     -23.032  45.954  50.695  1.00  0.00     0.240 C 
BRANCH  20  22
HETATM   22  C11 UNL     1     -21.201  47.437  50.189  1.00  0.00     0.271 C 
BRANCH  22  23
HETATM   23  C12 UNL     1     -21.211  48.026  51.575  1.00  0.00     0.250 C 
HETATM   24  F1  UNL     1     -20.893  49.367  51.466  1.00  0.00    -0.254 F 
ENDBRANCH  22  23
ENDBRANCH  20  22
ENDBRANCH   9  15
ENDBRANCH   4   6
ENDBRANCH   1   4
TORSDOF 5
ENDMDL
MODEL 4
REMARK VINA RESULT: -6.200210845      2.392      4.160
REMARK  5 active torsions:
REMARK  status: ('A' for Active; 'I' for Inactive)
REMARK    1  A    between atoms: C2_2  and  C3_3 
REMARK    2  A    between atoms: C2_2  and  N2_6 
REMARK       I    between atoms: N2_6  and  C5_8 
REMARK       I    between atoms: C5_8  and  N5_13 
REMARK    3  A    between atoms: N5_13  and  C7_15 
REMARK    4  A    between atoms: N6_19  and  C11_20 
REMARK    5  A    between atoms: C11_20  and  C12_21 
ROOT
HETATM    1  C3  UNL     1     -25.238  53.688  51.611  1.00  0.00     0.149 C 
HETATM    2  C4  UNL     1     -24.412  54.492  52.508  1.00  0.00     0.061 C 
HETATM    3  N1  UNL     1     -23.744  55.120  53.230  1.00  0.00    -0.197 NA
ENDROOT
BRANCH   1   4
HETATM    4  C2  UNL     1     -24.418  52.470  51.229  1.00  0.00     0.108 C 
HETATM    5  C1  UNL     1     -23.687  51.917  52.429  1.00  0.00     0.034 C 
BRANCH   4   6
HETATM    6  N2  UNL     1     -25.242  51.446  50.628  1.00  0.00    -0.221 N 
HETATM    7  C5  UNL     1     -25.352  51.317  49.227  1.00  0.00     0.685 C 
HETATM    8  N3  UNL     1     -26.166  52.065  48.583  1.00  0.00    -0.126 N 
HETATM    9  N5  UNL     1     -24.582  50.377  48.510  1.00  0.00    -0.195 N 
HETATM   10  C6  UNL     1     -26.329  51.995  47.195  1.00  0.00     0.196 C 
ATOM     11  H3  UNL     1     -26.721  52.743  49.104  1.00  0.00     0.197 HD
HETATM   12  N4  UNL     1     -26.452  51.951  46.028  1.00  0.00    -0.171 NA
ATOM     13  H5  UNL     1     -24.177  50.618  47.605  1.00  0.00     0.180 HD
ATOM     14  H2  UNL     1     -25.755  50.803  51.230  1.00  0.00     0.178 HD
BRANCH   9  15
HETATM   15  C7  UNL     1     -24.380  49.076  49.080  1.00  0.00     0.308 C 
HETATM   16  C8  UNL     1     -24.961  47.966  48.193  1.00  0.00     0.040 C 
HETATM   17  C9  UNL     1     -24.109  48.080  46.981  1.00  0.00     0.036 C 
HETATM   18  C14 UNL     1     -24.457  46.772  48.999  1.00  0.00     0.036 C 
HETATM   19  C10 UNL     1     -22.804  48.661  47.535  1.00  0.00     0.240 C 
HETATM   20  N6  UNL     1     -22.977  48.640  48.966  1.00  0.00    -0.043 N 
HETATM   21  C13 UNL     1     -23.073  47.273  49.388  1.00  0.00     0.240 C 
BRANCH  20  22
HETATM   22  C11 UNL     1     -22.079  49.447  49.694  1.00  0.00     0.271 C 
BRANCH  22  23
HETATM   23  C12 UNL     1     -21.815  48.872  51.062  1.00  0.00     0.250 C 
HETATM   24  F1  UNL     1     -20.657  49.450  51.546  1.00  0.00    -0.254 F 
ENDBRANCH  22  23
ENDBRANCH  20  22
ENDBRANCH   9  15
ENDBRANCH   4   6
ENDBRANCH   1   4
TORSDOF 5
ENDMDL
MODEL 5
REMARK VINA RESULT: -6.170787305      3.057      5.125
REMARK  5 active torsions:
REMARK  status: ('A' for Active; 'I' for Inactive)
REMARK    1  A    between atoms: C2_2  and  C3_3 
REMARK    2  A    between atoms: C2_2  and  N2_6 
REMARK       I    between atoms: N2_6  and  C5_8 
REMARK       I    between atoms: C5_8  and  N5_13 
REMARK    3  A    between atoms: N5_13  and  C7_15 
REMARK    4  A    between atoms: N6_19  and  C11_20 
REMARK    5  A    between atoms: C11_20  and  C12_21 
ROOT
HETATM    1  C3  UNL     1     -26.125  52.180  50.265  1.00  0.00     0.149 C 
HETATM    2  C4  UNL     1     -26.373  53.004  49.085  1.00  0.00     0.061 C 
HETATM    3  N1  UNL     1     -26.553  53.662  48.138  1.00  0.00    -0.197 NA
ENDROOT
BRANCH   1   4
HETATM    4  C2  UNL     1     -24.813  51.456  50.030  1.00  0.00     0.108 C 
HETATM    5  C1  UNL     1     -23.953  51.487  51.270  1.00  0.00     0.034 C 
BRANCH   4   6
HETATM    6  N2  UNL     1     -25.033  50.091  49.607  1.00  0.00    -0.221 N 
HETATM    7  C5  UNL     1     -24.107  49.417  48.783  1.00  0.00     0.685 C 
HETATM    8  N3  UNL     1     -24.133  49.599  47.517  1.00  0.00    -0.126 N 
HETATM    9  N5  UNL     1     -23.143  48.538  49.321  1.00  0.00    -0.195 N 
HETATM   10  C6  UNL     1     -23.247  48.967  46.637  1.00  0.00     0.196 C 
ATOM     11  H3  UNL     1     -24.831  50.234  47.131  1.00  0.00     0.197 HD
HETATM   12  N4  UNL     1     -22.491  48.452  45.900  1.00  0.00    -0.171 NA
ATOM     13  H5  UNL     1     -22.190  48.524  48.957  1.00  0.00     0.180 HD
ATOM     14  H2  UNL     1     -25.876  49.604  49.911  1.00  0.00     0.178 HD
BRANCH   9  15
HETATM   15  C7  UNL     1     -23.530  47.665  50.393  1.00  0.00     0.308 C 
HETATM   16  C8  UNL     1     -24.508  46.580  49.920  1.00  0.00     0.040 C 
HETATM   17  C9  UNL     1     -23.659  45.808  48.977  1.00  0.00     0.036 C 
HETATM   18  C14 UNL     1     -24.583  45.788  51.223  1.00  0.00     0.036 C 
HETATM   19  C10 UNL     1     -22.245  46.046  49.517  1.00  0.00     0.240 C 
HETATM   20  N6  UNL     1     -22.446  46.740  50.764  1.00  0.00    -0.043 N 
HETATM   21  C13 UNL     1     -23.128  45.857  51.665  1.00  0.00     0.240 C 
BRANCH  20  22
HETATM   22  C11 UNL     1     -21.308  47.390  51.283  1.00  0.00     0.271 C 
BRANCH  22  23
HETATM   23  C12 UNL     1     -20.501  46.464  52.155  1.00  0.00     0.250 C 
HETATM   24  F1  UNL     1     -19.480  45.941  51.384  1.00  0.00    -0.254 F 
ENDBRANCH  22  23
ENDBRANCH  20  22
ENDBRANCH   9  15
ENDBRANCH   4   6
ENDBRANCH   1   4
TORSDOF 5
ENDMDL
