MODEL 1
REMARK VINA RESULT: -5.891939781      0.000      0.000
REMARK  3 active torsions:
REMARK  status: ('A' for Active; 'I' for Inactive)
REMARK    1  A    between atoms: C2_2  and  N1_3 
REMARK    2  A    between atoms: N1_3  and  C3_5 
REMARK    3  A    between atoms: C3_5  and  C4_6 
ROOT
HETATM    1  C4  UNL     1      -2.613  30.358  -9.526  1.00  0.00     0.009 C 
HETATM    2  C5  UNL     1      -3.265  29.228 -10.248  1.00  0.00     0.039 C 
HETATM    3  C6  UNL     1      -3.809  29.915 -11.482  1.00  0.00     0.186 C 
HETATM    4  C7  UNL     1      -3.264  31.350 -11.471  1.00  0.00     0.038 C 
HETATM    5  C8  UNL     1      -1.961  31.089 -10.691  1.00  0.00    -0.005 C 
HETATM    6  C9  UNL     1      -1.139  30.208 -11.576  1.00  0.00     0.032 C 
HETATM    7  C10 UNL     1      -1.818  29.667 -12.774  1.00  0.00     0.233 C 
HETATM    8  N2  UNL     1      -3.185  29.293 -12.621  1.00  0.00    -0.071 N 
ATOM      9  H21 UNL     1      -3.713  29.479 -13.474  1.00  0.00     0.277 HD
ATOM     10  H22 UNL     1      -3.285  28.278 -12.584  1.00  0.00     0.277 HD
ENDROOT
BRANCH   1  11
HETATM   11  C3  UNL     1      -1.707  30.002  -8.411  1.00  0.00     0.118 C 
BRANCH  11  12
HETATM   12  N1  UNL     1      -2.456  30.200  -7.199  1.00  0.00    -0.421 N 
ATOM     13  H1  UNL     1      -3.136  30.955  -7.105  1.00  0.00     0.153 HD
BRANCH  12  14
HETATM   14  C2  UNL     1      -2.198  29.291  -6.141  1.00  0.00     0.109 C 
HETATM   15  C1  UNL     1      -3.216  29.433  -5.005  1.00  0.00     0.026 C 
ENDBRANCH  12  14
ENDBRANCH  11  12
ENDBRANCH   1  11
TORSDOF 3
ENDMDL
MODEL 2
REMARK VINA RESULT: -5.750743278      1.712      4.819
REMARK  3 active torsions:
REMARK  status: ('A' for Active; 'I' for Inactive)
REMARK    1  A    between atoms: C2_2  and  N1_3 
REMARK    2  A    between atoms: N1_3  and  C3_5 
REMARK    3  A    between atoms: C3_5  and  C4_6 
ROOT
HETATM    1  C4  UNL     1      -3.096  30.524 -11.730  1.00  0.00     0.009 C 
HETATM    2  C5  UNL     1      -1.660  30.580 -11.332  1.00  0.00     0.039 C 
HETATM    3  C6  UNL     1      -1.720  31.379 -10.049  1.00  0.00     0.186 C 
HETATM    4  C7  UNL     1      -3.205  31.559  -9.703  1.00  0.00     0.038 C 
HETATM    5  C8  UNL     1      -3.746  30.283 -10.376  1.00  0.00    -0.005 C 
HETATM    6  C9  UNL     1      -3.149  29.146  -9.610  1.00  0.00     0.032 C 
HETATM    7  C10 UNL     1      -2.098  29.499  -8.630  1.00  0.00     0.233 C 
HETATM    8  N2  UNL     1      -1.197  30.539  -9.003  1.00  0.00    -0.071 N 
ATOM      9  H21 UNL     1      -0.921  31.092  -8.192  1.00  0.00     0.277 HD
ATOM     10  H22 UNL     1      -0.286  30.158  -9.260  1.00  0.00     0.277 HD
ENDROOT
BRANCH   1  11
HETATM   11  C3  UNL     1      -3.456  29.557 -12.791  1.00  0.00     0.118 C 
BRANCH  11  12
HETATM   12  N1  UNL     1      -2.217  29.064 -13.330  1.00  0.00    -0.421 N 
ATOM     13  H1  UNL     1      -1.325  29.516 -13.126  1.00  0.00     0.153 HD
BRANCH  12  14
HETATM   14  C2  UNL     1      -2.300  27.918 -14.162  1.00  0.00     0.109 C 
HETATM   15  C1  UNL     1      -3.192  26.833 -13.551  1.00  0.00     0.026 C 
ENDBRANCH  12  14
ENDBRANCH  11  12
ENDBRANCH   1  11
TORSDOF 3
ENDMDL
MODEL 3
REMARK VINA RESULT: -5.496089452      1.962      4.680
REMARK  3 active torsions:
REMARK  status: ('A' for Active; 'I' for Inactive)
REMARK    1  A    between atoms: C2_2  and  N1_3 
REMARK    2  A    between atoms: N1_3  and  C3_5 
REMARK    3  A    between atoms: C3_5  and  C4_6 
ROOT
HETATM    1  C4  UNL     1      -1.552  30.972 -11.556  1.00  0.00     0.009 C 
HETATM    2  C5  UNL     1      -1.083  30.033 -10.496  1.00  0.00     0.039 C 
HETATM    3  C6  UNL     1      -1.902  30.473  -9.302  1.00  0.00     0.186 C 
HETATM    4  C7  UNL     1      -2.919  31.504  -9.812  1.00  0.00     0.038 C 
HETATM    5  C8  UNL     1      -3.045  30.995 -11.261  1.00  0.00    -0.005 C 
HETATM    6  C9  UNL     1      -3.663  29.638 -11.152  1.00  0.00     0.032 C 
HETATM    7  C10 UNL     1      -3.776  29.078  -9.787  1.00  0.00     0.233 C 
HETATM    8  N2  UNL     1      -2.696  29.343  -8.895  1.00  0.00    -0.071 N 
ATOM      9  H21 UNL     1      -3.031  29.457  -7.938  1.00  0.00     0.277 HD
ATOM     10  H22 UNL     1      -2.114  28.514  -8.768  1.00  0.00     0.277 HD
ENDROOT
BRANCH   1  11
HETATM   11  C3  UNL     1      -1.184  30.639 -12.950  1.00  0.00     0.118 C 
BRANCH  11  12
HETATM   12  N1  UNL     1      -1.189  29.204 -13.041  1.00  0.00    -0.421 N 
ATOM     13  H1  UNL     1      -0.752  28.619 -12.329  1.00  0.00     0.153 HD
BRANCH  12  14
HETATM   14  C2  UNL     1      -1.835  28.644 -14.174  1.00  0.00     0.109 C 
HETATM   15  C1  UNL     1      -2.731  27.461 -13.794  1.00  0.00     0.026 C 
ENDBRANCH  12  14
ENDBRANCH  11  12
ENDBRANCH   1  11
TORSDOF 3
ENDMDL
MODEL 4
REMARK VINA RESULT: -5.488813665      1.889      4.964
REMARK  3 active torsions:
REMARK  status: ('A' for Active; 'I' for Inactive)
REMARK    1  A    between atoms: C2_2  and  N1_3 
REMARK    2  A    between atoms: N1_3  and  C3_5 
REMARK    3  A    between atoms: C3_5  and  C4_6 
ROOT
HETATM    1  C4  UNL     1      -2.853  29.557 -11.591  1.00  0.00     0.009 C 
HETATM    2  C5  UNL     1      -3.337  29.188 -10.230  1.00  0.00     0.039 C 
HETATM    3  C6  UNL     1      -2.177  29.615  -9.357  1.00  0.00     0.186 C 
HETATM    4  C7  UNL     1      -1.194  30.374 -10.259  1.00  0.00     0.038 C 
HETATM    5  C8  UNL     1      -2.205  30.902 -11.296  1.00  0.00    -0.005 C 
HETATM    6  C9  UNL     1      -3.086  31.848 -10.544  1.00  0.00     0.032 C 
HETATM    7  C10 UNL     1      -2.925  31.863  -9.073  1.00  0.00     0.233 C 
HETATM    8  N2  UNL     1      -2.680  30.609  -8.443  1.00  0.00    -0.071 N 
ATOM      9  H21 UNL     1      -2.058  30.717  -7.642  1.00  0.00     0.277 HD
ATOM     10  H22 UNL     1      -3.514  30.272  -7.960  1.00  0.00     0.277 HD
ENDROOT
BRANCH   1  11
HETATM   11  C3  UNL     1      -3.859  29.560 -12.677  1.00  0.00     0.118 C 
BRANCH  11  12
HETATM   12  N1  UNL     1      -3.584  28.405 -13.489  1.00  0.00    -0.421 N 
ATOM     13  H1  UNL     1      -4.332  27.815 -13.854  1.00  0.00     0.153 HD
BRANCH  12  14
HETATM   14  C2  UNL     1      -2.219  28.128 -13.754  1.00  0.00     0.109 C 
HETATM   15  C1  UNL     1      -1.735  28.814 -15.036  1.00  0.00     0.026 C 
ENDBRANCH  12  14
ENDBRANCH  11  12
ENDBRANCH   1  11
TORSDOF 3
ENDMDL
MODEL 5
REMARK VINA RESULT: -5.338529606      1.673      5.108
REMARK  3 active torsions:
REMARK  status: ('A' for Active; 'I' for Inactive)
REMARK    1  A    between atoms: C2_2  and  N1_3 
REMARK    2  A    between atoms: N1_3  and  C3_5 
REMARK    3  A    between atoms: C3_5  and  C4_6 
ROOT
HETATM    1  C4  UNL     1      -2.648  30.329 -11.792  1.00  0.00     0.009 C 
HETATM    2  C5  UNL     1      -1.306  30.346 -11.144  1.00  0.00     0.039 C 
HETATM    3  C6  UNL     1      -1.561  31.193  -9.915  1.00  0.00     0.186 C 
HETATM    4  C7  UNL     1      -3.075  31.438  -9.848  1.00  0.00     0.038 C 
HETATM    5  C8  UNL     1      -3.541  30.160 -10.571  1.00  0.00    -0.005 C 
HETATM    6  C9  UNL     1      -3.139  29.031  -9.678  1.00  0.00     0.032 C 
HETATM    7  C10 UNL     1      -2.267  29.379  -8.534  1.00  0.00     0.233 C 
HETATM    8  N2  UNL     1      -1.270  30.371  -8.769  1.00  0.00    -0.071 N 
ATOM      9  H21 UNL     1      -1.120  30.943  -7.937  1.00  0.00     0.277 HD
ATOM     10  H22 UNL     1      -0.344  29.949  -8.847  1.00  0.00     0.277 HD
ENDROOT
BRANCH   1  11
HETATM   11  C3  UNL     1      -2.853  29.338 -12.872  1.00  0.00     0.118 C 
BRANCH  11  12
HETATM   12  N1  UNL     1      -1.544  28.967 -13.338  1.00  0.00    -0.421 N 
ATOM     13  H1  UNL     1      -0.886  28.462 -12.743  1.00  0.00     0.153 HD
BRANCH  12  14
HETATM   14  C2  UNL     1      -1.216  29.338 -14.667  1.00  0.00     0.109 C 
HETATM   15  C1  UNL     1      -0.122  30.410 -14.707  1.00  0.00     0.026 C 
ENDBRANCH  12  14
ENDBRANCH  11  12
ENDBRANCH   1  11
TORSDOF 3
ENDMDL
