MODEL 1
REMARK VINA RESULT: -5.770781010      0.000      0.000
REMARK  4 active torsions:
REMARK  status: ('A' for Active; 'I' for Inactive)
REMARK    1  A    between atoms: C2_2  and  N1_3 
REMARK    2  A    between atoms: N1_3  and  N2_5 
REMARK    3  A    between atoms: C3_7  and  C4_8 
REMARK    4  A    between atoms: C4_8  and  N3_9 
ROOT
HETATM    1  N2  UNL     1      -2.644  29.251  -7.312  1.00  0.00    -0.319 N 
ATOM      2  H2  UNL     1      -3.045  28.413  -6.892  1.00  0.00     0.185 HD
HETATM    3  C3  UNL     1      -2.167  29.124  -8.487  1.00  0.00     0.100 C 
ENDROOT
BRANCH   3   4
HETATM    4  C4  UNL     1      -1.565  30.261  -9.195  1.00  0.00     0.172 C 
BRANCH   4   5
HETATM    5  N3  UNL     1      -2.203  30.510 -10.437  1.00  0.00    -0.369 N 
HETATM    6  C5  UNL     1      -3.509  30.011 -10.619  1.00  0.00     0.063 C 
HETATM    7  C6  UNL     1      -3.942  29.912 -12.056  1.00  0.00     0.045 C 
HETATM    8  C7  UNL     1      -2.913  29.283 -12.939  1.00  0.00     0.010 C 
HETATM    9  C8  UNL     1      -1.501  29.739 -12.665  1.00  0.00     0.045 C 
HETATM   10  C9  UNL     1      -1.420  30.765 -11.569  1.00  0.00     0.063 C 
ENDBRANCH   4   5
ENDBRANCH   3   4
BRANCH   1  11
HETATM   11  N1  UNL     1      -2.679  30.405  -6.540  1.00  0.00    -0.337 N 
ATOM     12  H1  UNL     1      -2.439  31.314  -6.938  1.00  0.00     0.180 HD
BRANCH  11  13
HETATM   13  C2  UNL     1      -3.072  30.274  -5.138  1.00  0.00     0.135 C 
HETATM   14  C1  UNL     1      -3.799  31.529  -4.705  1.00  0.00     0.028 C 
ENDBRANCH  11  13
ENDBRANCH   1  11
TORSDOF 4
ENDMDL
MODEL 2
REMARK VINA RESULT: -5.707805539      1.214      1.422
REMARK  4 active torsions:
REMARK  status: ('A' for Active; 'I' for Inactive)
REMARK    1  A    between atoms: C2_2  and  N1_3 
REMARK    2  A    between atoms: N1_3  and  N2_5 
REMARK    3  A    between atoms: C3_7  and  C4_8 
REMARK    4  A    between atoms: C4_8  and  N3_9 
ROOT
HETATM    1  N2  UNL     1      -2.812  30.692  -8.004  1.00  0.00    -0.319 N 
ATOM      2  H2  UNL     1      -3.391  31.305  -7.431  1.00  0.00     0.185 HD
HETATM    3  C3  UNL     1      -2.451  31.149  -9.138  1.00  0.00     0.100 C 
ENDROOT
BRANCH   3   4
HETATM    4  C4  UNL     1      -1.615  30.359 -10.051  1.00  0.00     0.172 C 
BRANCH   4   5
HETATM    5  N3  UNL     1      -2.180  30.276 -11.349  1.00  0.00    -0.369 N 
HETATM    6  C5  UNL     1      -3.331  29.479 -11.518  1.00  0.00     0.063 C 
HETATM    7  C6  UNL     1      -3.604  29.077 -12.941  1.00  0.00     0.045 C 
HETATM    8  C7  UNL     1      -2.393  28.570 -13.655  1.00  0.00     0.010 C 
HETATM    9  C8  UNL     1      -1.139  29.363 -13.382  1.00  0.00     0.045 C 
HETATM   10  C9  UNL     1      -1.373  30.531 -12.463  1.00  0.00     0.063 C 
ENDBRANCH   4   5
ENDBRANCH   3   4
BRANCH   1  11
HETATM   11  N1  UNL     1      -2.503  29.451  -7.463  1.00  0.00    -0.337 N 
ATOM     12  H1  UNL     1      -2.643  28.593  -7.997  1.00  0.00     0.180 HD
BRANCH  11  13
HETATM   13  C2  UNL     1      -1.971  29.416  -6.101  1.00  0.00     0.135 C 
HETATM   14  C1  UNL     1      -3.122  29.411  -5.117  1.00  0.00     0.028 C 
ENDBRANCH  11  13
ENDBRANCH   1  11
TORSDOF 4
ENDMDL
MODEL 3
REMARK VINA RESULT: -5.692227935      1.055      1.265
REMARK  4 active torsions:
REMARK  status: ('A' for Active; 'I' for Inactive)
REMARK    1  A    between atoms: C2_2  and  N1_3 
REMARK    2  A    between atoms: N1_3  and  N2_5 
REMARK    3  A    between atoms: C3_7  and  C4_8 
REMARK    4  A    between atoms: C4_8  and  N3_9 
ROOT
HETATM    1  N2  UNL     1      -1.497  29.940  -6.573  1.00  0.00    -0.319 N 
ATOM      2  H2  UNL     1      -0.682  30.172  -6.005  1.00  0.00     0.185 HD
HETATM    3  C3  UNL     1      -1.265  29.387  -7.698  1.00  0.00     0.100 C 
ENDROOT
BRANCH   3   4
HETATM    4  C4  UNL     1      -2.357  29.007  -8.603  1.00  0.00     0.172 C 
BRANCH   4   5
HETATM    5  N3  UNL     1      -2.483  29.908  -9.691  1.00  0.00    -0.369 N 
HETATM    6  C5  UNL     1      -3.562  29.722 -10.579  1.00  0.00     0.063 C 
HETATM    7  C6  UNL     1      -3.390  30.394 -11.914  1.00  0.00     0.045 C 
HETATM    8  C7  UNL     1      -2.044  30.163 -12.521  1.00  0.00     0.010 C 
HETATM    9  C8  UNL     1      -0.900  30.254 -11.542  1.00  0.00     0.045 C 
HETATM   10  C9  UNL     1      -1.350  30.591 -10.146  1.00  0.00     0.063 C 
ENDBRANCH   4   5
ENDBRANCH   3   4
BRANCH   1  11
HETATM   11  N1  UNL     1      -2.736  30.263  -6.036  1.00  0.00    -0.337 N 
ATOM     12  H1  UNL     1      -3.275  31.053  -6.389  1.00  0.00     0.180 HD
BRANCH  11  13
HETATM   13  C2  UNL     1      -3.242  29.430  -4.946  1.00  0.00     0.135 C 
HETATM   14  C1  UNL     1      -2.799  30.017  -3.623  1.00  0.00     0.028 C 
ENDBRANCH  11  13
ENDBRANCH   1  11
TORSDOF 4
ENDMDL
MODEL 4
REMARK VINA RESULT: -5.637449503      0.997      1.854
REMARK  4 active torsions:
REMARK  status: ('A' for Active; 'I' for Inactive)
REMARK    1  A    between atoms: C2_2  and  N1_3 
REMARK    2  A    between atoms: N1_3  and  N2_5 
REMARK    3  A    between atoms: C3_7  and  C4_8 
REMARK    4  A    between atoms: C4_8  and  N3_9 
ROOT
HETATM    1  N2  UNL     1      -2.756  29.437  -6.367  1.00  0.00    -0.319 N 
ATOM      2  H2  UNL     1      -3.096  28.692  -5.759  1.00  0.00     0.185 HD
HETATM    3  C3  UNL     1      -2.078  29.074  -7.383  1.00  0.00     0.100 C 
ENDROOT
BRANCH   3   4
HETATM    4  C4  UNL     1      -1.535  30.055  -8.331  1.00  0.00     0.172 C 
BRANCH   4   5
HETATM    5  N3  UNL     1      -1.859  29.731  -9.673  1.00  0.00    -0.369 N 
HETATM    6  C5  UNL     1      -1.170  30.409 -10.699  1.00  0.00     0.063 C 
HETATM    7  C6  UNL     1      -1.849  30.361 -12.041  1.00  0.00     0.045 C 
HETATM    8  C7  UNL     1      -3.310  30.666 -11.973  1.00  0.00     0.010 C 
HETATM    9  C8  UNL     1      -4.022  30.026 -10.807  1.00  0.00     0.045 C 
HETATM   10  C9  UNL     1      -3.112  29.179  -9.960  1.00  0.00     0.063 C 
ENDBRANCH   4   5
ENDBRANCH   3   4
BRANCH   1  11
HETATM   11  N1  UNL     1      -3.083  30.735  -5.995  1.00  0.00    -0.337 N 
ATOM     12  H1  UNL     1      -3.019  31.506  -6.660  1.00  0.00     0.180 HD
BRANCH  11  13
HETATM   13  C2  UNL     1      -3.522  30.958  -4.619  1.00  0.00     0.135 C 
HETATM   14  C1  UNL     1      -2.850  29.949  -3.712  1.00  0.00     0.028 C 
ENDBRANCH  11  13
ENDBRANCH   1  11
TORSDOF 4
ENDMDL
MODEL 5
REMARK VINA RESULT: -5.245954576      1.459      2.325
REMARK  4 active torsions:
REMARK  status: ('A' for Active; 'I' for Inactive)
REMARK    1  A    between atoms: C2_2  and  N1_3 
REMARK    2  A    between atoms: N1_3  and  N2_5 
REMARK    3  A    between atoms: C3_7  and  C4_8 
REMARK    4  A    between atoms: C4_8  and  N3_9 
ROOT
HETATM    1  N2  UNL     1      -2.858  31.143  -8.402  1.00  0.00    -0.319 N 
ATOM      2  H2  UNL     1      -3.625  31.239  -7.736  1.00  0.00     0.185 HD
HETATM    3  C3  UNL     1      -3.028  31.683  -9.543  1.00  0.00     0.100 C 
ENDROOT
BRANCH   3   4
HETATM    4  C4  UNL     1      -1.995  31.611 -10.585  1.00  0.00     0.172 C 
BRANCH   4   5
HETATM    5  N3  UNL     1      -1.996  30.358 -11.248  1.00  0.00    -0.369 N 
HETATM    6  C5  UNL     1      -1.043  30.150 -12.266  1.00  0.00     0.063 C 
HETATM    7  C6  UNL     1      -1.375  29.024 -13.207  1.00  0.00     0.045 C 
HETATM    8  C7  UNL     1      -2.791  29.052 -13.684  1.00  0.00     0.010 C 
HETATM    9  C8  UNL     1      -3.798  29.385 -12.611  1.00  0.00     0.045 C 
HETATM   10  C9  UNL     1      -3.168  29.593 -11.261  1.00  0.00     0.063 C 
ENDBRANCH   4   5
ENDBRANCH   3   4
BRANCH   1  11
HETATM   11  N1  UNL     1      -1.746  30.437  -7.963  1.00  0.00    -0.337 N 
ATOM     12  H1  UNL     1      -0.806  30.824  -8.055  1.00  0.00     0.180 HD
BRANCH  11  13
HETATM   13  C2  UNL     1      -1.966  29.121  -7.366  1.00  0.00     0.135 C 
HETATM   14  C1  UNL     1      -2.374  29.294  -5.918  1.00  0.00     0.028 C 
ENDBRANCH  11  13
ENDBRANCH   1  11
TORSDOF 4
ENDMDL
