MODEL 1
REMARK VINA RESULT: -7.913780923      0.000      0.000
REMARK  16 active torsions:
REMARK  status: ('A' for Active; 'I' for Inactive)
REMARK    1  A    between atoms: C3_3  and  C4_4 
REMARK    2  A    between atoms: C6_6  and  C7_7 
REMARK    3  A    between atoms: C7_7  and  O2_9 
REMARK    4  A    between atoms: O2_9  and  C8_10 
REMARK    5  A    between atoms: C9_11  and  C10_12 
REMARK    6  A    between atoms: C10_12  and  C11_13 
REMARK    7  A    between atoms: C11_13  and  C12_14 
REMARK    8  A    between atoms: C12_14  and  C13_15 
REMARK    9  A    between atoms: C13_15  and  C14_16 
REMARK   10  A    between atoms: C14_16  and  C15_17 
REMARK   11  A    between atoms: C16_19  and  O4_20 
REMARK   12  A    between atoms: C17_22  and  O5_23 
REMARK   13  A    between atoms: C18_25  and  O6_26 
REMARK   14  A    between atoms: C20_29  and  O7_30 
REMARK   15  A    between atoms: C21_32  and  O8_33 
REMARK   16  A    between atoms: C22_35  and  O9_36 
ROOT
HETATM    1  C8  UNL     1      27.869  -1.656   8.145  1.00  0.00     0.167 C 
HETATM    2  C9  UNL     1      29.037  -0.932   8.734  1.00  0.00     0.020 C 
HETATM    3  C19 UNL     1      30.229  -0.948   7.801  1.00  0.00     0.041 C 
HETATM    4  C20 UNL     1      30.524  -2.308   7.267  1.00  0.00     0.150 C 
HETATM    5  C21 UNL     1      29.337  -3.058   6.770  1.00  0.00     0.178 C 
HETATM    6  C22 UNL     1      28.176  -3.049   7.715  1.00  0.00     0.179 C 
ENDROOT
BRANCH   2   7
HETATM    7  C10 UNL     1      29.455  -1.437  10.092  1.00  0.00     0.007 C 
BRANCH   7   8
HETATM    8  C11 UNL     1      28.257  -1.880  10.889  1.00  0.00     0.000 C 
BRANCH   8   9
HETATM    9  C12 UNL     1      28.372  -3.366  11.217  1.00  0.00     0.000 C 
BRANCH   9  10
HETATM   10  C13 UNL     1      28.542  -3.589  12.686  1.00  0.00     0.002 C 
BRANCH  10  11
HETATM   11  C14 UNL     1      29.940  -3.320  13.174  1.00  0.00     0.035 C 
BRANCH  11  12
HETATM   12  C15 UNL     1      30.988  -4.064  12.399  1.00  0.00     0.156 C 
HETATM   13  O3  UNL     1      31.472  -5.179  13.029  1.00  0.00    -0.351 OA
HETATM   14  C16 UNL     1      32.457  -4.801  13.918  1.00  0.00     0.288 C 
HETATM   15  C17 UNL     1      33.279  -3.838  13.082  1.00  0.00     0.204 C 
HETATM   16  C18 UNL     1      32.196  -3.164  12.259  1.00  0.00     0.180 C 
BRANCH  14  17
HETATM   17  O4  UNL     1      33.174  -5.933  14.278  1.00  0.00    -0.369 OA
ATOM     18  H4  UNL     1      33.112  -6.037  15.220  1.00  0.00     0.212 HD
ENDBRANCH  14  17
BRANCH  15  19
HETATM   19  O5  UNL     1      34.098  -4.570  12.234  1.00  0.00    -0.388 OA
ATOM     20  H5  UNL     1      34.362  -4.014  11.510  1.00  0.00     0.210 HD
ENDBRANCH  15  19
BRANCH  16  21
HETATM   21  O6  UNL     1      31.931  -1.881  12.783  1.00  0.00    -0.390 OA
ATOM     22  H6  UNL     1      31.799  -1.252  12.084  1.00  0.00     0.210 HD
ENDBRANCH  16  21
ENDBRANCH  11  12
ENDBRANCH  10  11
ENDBRANCH   9  10
ENDBRANCH   8   9
ENDBRANCH   7   8
ENDBRANCH   2   7
BRANCH   1  23
HETATM   23  O2  UNL     1      27.458  -0.914   6.979  1.00  0.00    -0.310 OA
BRANCH  23  24
HETATM   24  C7  UNL     1      26.779   0.279   7.107  1.00  0.00     0.283 C 
HETATM   25  O1  UNL     1      25.501   0.195   7.044  1.00  0.00    -0.260 OA
BRANCH  24  26
HETATM   26  C6  UNL     1      27.424   1.540   7.299  1.00  0.00     0.089 C 
HETATM   27  C4  UNL     1      28.037   2.188   6.345  1.00  0.00    -0.057 C 
HETATM   28  C5  UNL     1      28.129   1.689   4.958  1.00  0.00     0.048 C 
BRANCH  27  29
HETATM   29  C3  UNL     1      28.654   3.467   6.676  1.00  0.00     0.002 C 
HETATM   30  C2  UNL     1      28.395   4.161   7.761  1.00  0.00    -0.030 C 
HETATM   31  C1  UNL     1      29.152   5.467   7.906  1.00  0.00     0.036 C 
ENDBRANCH  27  29
ENDBRANCH  24  26
ENDBRANCH  23  24
ENDBRANCH   1  23
BRANCH   6  32
HETATM   32  O9  UNL     1      27.057  -3.573   7.068  1.00  0.00    -0.390 OA
ATOM     33  H9  UNL     1      27.070  -4.520   7.155  1.00  0.00     0.210 HD
ENDBRANCH   6  32
BRANCH   4  34
HETATM   34  O7  UNL     1      31.279  -3.052   8.170  1.00  0.00    -0.393 OA
ATOM     35  H7  UNL     1      30.824  -3.153   8.998  1.00  0.00     0.210 HD
ENDBRANCH   4  34
BRANCH   5  36
HETATM   36  O8  UNL     1      29.746  -4.386   6.567  1.00  0.00    -0.390 OA
ATOM     37  H8  UNL     1      28.958  -4.910   6.494  1.00  0.00     0.210 HD
ENDBRANCH   5  36
TORSDOF 16
ENDMDL
MODEL 2
REMARK VINA RESULT: -7.863715867      3.338      7.016
REMARK  16 active torsions:
REMARK  status: ('A' for Active; 'I' for Inactive)
REMARK    1  A    between atoms: C3_3  and  C4_4 
REMARK    2  A    between atoms: C6_6  and  C7_7 
REMARK    3  A    between atoms: C7_7  and  O2_9 
REMARK    4  A    between atoms: O2_9  and  C8_10 
REMARK    5  A    between atoms: C9_11  and  C10_12 
REMARK    6  A    between atoms: C10_12  and  C11_13 
REMARK    7  A    between atoms: C11_13  and  C12_14 
REMARK    8  A    between atoms: C12_14  and  C13_15 
REMARK    9  A    between atoms: C13_15  and  C14_16 
REMARK   10  A    between atoms: C14_16  and  C15_17 
REMARK   11  A    between atoms: C16_19  and  O4_20 
REMARK   12  A    between atoms: C17_22  and  O5_23 
REMARK   13  A    between atoms: C18_25  and  O6_26 
REMARK   14  A    between atoms: C20_29  and  O7_30 
REMARK   15  A    between atoms: C21_32  and  O8_33 
REMARK   16  A    between atoms: C22_35  and  O9_36 
ROOT
HETATM    1  C8  UNL     1      28.354   0.299   8.964  1.00  0.00     0.167 C 
HETATM    2  C9  UNL     1      29.478   1.123   8.423  1.00  0.00     0.020 C 
HETATM    3  C19 UNL     1      30.822   0.597   8.878  1.00  0.00     0.041 C 
HETATM    4  C20 UNL     1      30.871   0.335  10.345  1.00  0.00     0.150 C 
HETATM    5  C21 UNL     1      29.699  -0.405  10.889  1.00  0.00     0.178 C 
HETATM    6  C22 UNL     1      28.377   0.142  10.446  1.00  0.00     0.179 C 
ENDROOT
BRANCH   2   7
HETATM    7  C10 UNL     1      29.377   2.592   8.747  1.00  0.00     0.007 C 
BRANCH   7   8
HETATM    8  C11 UNL     1      28.389   3.273   7.838  1.00  0.00     0.000 C 
BRANCH   8   9
HETATM    9  C12 UNL     1      29.069   3.666   6.531  1.00  0.00     0.000 C 
BRANCH   9  10
HETATM   10  C13 UNL     1      28.655   2.769   5.409  1.00  0.00     0.002 C 
BRANCH  10  11
HETATM   11  C14 UNL     1      29.809   2.278   4.577  1.00  0.00     0.035 C 
BRANCH  11  12
HETATM   12  C15 UNL     1      30.194   0.860   4.883  1.00  0.00     0.156 C 
HETATM   13  O3  UNL     1      31.511   0.690   5.213  1.00  0.00    -0.351 OA
HETATM   14  C16 UNL     1      32.257   0.599   4.056  1.00  0.00     0.288 C 
HETATM   15  C17 UNL     1      31.428  -0.364   3.226  1.00  0.00     0.204 C 
HETATM   16  C18 UNL     1      30.020   0.043   3.621  1.00  0.00     0.180 C 
BRANCH  14  17
HETATM   17  O4  UNL     1      33.502   0.080   4.380  1.00  0.00    -0.369 OA
ATOM     18  H4  UNL     1      33.846   0.570   5.117  1.00  0.00     0.212 HD
ENDBRANCH  14  17
BRANCH  15  19
HETATM   19  O5  UNL     1      31.664  -1.656   3.673  1.00  0.00    -0.388 OA
ATOM     20  H5  UNL     1      30.909  -2.194   3.464  1.00  0.00     0.210 HD
ENDBRANCH  15  19
BRANCH  16  21
HETATM   21  O6  UNL     1      29.445   0.821   2.594  1.00  0.00    -0.390 OA
ATOM     22  H6  UNL     1      29.033   0.268   1.941  1.00  0.00     0.210 HD
ENDBRANCH  16  21
ENDBRANCH  11  12
ENDBRANCH  10  11
ENDBRANCH   9  10
ENDBRANCH   8   9
ENDBRANCH   7   8
ENDBRANCH   2   7
BRANCH   1  23
HETATM   23  O2  UNL     1      28.474  -1.014   8.379  1.00  0.00    -0.310 OA
BRANCH  23  24
HETATM   24  C7  UNL     1      27.469  -1.525   7.585  1.00  0.00     0.283 C 
HETATM   25  O1  UNL     1      26.673  -2.347   8.165  1.00  0.00    -0.260 OA
BRANCH  24  26
HETATM   26  C6  UNL     1      27.297  -1.183   6.209  1.00  0.00     0.089 C 
HETATM   27  C4  UNL     1      26.531  -0.208   5.799  1.00  0.00    -0.057 C 
HETATM   28  C5  UNL     1      25.758   0.654   6.717  1.00  0.00     0.048 C 
BRANCH  27  29
HETATM   29  C3  UNL     1      26.444   0.035   4.363  1.00  0.00     0.002 C 
HETATM   30  C2  UNL     1      25.375  -0.189   3.633  1.00  0.00    -0.030 C 
HETATM   31  C1  UNL     1      25.505   0.134   2.157  1.00  0.00     0.036 C 
ENDBRANCH  27  29
ENDBRANCH  24  26
ENDBRANCH  23  24
ENDBRANCH   1  23
BRANCH   6  32
HETATM   32  O9  UNL     1      27.367  -0.745  10.818  1.00  0.00    -0.390 OA
ATOM     33  H9  UNL     1      27.003  -0.460  11.647  1.00  0.00     0.210 HD
ENDBRANCH   6  32
BRANCH   4  34
HETATM   34  O7  UNL     1      31.138   1.500  11.057  1.00  0.00    -0.393 OA
ATOM     35  H7  UNL     1      30.842   1.429  11.957  1.00  0.00     0.210 HD
ENDBRANCH   4  34
BRANCH   5  36
HETATM   36  O8  UNL     1      29.776  -0.324  12.289  1.00  0.00    -0.390 OA
ATOM     37  H8  UNL     1      28.892  -0.185  12.607  1.00  0.00     0.210 HD
ENDBRANCH   5  36
TORSDOF 16
ENDMDL
MODEL 3
REMARK VINA RESULT: -7.807984391      1.864      2.966
REMARK  16 active torsions:
REMARK  status: ('A' for Active; 'I' for Inactive)
REMARK    1  A    between atoms: C3_3  and  C4_4 
REMARK    2  A    between atoms: C6_6  and  C7_7 
REMARK    3  A    between atoms: C7_7  and  O2_9 
REMARK    4  A    between atoms: O2_9  and  C8_10 
REMARK    5  A    between atoms: C9_11  and  C10_12 
REMARK    6  A    between atoms: C10_12  and  C11_13 
REMARK    7  A    between atoms: C11_13  and  C12_14 
REMARK    8  A    between atoms: C12_14  and  C13_15 
REMARK    9  A    between atoms: C13_15  and  C14_16 
REMARK   10  A    between atoms: C14_16  and  C15_17 
REMARK   11  A    between atoms: C16_19  and  O4_20 
REMARK   12  A    between atoms: C17_22  and  O5_23 
REMARK   13  A    between atoms: C18_25  and  O6_26 
REMARK   14  A    between atoms: C20_29  and  O7_30 
REMARK   15  A    between atoms: C21_32  and  O8_33 
REMARK   16  A    between atoms: C22_35  and  O9_36 
ROOT
HETATM    1  C8  UNL     1      28.467  -0.405   6.747  1.00  0.00     0.167 C 
HETATM    2  C9  UNL     1      29.952  -0.275   6.866  1.00  0.00     0.020 C 
HETATM    3  C19 UNL     1      30.665  -1.460   6.254  1.00  0.00     0.041 C 
HETATM    4  C20 UNL     1      30.101  -2.766   6.701  1.00  0.00     0.150 C 
HETATM    5  C21 UNL     1      28.615  -2.851   6.668  1.00  0.00     0.178 C 
HETATM    6  C22 UNL     1      27.926  -1.680   7.297  1.00  0.00     0.179 C 
ENDROOT
BRANCH   2   7
HETATM    7  C10 UNL     1      30.441  -0.067   8.277  1.00  0.00     0.007 C 
BRANCH   7   8
HETATM    8  C11 UNL     1      29.821   1.163   8.883  1.00  0.00     0.000 C 
BRANCH   8   9
HETATM    9  C12 UNL     1      29.508   0.917  10.356  1.00  0.00     0.000 C 
BRANCH   9  10
HETATM   10  C13 UNL     1      30.741   0.561  11.123  1.00  0.00     0.002 C 
BRANCH  10  11
HETATM   11  C14 UNL     1      30.483  -0.385  12.266  1.00  0.00     0.035 C 
BRANCH  11  12
HETATM   12  C15 UNL     1      30.881  -1.798  11.960  1.00  0.00     0.156 C 
HETATM   13  O3  UNL     1      30.299  -2.320  10.835  1.00  0.00    -0.351 OA
HETATM   14  C16 UNL     1      29.042  -2.787  11.156  1.00  0.00     0.288 C 
HETATM   15  C17 UNL     1      29.309  -3.550  12.440  1.00  0.00     0.204 C 
HETATM   16  C18 UNL     1      30.377  -2.682  13.080  1.00  0.00     0.180 C 
BRANCH  14  17
HETATM   17  O4  UNL     1      28.611  -3.616  10.129  1.00  0.00    -0.369 OA
ATOM     18  H4  UNL     1      27.912  -4.165  10.463  1.00  0.00     0.212 HD
ENDBRANCH  14  17
BRANCH  15  19
HETATM   19  O5  UNL     1      29.863  -4.781  12.121  1.00  0.00    -0.388 OA
ATOM     20  H5  UNL     1      30.207  -5.176  12.914  1.00  0.00     0.210 HD
ENDBRANCH  15  19
BRANCH  16  21
HETATM   21  O6  UNL     1      29.804  -1.907  14.111  1.00  0.00    -0.390 OA
ATOM     22  H6  UNL     1      28.870  -1.802  13.976  1.00  0.00     0.210 HD
ENDBRANCH  16  21
ENDBRANCH  11  12
ENDBRANCH  10  11
ENDBRANCH   9  10
ENDBRANCH   8   9
ENDBRANCH   7   8
ENDBRANCH   2   7
BRANCH   1  23
HETATM   23  O2  UNL     1      28.152  -0.363   5.341  1.00  0.00    -0.310 OA
BRANCH  23  24
HETATM   24  C7  UNL     1      27.873   0.836   4.718  1.00  0.00     0.283 C 
HETATM   25  O1  UNL     1      27.367   0.742   3.543  1.00  0.00    -0.260 OA
BRANCH  24  26
HETATM   26  C6  UNL     1      28.117   2.112   5.313  1.00  0.00     0.089 C 
HETATM   27  C4  UNL     1      29.227   2.781   5.154  1.00  0.00    -0.057 C 
HETATM   28  C5  UNL     1      30.356   2.291   4.336  1.00  0.00     0.048 C 
BRANCH  27  29
HETATM   29  C3  UNL     1      29.347   4.074   5.817  1.00  0.00     0.002 C 
HETATM   30  C2  UNL     1      28.970   4.315   7.052  1.00  0.00    -0.030 C 
HETATM   31  C1  UNL     1      29.186   5.733   7.543  1.00  0.00     0.036 C 
ENDBRANCH  27  29
ENDBRANCH  24  26
ENDBRANCH  23  24
ENDBRANCH   1  23
BRANCH   6  32
HETATM   32  O9  UNL     1      26.562  -1.746   7.014  1.00  0.00    -0.390 OA
ATOM     33  H9  UNL     1      26.439  -1.613   6.081  1.00  0.00     0.210 HD
ENDBRANCH   6  32
BRANCH   4  34
HETATM   34  O7  UNL     1      30.625  -3.146   7.933  1.00  0.00    -0.393 OA
ATOM     35  H7  UNL     1      30.768  -2.392   8.494  1.00  0.00     0.210 HD
ENDBRANCH   4  34
BRANCH   5  36
HETATM   36  O8  UNL     1      28.255  -4.016   7.364  1.00  0.00    -0.390 OA
ATOM     37  H8  UNL     1      27.374  -4.242   7.091  1.00  0.00     0.210 HD
ENDBRANCH   5  36
TORSDOF 16
ENDMDL
MODEL 4
REMARK VINA RESULT: -7.628835663      1.729      2.538
REMARK  16 active torsions:
REMARK  status: ('A' for Active; 'I' for Inactive)
REMARK    1  A    between atoms: C3_3  and  C4_4 
REMARK    2  A    between atoms: C6_6  and  C7_7 
REMARK    3  A    between atoms: C7_7  and  O2_9 
REMARK    4  A    between atoms: O2_9  and  C8_10 
REMARK    5  A    between atoms: C9_11  and  C10_12 
REMARK    6  A    between atoms: C10_12  and  C11_13 
REMARK    7  A    between atoms: C11_13  and  C12_14 
REMARK    8  A    between atoms: C12_14  and  C13_15 
REMARK    9  A    between atoms: C13_15  and  C14_16 
REMARK   10  A    between atoms: C14_16  and  C15_17 
REMARK   11  A    between atoms: C16_19  and  O4_20 
REMARK   12  A    between atoms: C17_22  and  O5_23 
REMARK   13  A    between atoms: C18_25  and  O6_26 
REMARK   14  A    between atoms: C20_29  and  O7_30 
REMARK   15  A    between atoms: C21_32  and  O8_33 
REMARK   16  A    between atoms: C22_35  and  O9_36 
ROOT
HETATM    1  C8  UNL     1      27.750  -1.554   8.191  1.00  0.00     0.167 C 
HETATM    2  C9  UNL     1      28.916  -0.827   8.779  1.00  0.00     0.020 C 
HETATM    3  C19 UNL     1      30.119  -0.873   7.862  1.00  0.00     0.041 C 
HETATM    4  C20 UNL     1      30.410  -2.246   7.361  1.00  0.00     0.150 C 
HETATM    5  C21 UNL     1      29.224  -2.997   6.866  1.00  0.00     0.178 C 
HETATM    6  C22 UNL     1      28.051  -2.959   7.795  1.00  0.00     0.179 C 
ENDROOT
BRANCH   2   7
HETATM    7  C10 UNL     1      29.313  -1.305  10.152  1.00  0.00     0.007 C 
BRANCH   7   8
HETATM    8  C11 UNL     1      29.749  -0.152  11.015  1.00  0.00     0.000 C 
BRANCH   8   9
HETATM    9  C12 UNL     1      30.791  -0.622  12.025  1.00  0.00     0.000 C 
BRANCH   9  10
HETATM   10  C13 UNL     1      32.172  -0.232  11.606  1.00  0.00     0.002 C 
BRANCH  10  11
HETATM   11  C14 UNL     1      32.806  -1.208  10.652  1.00  0.00     0.035 C 
BRANCH  11  12
HETATM   12  C15 UNL     1      33.869  -2.051  11.292  1.00  0.00     0.156 C 
HETATM   13  O3  UNL     1      35.065  -2.057  10.626  1.00  0.00    -0.351 OA
HETATM   14  C16 UNL     1      35.007  -2.981   9.604  1.00  0.00     0.288 C 
HETATM   15  C17 UNL     1      34.384  -4.177  10.300  1.00  0.00     0.204 C 
HETATM   16  C18 UNL     1      33.415  -3.494  11.248  1.00  0.00     0.180 C 
BRANCH  14  17
HETATM   17  O4  UNL     1      36.301  -3.236   9.173  1.00  0.00    -0.369 OA
ATOM     18  H4  UNL     1      36.551  -2.553   8.563  1.00  0.00     0.212 HD
ENDBRANCH  14  17
BRANCH  15  19
HETATM   19  O5  UNL     1      35.362  -4.820  11.044  1.00  0.00    -0.388 OA
ATOM     20  H5  UNL     1      35.692  -5.558  10.544  1.00  0.00     0.210 HD
ENDBRANCH  15  19
BRANCH  16  21
HETATM   21  O6  UNL     1      32.103  -3.592  10.739  1.00  0.00    -0.390 OA
ATOM     22  H6  UNL     1      32.060  -4.229  10.036  1.00  0.00     0.210 HD
ENDBRANCH  16  21
ENDBRANCH  11  12
ENDBRANCH  10  11
ENDBRANCH   9  10
ENDBRANCH   8   9
ENDBRANCH   7   8
ENDBRANCH   2   7
BRANCH   1  23
HETATM   23  O2  UNL     1      27.359  -0.836   7.004  1.00  0.00    -0.310 OA
BRANCH  23  24
HETATM   24  C7  UNL     1      26.699   0.371   7.097  1.00  0.00     0.283 C 
HETATM   25  O1  UNL     1      25.422   0.310   6.995  1.00  0.00    -0.260 OA
BRANCH  24  26
HETATM   26  C6  UNL     1      27.361   1.622   7.296  1.00  0.00     0.089 C 
HETATM   27  C4  UNL     1      28.015   2.249   6.355  1.00  0.00    -0.057 C 
HETATM   28  C5  UNL     1      28.140   1.732   4.977  1.00  0.00     0.048 C 
BRANCH  27  29
HETATM   29  C3  UNL     1      28.645   3.520   6.692  1.00  0.00     0.002 C 
HETATM   30  C2  UNL     1      28.393   4.212   7.779  1.00  0.00    -0.030 C 
HETATM   31  C1  UNL     1      29.163   5.509   7.930  1.00  0.00     0.036 C 
ENDBRANCH  27  29
ENDBRANCH  24  26
ENDBRANCH  23  24
ENDBRANCH   1  23
BRANCH   6  32
HETATM   32  O9  UNL     1      26.936  -3.489   7.146  1.00  0.00    -0.390 OA
ATOM     33  H9  UNL     1      26.787  -4.370   7.468  1.00  0.00     0.210 HD
ENDBRANCH   6  32
BRANCH   4  34
HETATM   34  O7  UNL     1      31.148  -2.975   8.289  1.00  0.00    -0.393 OA
ATOM     35  H7  UNL     1      31.847  -3.462   7.868  1.00  0.00     0.210 HD
ENDBRANCH   4  34
BRANCH   5  36
HETATM   36  O8  UNL     1      29.625  -4.332   6.697  1.00  0.00    -0.390 OA
ATOM     37  H8  UNL     1      29.013  -4.731   6.089  1.00  0.00     0.210 HD
ENDBRANCH   5  36
TORSDOF 16
ENDMDL
MODEL 5
REMARK VINA RESULT: -7.590095247      1.997      3.483
REMARK  16 active torsions:
REMARK  status: ('A' for Active; 'I' for Inactive)
REMARK    1  A    between atoms: C3_3  and  C4_4 
REMARK    2  A    between atoms: C6_6  and  C7_7 
REMARK    3  A    between atoms: C7_7  and  O2_9 
REMARK    4  A    between atoms: O2_9  and  C8_10 
REMARK    5  A    between atoms: C9_11  and  C10_12 
REMARK    6  A    between atoms: C10_12  and  C11_13 
REMARK    7  A    between atoms: C11_13  and  C12_14 
REMARK    8  A    between atoms: C12_14  and  C13_15 
REMARK    9  A    between atoms: C13_15  and  C14_16 
REMARK   10  A    between atoms: C14_16  and  C15_17 
REMARK   11  A    between atoms: C16_19  and  O4_20 
REMARK   12  A    between atoms: C17_22  and  O5_23 
REMARK   13  A    between atoms: C18_25  and  O6_26 
REMARK   14  A    between atoms: C20_29  and  O7_30 
REMARK   15  A    between atoms: C21_32  and  O8_33 
REMARK   16  A    between atoms: C22_35  and  O9_36 
ROOT
HETATM    1  C8  UNL     1      28.437  -0.084   6.658  1.00  0.00     0.167 C 
HETATM    2  C9  UNL     1      29.707  -0.797   6.320  1.00  0.00     0.020 C 
HETATM    3  C19 UNL     1      29.448  -2.232   5.917  1.00  0.00     0.041 C 
HETATM    4  C20 UNL     1      28.550  -2.945   6.870  1.00  0.00     0.150 C 
HETATM    5  C21 UNL     1      27.334  -2.185   7.273  1.00  0.00     0.178 C 
HETATM    6  C22 UNL     1      27.612  -0.774   7.689  1.00  0.00     0.179 C 
ENDROOT
BRANCH   2   7
HETATM    7  C10 UNL     1      30.744  -0.761   7.414  1.00  0.00     0.007 C 
BRANCH   7   8
HETATM    8  C11 UNL     1      31.240   0.642   7.635  1.00  0.00     0.000 C 
BRANCH   8   9
HETATM    9  C12 UNL     1      31.376   0.917   9.130  1.00  0.00     0.000 C 
BRANCH   9  10
HETATM   10  C13 UNL     1      30.039   1.050   9.785  1.00  0.00     0.002 C 
BRANCH  10  11
HETATM   11  C14 UNL     1      29.966   0.396  11.138  1.00  0.00     0.035 C 
BRANCH  11  12
HETATM   12  C15 UNL     1      30.583  -0.972  11.164  1.00  0.00     0.156 C 
HETATM   13  O3  UNL     1      29.889  -1.919  10.460  1.00  0.00    -0.351 OA
HETATM   14  C16 UNL     1      28.869  -2.409  11.250  1.00  0.00     0.288 C 
HETATM   15  C17 UNL     1      29.581  -2.642  12.570  1.00  0.00     0.204 C 
HETATM   16  C18 UNL     1      30.551  -1.475  12.591  1.00  0.00     0.180 C 
BRANCH  14  17
HETATM   17  O4  UNL     1      28.408  -3.588  10.683  1.00  0.00    -0.369 OA
ATOM     18  H4  UNL     1      29.156  -4.073  10.355  1.00  0.00     0.212 HD
ENDBRANCH  14  17
BRANCH  15  19
HETATM   19  O5  UNL     1      30.302  -3.824  12.485  1.00  0.00    -0.388 OA
ATOM     20  H5  UNL     1      29.935  -4.451  13.098  1.00  0.00     0.210 HD
ENDBRANCH  15  19
BRANCH  16  21
HETATM   21  O6  UNL     1      30.072  -0.475  13.465  1.00  0.00    -0.390 OA
ATOM     22  H6  UNL     1      30.261  -0.699  14.369  1.00  0.00     0.210 HD
ENDBRANCH  16  21
ENDBRANCH  11  12
ENDBRANCH  10  11
ENDBRANCH   9  10
ENDBRANCH   8   9
ENDBRANCH   7   8
ENDBRANCH   2   7
BRANCH   1  23
HETATM   23  O2  UNL     1      27.660  -0.011   5.446  1.00  0.00    -0.310 OA
BRANCH  23  24
HETATM   24  C7  UNL     1      27.783   1.067   4.595  1.00  0.00     0.283 C 
HETATM   25  O1  UNL     1      27.445   0.848   3.377  1.00  0.00    -0.260 OA
BRANCH  24  26
HETATM   26  C6  UNL     1      28.250   2.352   5.008  1.00  0.00     0.089 C 
HETATM   27  C4  UNL     1      29.477   2.764   4.830  1.00  0.00    -0.057 C 
HETATM   28  C5  UNL     1      30.518   1.945   4.177  1.00  0.00     0.048 C 
BRANCH  27  29
HETATM   29  C3  UNL     1      29.823   4.101   5.300  1.00  0.00     0.002 C 
HETATM   30  C2  UNL     1      29.509   4.579   6.482  1.00  0.00    -0.030 C 
HETATM   31  C1  UNL     1      29.969   5.997   6.763  1.00  0.00     0.036 C 
ENDBRANCH  27  29
ENDBRANCH  24  26
ENDBRANCH  23  24
ENDBRANCH   1  23
BRANCH   6  32
HETATM   32  O9  UNL     1      26.404  -0.091   7.825  1.00  0.00    -0.390 OA
ATOM     33  H9  UNL     1      26.157  -0.089   8.742  1.00  0.00     0.210 HD
ENDBRANCH   6  32
BRANCH   4  34
HETATM   34  O7  UNL     1      29.258  -3.429   7.965  1.00  0.00    -0.393 OA
ATOM     35  H7  UNL     1      29.443  -4.357   7.873  1.00  0.00     0.210 HD
ENDBRANCH   4  34
BRANCH   5  36
HETATM   36  O8  UNL     1      26.762  -2.872   8.356  1.00  0.00    -0.390 OA
ATOM     37  H8  UNL     1      25.914  -3.188   8.066  1.00  0.00     0.210 HD
ENDBRANCH   5  36
TORSDOF 16
ENDMDL
