MODEL 1
REMARK VINA RESULT: -6.984116179      0.000      0.000
REMARK  15 active torsions:
REMARK  status: ('A' for Active; 'I' for Inactive)
REMARK    1  A    between atoms: C2_2  and  C4_4 
REMARK    2  A    between atoms: C4_4  and  C5_5 
REMARK    3  A    between atoms: C5_5  and  C6_6 
REMARK    4  A    between atoms: C6_6  and  C7_7 
REMARK    5  A    between atoms: C9_9  and  C10_10 
REMARK    6  A    between atoms: C10_10  and  C11_11 
REMARK    7  A    between atoms: C12_12  and  O1_13 
REMARK    8  A    between atoms: C15_18  and  O3_19 
REMARK    9  A    between atoms: C16_21  and  O4_22 
REMARK   10  A    between atoms: O4_22  and  C17_23 
REMARK   11  A    between atoms: C18_25  and  C19_26 
REMARK   12  A    between atoms: C19_26  and  O6_27 
REMARK   13  A    between atoms: C20_29  and  O7_30 
REMARK   14  A    between atoms: C21_32  and  O8_33 
REMARK   15  A    between atoms: C22_35  and  O9_36 
ROOT
HETATM    1  C11 UNL     1      27.715   1.037   7.249  1.00  0.00     0.076 C 
HETATM    2  C12 UNL     1      26.254   0.841   6.867  1.00  0.00     0.264 C 
HETATM    3  O2  UNL     1      26.212   0.778   5.504  1.00  0.00    -0.353 OA
HETATM    4  C13 UNL     1      26.674  -0.430   5.060  1.00  0.00     0.151 C 
HETATM    5  C14 UNL     1      26.982  -0.243   3.567  1.00  0.00     0.042 C 
HETATM    6  C15 UNL     1      27.822  -1.023   5.789  1.00  0.00     0.176 C 
HETATM    7  C16 UNL     1      28.565  -0.097   6.709  1.00  0.00     0.165 C 
ENDROOT
BRANCH   7   8
HETATM    8  O4  UNL     1      29.092  -0.771   7.802  1.00  0.00    -0.350 OA
BRANCH   8   9
HETATM    9  C17 UNL     1      28.647  -0.323   9.031  1.00  0.00     0.292 C 
HETATM   10  O5  UNL     1      29.740   0.295   9.642  1.00  0.00    -0.348 OA
HETATM   11  C18 UNL     1      30.749  -0.613   9.948  1.00  0.00     0.179 C 
HETATM   12  C20 UNL     1      30.242  -1.722  10.847  1.00  0.00     0.180 C 
HETATM   13  C21 UNL     1      28.789  -1.394  11.203  1.00  0.00     0.183 C 
HETATM   14  C22 UNL     1      28.029  -1.389   9.896  1.00  0.00     0.204 C 
BRANCH  11  15
HETATM   15  C19 UNL     1      31.812   0.135  10.722  1.00  0.00     0.198 C 
BRANCH  15  16
HETATM   16  O6  UNL     1      31.221   1.100  11.522  1.00  0.00    -0.398 OA
ATOM     17  H6  UNL     1      31.106   0.763  12.403  1.00  0.00     0.209 HD
ENDBRANCH  15  16
ENDBRANCH  11  15
BRANCH  12  18
HETATM   18  O7  UNL     1      31.007  -1.901  11.980  1.00  0.00    -0.390 OA
ATOM     19  H7  UNL     1      30.508  -1.841  12.786  1.00  0.00     0.210 HD
ENDBRANCH  12  18
BRANCH  13  20
HETATM   20  O8  UNL     1      28.795  -0.123  11.773  1.00  0.00    -0.390 OA
ATOM     21  H8  UNL     1      28.020  -0.066  12.319  1.00  0.00     0.210 HD
ENDBRANCH  13  20
BRANCH  14  22
HETATM   22  O9  UNL     1      26.704  -1.097  10.219  1.00  0.00    -0.388 OA
ATOM     23  H9  UNL     1      26.263  -1.839  10.617  1.00  0.00     0.210 HD
ENDBRANCH  14  22
ENDBRANCH   8   9
ENDBRANCH   7   8
BRANCH   1  24
HETATM   24  C10 UNL     1      28.089   2.361   6.570  1.00  0.00     0.039 C 
BRANCH  24  25
HETATM   25  C9  UNL     1      29.513   2.507   6.297  1.00  0.00    -0.024 C 
HETATM   26  C7  UNL     1      29.948   2.640   5.054  1.00  0.00    -0.087 C 
HETATM   27  C8  UNL     1      28.982   2.643   3.921  1.00  0.00     0.043 C 
BRANCH  26  28
HETATM   28  C6  UNL     1      31.399   2.795   4.694  1.00  0.00     0.034 C 
BRANCH  28  29
HETATM   29  C5  UNL     1      32.019   3.945   5.406  1.00  0.00     0.009 C 
BRANCH  29  30
HETATM   30  C4  UNL     1      31.788   5.299   4.862  1.00  0.00     0.033 C 
BRANCH  30  31
HETATM   31  C2  UNL     1      30.671   6.077   5.410  1.00  0.00    -0.093 C 
HETATM   32  C1  UNL     1      29.922   6.871   4.616  1.00  0.00     0.014 C 
HETATM   33  C3  UNL     1      30.243   6.042   6.852  1.00  0.00     0.042 C 
ENDBRANCH  30  31
ENDBRANCH  29  30
ENDBRANCH  28  29
ENDBRANCH  26  28
ENDBRANCH  24  25
ENDBRANCH   1  24
BRANCH   6  34
HETATM   34  O3  UNL     1      27.361  -2.172   6.477  1.00  0.00    -0.390 OA
ATOM     35  H3  UNL     1      27.932  -2.898   6.255  1.00  0.00     0.210 HD
ENDBRANCH   6  34
BRANCH   2  36
HETATM   36  O1  UNL     1      25.620  -0.153   7.557  1.00  0.00    -0.371 OA
ATOM     37  H1  UNL     1      25.628  -0.042   8.501  1.00  0.00     0.212 HD
ENDBRANCH   2  36
TORSDOF 15
ENDMDL
MODEL 2
REMARK VINA RESULT: -6.920485647      1.379      2.644
REMARK  15 active torsions:
REMARK  status: ('A' for Active; 'I' for Inactive)
REMARK    1  A    between atoms: C2_2  and  C4_4 
REMARK    2  A    between atoms: C4_4  and  C5_5 
REMARK    3  A    between atoms: C5_5  and  C6_6 
REMARK    4  A    between atoms: C6_6  and  C7_7 
REMARK    5  A    between atoms: C9_9  and  C10_10 
REMARK    6  A    between atoms: C10_10  and  C11_11 
REMARK    7  A    between atoms: C12_12  and  O1_13 
REMARK    8  A    between atoms: C15_18  and  O3_19 
REMARK    9  A    between atoms: C16_21  and  O4_22 
REMARK   10  A    between atoms: O4_22  and  C17_23 
REMARK   11  A    between atoms: C18_25  and  C19_26 
REMARK   12  A    between atoms: C19_26  and  O6_27 
REMARK   13  A    between atoms: C20_29  and  O7_30 
REMARK   14  A    between atoms: C21_32  and  O8_33 
REMARK   15  A    between atoms: C22_35  and  O9_36 
ROOT
HETATM    1  C11 UNL     1      27.751   1.065   7.184  1.00  0.00     0.076 C 
HETATM    2  C12 UNL     1      26.272   0.914   6.853  1.00  0.00     0.264 C 
HETATM    3  O2  UNL     1      26.186   0.801   5.495  1.00  0.00    -0.353 OA
HETATM    4  C13 UNL     1      26.586  -0.442   5.087  1.00  0.00     0.151 C 
HETATM    5  C14 UNL     1      26.856  -0.325   3.579  1.00  0.00     0.042 C 
HETATM    6  C15 UNL     1      27.731  -1.053   5.805  1.00  0.00     0.176 C 
HETATM    7  C16 UNL     1      28.539  -0.124   6.666  1.00  0.00     0.165 C 
ENDROOT
BRANCH   7   8
HETATM    8  O4  UNL     1      29.071  -0.776   7.768  1.00  0.00    -0.350 OA
BRANCH   8   9
HETATM    9  C17 UNL     1      28.630  -0.306   8.991  1.00  0.00     0.292 C 
HETATM   10  O5  UNL     1      29.722   0.332   9.584  1.00  0.00    -0.348 OA
HETATM   11  C18 UNL     1      30.738  -0.563   9.902  1.00  0.00     0.179 C 
HETATM   12  C20 UNL     1      30.244  -1.658  10.825  1.00  0.00     0.180 C 
HETATM   13  C21 UNL     1      28.791  -1.333  11.183  1.00  0.00     0.183 C 
HETATM   14  C22 UNL     1      28.023  -1.360   9.880  1.00  0.00     0.204 C 
BRANCH  11  15
HETATM   15  C19 UNL     1      31.800   0.207  10.655  1.00  0.00     0.198 C 
BRANCH  15  16
HETATM   16  O6  UNL     1      31.206   1.181  11.441  1.00  0.00    -0.398 OA
ATOM     17  H6  UNL     1      31.861   1.597  11.990  1.00  0.00     0.209 HD
ENDBRANCH  15  16
ENDBRANCH  11  15
BRANCH  12  18
HETATM   18  O7  UNL     1      31.017  -1.809  11.957  1.00  0.00    -0.390 OA
ATOM     19  H7  UNL     1      31.875  -2.176  11.782  1.00  0.00     0.210 HD
ENDBRANCH  12  18
BRANCH  13  20
HETATM   20  O8  UNL     1      28.791  -0.050  11.728  1.00  0.00    -0.390 OA
ATOM     21  H8  UNL     1      27.900   0.272  11.664  1.00  0.00     0.210 HD
ENDBRANCH  13  20
BRANCH  14  22
HETATM   22  O9  UNL     1      26.698  -1.070  10.204  1.00  0.00    -0.388 OA
ATOM     23  H9  UNL     1      26.092  -1.416   9.560  1.00  0.00     0.210 HD
ENDBRANCH  14  22
ENDBRANCH   8   9
ENDBRANCH   7   8
BRANCH   1  24
HETATM   24  C10 UNL     1      28.157   2.345   6.443  1.00  0.00     0.039 C 
BRANCH  24  25
HETATM   25  C9  UNL     1      29.578   2.425   6.130  1.00  0.00    -0.024 C 
HETATM   26  C7  UNL     1      29.987   2.460   4.872  1.00  0.00    -0.087 C 
HETATM   27  C8  UNL     1      28.996   2.419   3.762  1.00  0.00     0.043 C 
BRANCH  26  28
HETATM   28  C6  UNL     1      31.433   2.543   4.471  1.00  0.00     0.034 C 
BRANCH  28  29
HETATM   29  C5  UNL     1      32.193   1.341   4.911  1.00  0.00     0.009 C 
BRANCH  29  30
HETATM   30  C4  UNL     1      32.800   0.489   3.868  1.00  0.00     0.033 C 
BRANCH  30  31
HETATM   31  C2  UNL     1      31.948  -0.513   3.218  1.00  0.00    -0.093 C 
HETATM   32  C1  UNL     1      32.161  -0.881   1.938  1.00  0.00     0.014 C 
HETATM   33  C3  UNL     1      30.814  -1.230   3.901  1.00  0.00     0.042 C 
ENDBRANCH  30  31
ENDBRANCH  29  30
ENDBRANCH  28  29
ENDBRANCH  26  28
ENDBRANCH  24  25
ENDBRANCH   1  24
BRANCH   6  34
HETATM   34  O3  UNL     1      27.246  -2.155   6.550  1.00  0.00    -0.390 OA
ATOM     35  H3  UNL     1      26.325  -2.007   6.730  1.00  0.00     0.210 HD
ENDBRANCH   6  34
BRANCH   2  36
HETATM   36  O1  UNL     1      25.621  -0.026   7.600  1.00  0.00    -0.371 OA
ATOM     37  H1  UNL     1      25.421  -0.829   7.132  1.00  0.00     0.212 HD
ENDBRANCH   2  36
TORSDOF 15
ENDMDL
MODEL 3
REMARK VINA RESULT: -6.882187284      1.131      1.728
REMARK  15 active torsions:
REMARK  status: ('A' for Active; 'I' for Inactive)
REMARK    1  A    between atoms: C2_2  and  C4_4 
REMARK    2  A    between atoms: C4_4  and  C5_5 
REMARK    3  A    between atoms: C5_5  and  C6_6 
REMARK    4  A    between atoms: C6_6  and  C7_7 
REMARK    5  A    between atoms: C9_9  and  C10_10 
REMARK    6  A    between atoms: C10_10  and  C11_11 
REMARK    7  A    between atoms: C12_12  and  O1_13 
REMARK    8  A    between atoms: C15_18  and  O3_19 
REMARK    9  A    between atoms: C16_21  and  O4_22 
REMARK   10  A    between atoms: O4_22  and  C17_23 
REMARK   11  A    between atoms: C18_25  and  C19_26 
REMARK   12  A    between atoms: C19_26  and  O6_27 
REMARK   13  A    between atoms: C20_29  and  O7_30 
REMARK   14  A    between atoms: C21_32  and  O8_33 
REMARK   15  A    between atoms: C22_35  and  O9_36 
ROOT
HETATM    1  C11 UNL     1      27.603   1.240   7.632  1.00  0.00     0.076 C 
HETATM    2  C12 UNL     1      26.344   0.788   6.905  1.00  0.00     0.264 C 
HETATM    3  O2  UNL     1      26.528   1.085   5.585  1.00  0.00    -0.353 OA
HETATM    4  C13 UNL     1      27.394   0.200   5.005  1.00  0.00     0.151 C 
HETATM    5  C14 UNL     1      27.851   0.853   3.693  1.00  0.00     0.042 C 
HETATM    6  C15 UNL     1      28.544  -0.255   5.824  1.00  0.00     0.176 C 
HETATM    7  C16 UNL     1      28.827   0.547   7.063  1.00  0.00     0.165 C 
ENDROOT
BRANCH   7   8
HETATM    8  O4  UNL     1      29.362  -0.238   8.073  1.00  0.00    -0.350 OA
BRANCH   8   9
HETATM    9  C17 UNL     1      28.770  -0.076   9.311  1.00  0.00     0.292 C 
HETATM   10  O5  UNL     1      29.756   0.444  10.153  1.00  0.00    -0.348 OA
HETATM   11  C18 UNL     1      30.784  -0.466  10.377  1.00  0.00     0.179 C 
HETATM   12  C20 UNL     1      30.260  -1.759  10.968  1.00  0.00     0.180 C 
HETATM   13  C21 UNL     1      28.761  -1.572  11.221  1.00  0.00     0.183 C 
HETATM   14  C22 UNL     1      28.136  -1.324   9.866  1.00  0.00     0.204 C 
BRANCH  11  15
HETATM   15  C19 UNL     1      31.715   0.145  11.400  1.00  0.00     0.198 C 
BRANCH  15  16
HETATM   16  O6  UNL     1      30.994   0.939  12.277  1.00  0.00    -0.398 OA
ATOM     17  H6  UNL     1      31.588   1.468  12.797  1.00  0.00     0.209 HD
ENDBRANCH  15  16
ENDBRANCH  11  15
BRANCH  12  18
HETATM   18  O7  UNL     1      30.918  -2.140  12.118  1.00  0.00    -0.390 OA
ATOM     19  H7  UNL     1      31.578  -2.807  11.971  1.00  0.00     0.210 HD
ENDBRANCH  12  18
BRANCH  13  20
HETATM   20  O8  UNL     1      28.631  -0.449  12.036  1.00  0.00    -0.390 OA
ATOM     21  H8  UNL     1      27.819  -0.557  12.519  1.00  0.00     0.210 HD
ENDBRANCH  13  20
BRANCH  14  22
HETATM   22  O9  UNL     1      26.770  -1.160  10.093  1.00  0.00    -0.388 OA
ATOM     23  H9  UNL     1      26.379  -1.934  10.482  1.00  0.00     0.210 HD
ENDBRANCH  14  22
ENDBRANCH   8   9
ENDBRANCH   7   8
BRANCH   1  24
HETATM   24  C10 UNL     1      27.659   2.747   7.353  1.00  0.00     0.039 C 
BRANCH  24  25
HETATM   25  C9  UNL     1      28.946   3.212   6.853  1.00  0.00    -0.024 C 
HETATM   26  C7  UNL     1      29.427   4.387   7.227  1.00  0.00    -0.087 C 
HETATM   27  C8  UNL     1      28.654   5.247   8.165  1.00  0.00     0.043 C 
BRANCH  26  28
HETATM   28  C6  UNL     1      30.745   4.933   6.755  1.00  0.00     0.034 C 
BRANCH  28  29
HETATM   29  C5  UNL     1      30.582   6.251   6.085  1.00  0.00     0.009 C 
BRANCH  29  30
HETATM   30  C4  UNL     1      29.911   6.279   4.769  1.00  0.00     0.033 C 
BRANCH  30  31
HETATM   31  C2  UNL     1      30.027   7.499   3.964  1.00  0.00    -0.093 C 
HETATM   32  C1  UNL     1      31.221   7.902   3.480  1.00  0.00     0.014 C 
HETATM   33  C3  UNL     1      28.863   8.374   3.580  1.00  0.00     0.042 C 
ENDBRANCH  30  31
ENDBRANCH  29  30
ENDBRANCH  28  29
ENDBRANCH  26  28
ENDBRANCH  24  25
ENDBRANCH   1  24
BRANCH   6  34
HETATM   34  O3  UNL     1      28.354  -1.624   6.130  1.00  0.00    -0.390 OA
ATOM     35  H3  UNL     1      28.560  -1.753   7.048  1.00  0.00     0.210 HD
ENDBRANCH   6  34
BRANCH   2  36
HETATM   36  O1  UNL     1      25.944  -0.483   7.209  1.00  0.00    -0.371 OA
ATOM     37  H1  UNL     1      25.159  -0.765   6.754  1.00  0.00     0.212 HD
ENDBRANCH   2  36
TORSDOF 15
ENDMDL
MODEL 4
REMARK VINA RESULT: -6.843508438      2.142      3.449
REMARK  15 active torsions:
REMARK  status: ('A' for Active; 'I' for Inactive)
REMARK    1  A    between atoms: C2_2  and  C4_4 
REMARK    2  A    between atoms: C4_4  and  C5_5 
REMARK    3  A    between atoms: C5_5  and  C6_6 
REMARK    4  A    between atoms: C6_6  and  C7_7 
REMARK    5  A    between atoms: C9_9  and  C10_10 
REMARK    6  A    between atoms: C10_10  and  C11_11 
REMARK    7  A    between atoms: C12_12  and  O1_13 
REMARK    8  A    between atoms: C15_18  and  O3_19 
REMARK    9  A    between atoms: C16_21  and  O4_22 
REMARK   10  A    between atoms: O4_22  and  C17_23 
REMARK   11  A    between atoms: C18_25  and  C19_26 
REMARK   12  A    between atoms: C19_26  and  O6_27 
REMARK   13  A    between atoms: C20_29  and  O7_30 
REMARK   14  A    between atoms: C21_32  and  O8_33 
REMARK   15  A    between atoms: C22_35  and  O9_36 
ROOT
HETATM    1  C11 UNL     1      28.044  -2.093   8.153  1.00  0.00     0.076 C 
HETATM    2  C12 UNL     1      28.006  -3.119   7.028  1.00  0.00     0.264 C 
HETATM    3  O2  UNL     1      28.496  -2.497   5.915  1.00  0.00    -0.353 OA
HETATM    4  C13 UNL     1      29.855  -2.369   5.992  1.00  0.00     0.151 C 
HETATM    5  C14 UNL     1      30.241  -1.315   4.944  1.00  0.00     0.042 C 
HETATM    6  C15 UNL     1      30.431  -2.058   7.323  1.00  0.00     0.176 C 
HETATM    7  C16 UNL     1      29.458  -1.587   8.367  1.00  0.00     0.165 C 
ENDROOT
BRANCH   7   8
HETATM    8  O4  UNL     1      29.844  -1.973   9.642  1.00  0.00    -0.350 OA
BRANCH   8   9
HETATM    9  C17 UNL     1      29.879  -0.952  10.573  1.00  0.00     0.292 C 
HETATM   10  O5  UNL     1      31.178  -0.934  11.086  1.00  0.00    -0.348 OA
HETATM   11  C18 UNL     1      31.465  -2.081  11.818  1.00  0.00     0.179 C 
HETATM   12  C20 UNL     1      30.486  -2.270  12.959  1.00  0.00     0.180 C 
HETATM   13  C21 UNL     1      29.563  -1.048  12.976  1.00  0.00     0.183 C 
HETATM   14  C22 UNL     1      28.833  -1.056  11.651  1.00  0.00     0.204 C 
BRANCH  11  15
HETATM   15  C19 UNL     1      32.834  -1.894  12.435  1.00  0.00     0.198 C 
BRANCH  15  16
HETATM   16  O6  UNL     1      33.051  -0.551  12.699  1.00  0.00    -0.398 OA
ATOM     17  H6  UNL     1      33.827  -0.450  13.239  1.00  0.00     0.209 HD
ENDBRANCH  15  16
ENDBRANCH  11  15
BRANCH  12  18
HETATM   18  O7  UNL     1      31.097  -2.454  14.181  1.00  0.00    -0.390 OA
ATOM     19  H7  UNL     1      30.498  -2.726  14.865  1.00  0.00     0.210 HD
ENDBRANCH  12  18
BRANCH  13  20
HETATM   20  O8  UNL     1      30.386   0.072  13.078  1.00  0.00    -0.390 OA
ATOM     21  H8  UNL     1      30.703   0.094  13.973  1.00  0.00     0.210 HD
ENDBRANCH  13  20
BRANCH  14  22
HETATM   22  O9  UNL     1      27.988   0.052  11.668  1.00  0.00    -0.388 OA
ATOM     23  H9  UNL     1      27.203  -0.092  11.153  1.00  0.00     0.210 HD
ENDBRANCH  14  22
ENDBRANCH   8   9
ENDBRANCH   7   8
BRANCH   1  24
HETATM   24  C10 UNL     1      27.139  -0.965   7.642  1.00  0.00     0.039 C 
BRANCH  24  25
HETATM   25  C9  UNL     1      27.659   0.373   7.893  1.00  0.00    -0.024 C 
HETATM   26  C7  UNL     1      26.971   1.441   7.522  1.00  0.00    -0.087 C 
HETATM   27  C8  UNL     1      25.655   1.284   6.842  1.00  0.00     0.043 C 
BRANCH  26  28
HETATM   28  C6  UNL     1      27.441   2.851   7.747  1.00  0.00     0.034 C 
BRANCH  28  29
HETATM   29  C5  UNL     1      28.847   3.037   7.299  1.00  0.00     0.009 C 
BRANCH  29  30
HETATM   30  C4  UNL     1      29.074   3.584   5.945  1.00  0.00     0.033 C 
BRANCH  30  31
HETATM   31  C2  UNL     1      29.447   2.647   4.880  1.00  0.00    -0.093 C 
HETATM   32  C1  UNL     1      28.506   2.011   4.152  1.00  0.00     0.014 C 
HETATM   33  C3  UNL     1      30.866   2.341   4.482  1.00  0.00     0.042 C 
ENDBRANCH  30  31
ENDBRANCH  29  30
ENDBRANCH  28  29
ENDBRANCH  26  28
ENDBRANCH  24  25
ENDBRANCH   1  24
BRANCH   6  34
HETATM   34  O3  UNL     1      31.153  -3.193   7.768  1.00  0.00    -0.390 OA
ATOM     35  H3  UNL     1      31.118  -3.213   8.717  1.00  0.00     0.210 HD
ENDBRANCH   6  34
BRANCH   2  36
HETATM   36  O1  UNL     1      28.544  -4.332   7.353  1.00  0.00    -0.371 OA
ATOM     37  H1  UNL     1      28.110  -4.772   8.074  1.00  0.00     0.212 HD
ENDBRANCH   2  36
TORSDOF 15
ENDMDL
MODEL 5
REMARK VINA RESULT: -6.785352696      1.985      3.452
REMARK  15 active torsions:
REMARK  status: ('A' for Active; 'I' for Inactive)
REMARK    1  A    between atoms: C2_2  and  C4_4 
REMARK    2  A    between atoms: C4_4  and  C5_5 
REMARK    3  A    between atoms: C5_5  and  C6_6 
REMARK    4  A    between atoms: C6_6  and  C7_7 
REMARK    5  A    between atoms: C9_9  and  C10_10 
REMARK    6  A    between atoms: C10_10  and  C11_11 
REMARK    7  A    between atoms: C12_12  and  O1_13 
REMARK    8  A    between atoms: C15_18  and  O3_19 
REMARK    9  A    between atoms: C16_21  and  O4_22 
REMARK   10  A    between atoms: O4_22  and  C17_23 
REMARK   11  A    between atoms: C18_25  and  C19_26 
REMARK   12  A    between atoms: C19_26  and  O6_27 
REMARK   13  A    between atoms: C20_29  and  O7_30 
REMARK   14  A    between atoms: C21_32  and  O8_33 
REMARK   15  A    between atoms: C22_35  and  O9_36 
ROOT
HETATM    1  C11 UNL     1      28.925  -0.062   5.140  1.00  0.00     0.076 C 
HETATM    2  C12 UNL     1      29.597  -0.098   3.774  1.00  0.00     0.264 C 
HETATM    3  O2  UNL     1      30.304   1.065   3.657  1.00  0.00    -0.353 OA
HETATM    4  C13 UNL     1      31.442   1.018   4.414  1.00  0.00     0.151 C 
HETATM    5  C14 UNL     1      31.920   2.471   4.550  1.00  0.00     0.042 C 
HETATM    6  C15 UNL     1      31.349   0.343   5.732  1.00  0.00     0.176 C 
HETATM    7  C16 UNL     1      29.960   0.083   6.241  1.00  0.00     0.165 C 
ENDROOT
BRANCH   7   8
HETATM    8  O4  UNL     1      29.901  -1.068   7.013  1.00  0.00    -0.350 OA
BRANCH   8   9
HETATM    9  C17 UNL     1      28.667  -1.328   7.576  1.00  0.00     0.292 C 
HETATM   10  O5  UNL     1      28.582  -0.534   8.722  1.00  0.00    -0.348 OA
HETATM   11  C18 UNL     1      29.497  -0.924   9.695  1.00  0.00     0.179 C 
HETATM   12  C20 UNL     1      29.306  -2.376  10.085  1.00  0.00     0.180 C 
HETATM   13  C21 UNL     1      28.076  -2.893   9.333  1.00  0.00     0.183 C 
HETATM   14  C22 UNL     1      28.407  -2.784   7.862  1.00  0.00     0.204 C 
BRANCH  11  15
HETATM   15  C19 UNL     1      29.226  -0.094  10.930  1.00  0.00     0.198 C 
BRANCH  15  16
HETATM   16  O6  UNL     1      27.877   0.213  11.004  1.00  0.00    -0.398 OA
ATOM     17  H6  UNL     1      27.711   0.760  11.763  1.00  0.00     0.209 HD
ENDBRANCH  15  16
ENDBRANCH  11  15
BRANCH  12  18
HETATM   18  O7  UNL     1      29.179  -2.565  11.444  1.00  0.00    -0.390 OA
ATOM     19  H7  UNL     1      28.310  -2.369  11.774  1.00  0.00     0.210 HD
ENDBRANCH  12  18
BRANCH  13  20
HETATM   20  O8  UNL     1      27.021  -2.045   9.664  1.00  0.00    -0.390 OA
ATOM     21  H8  UNL     1      26.250  -2.593   9.758  1.00  0.00     0.210 HD
ENDBRANCH  13  20
BRANCH  14  22
HETATM   22  O9  UNL     1      27.291  -3.260   7.177  1.00  0.00    -0.388 OA
ATOM     23  H9  UNL     1      26.719  -3.770   7.739  1.00  0.00     0.210 HD
ENDBRANCH  14  22
ENDBRANCH   8   9
ENDBRANCH   7   8
BRANCH   1  24
HETATM   24  C10 UNL     1      28.034   1.185   5.071  1.00  0.00     0.039 C 
BRANCH  24  25
HETATM   25  C9  UNL     1      28.277   2.148   6.137  1.00  0.00    -0.024 C 
HETATM   26  C7  UNL     1      27.414   2.280   7.131  1.00  0.00    -0.087 C 
HETATM   27  C8  UNL     1      26.183   1.441   7.169  1.00  0.00     0.043 C 
BRANCH  26  28
HETATM   28  C6  UNL     1      27.594   3.249   8.265  1.00  0.00     0.034 C 
BRANCH  28  29
HETATM   29  C5  UNL     1      28.881   3.989   8.153  1.00  0.00     0.009 C 
BRANCH  29  30
HETATM   30  C4  UNL     1      28.841   5.368   7.623  1.00  0.00     0.033 C 
BRANCH  30  31
HETATM   31  C2  UNL     1      29.843   5.748   6.622  1.00  0.00    -0.093 C 
HETATM   32  C1  UNL     1      30.925   6.478   6.965  1.00  0.00     0.014 C 
HETATM   33  C3  UNL     1      29.786   5.346   5.172  1.00  0.00     0.042 C 
ENDBRANCH  30  31
ENDBRANCH  29  30
ENDBRANCH  28  29
ENDBRANCH  26  28
ENDBRANCH  24  25
ENDBRANCH   1  24
BRANCH   6  34
HETATM   34  O3  UNL     1      32.106  -0.852   5.669  1.00  0.00    -0.390 OA
ATOM     35  H3  UNL     1      32.419  -0.958   4.778  1.00  0.00     0.210 HD
ENDBRANCH   6  34
BRANCH   2  36
HETATM   36  O1  UNL     1      30.260  -1.261   3.502  1.00  0.00    -0.371 OA
ATOM     37  H1  UNL     1      30.401  -1.424   2.577  1.00  0.00     0.212 HD
ENDBRANCH   2  36
TORSDOF 15
ENDMDL
