MODEL 1
REMARK VINA RESULT: -7.095404636      0.000      0.000
REMARK  13 active torsions:
REMARK  status: ('A' for Active; 'I' for Inactive)
REMARK    1  A    between atoms: C2_2  and  C3_3 
REMARK    2  A    between atoms: C3_3  and  C4_4 
REMARK    3  A    between atoms: C4_4  and  C5_5 
REMARK    4  A    between atoms: C5_5  and  C6_6 
REMARK    5  A    between atoms: C6_6  and  C7_7 
REMARK    6  A    between atoms: C7_7  and  O1_8 
REMARK    7  A    between atoms: O1_8  and  C8_9 
REMARK    8  A    between atoms: C9_10  and  C10_11 
REMARK    9  A    between atoms: C10_11  and  O2_12 
REMARK   10  A    between atoms: C14_21  and  O4_22 
REMARK   11  A    between atoms: C20_30  and  O5_31 
REMARK   12  A    between atoms: C21_33  and  O6_34 
REMARK   13  A    between atoms: C22_36  and  O7_37 
ROOT
HETATM    1  C8  UNL     1      29.656   0.257   9.564  1.00  0.00     0.183 C 
HETATM    2  C9  UNL     1      28.797  -0.948   9.744  1.00  0.00     0.179 C 
HETATM    3  O3  UNL     1      28.053  -1.278   8.635  1.00  0.00    -0.347 OA
HETATM    4  C11 UNL     1      27.459  -0.270   7.968  1.00  0.00     0.347 C 
HETATM    5  N1  UNL     1      26.550  -0.891   6.971  1.00  0.00    -0.040 N 
ATOM      6  H11 UNL     1      25.564  -0.682   7.127  1.00  0.00     0.280 HD
ATOM      7  H12 UNL     1      26.472  -1.904   7.061  1.00  0.00     0.280 HD
HETATM    8  C12 UNL     1      27.020  -0.475   5.732  1.00  0.00     0.222 C 
HETATM    9  C13 UNL     1      28.210  -1.270   5.481  1.00  0.00     0.068 C 
HETATM   10  C14 UNL     1      29.155  -0.789   4.425  1.00  0.00     0.135 C 
HETATM   11  C16 UNL     1      28.708   0.663   4.169  1.00  0.00     0.091 C 
HETATM   12  C17 UNL     1      29.225   1.441   5.310  1.00  0.00    -0.012 C 
HETATM   13  C18 UNL     1      28.787   2.914   5.318  1.00  0.00     0.063 C 
HETATM   14  N2  UNL     1      29.284   0.838   6.598  1.00  0.00    -0.385 N 
ATOM     15  H2  UNL     1      30.138   0.333   6.838  1.00  0.00     0.159 HD
HETATM   16  C19 UNL     1      28.289   0.877   7.547  1.00  0.00     0.169 C 
HETATM   17  C20 UNL     1      28.924   1.385   8.858  1.00  0.00     0.176 C 
HETATM   18  C21 UNL     1      27.321   0.648   3.703  1.00  0.00     0.161 C 
HETATM   19  C22 UNL     1      26.394  -0.412   4.394  1.00  0.00     0.178 C 
ENDROOT
BRANCH   1  20
HETATM   20  O1  UNL     1      30.229   0.625  10.721  1.00  0.00    -0.381 OA
BRANCH  20  21
HETATM   21  C7  UNL     1      31.494   0.282  10.998  1.00  0.00     0.168 C 
BRANCH  21  22
HETATM   22  C6  UNL     1      31.610  -0.689  12.121  1.00  0.00     0.026 C 
BRANCH  22  23
HETATM   23  C5  UNL     1      31.007  -0.198  13.409  1.00  0.00     0.002 C 
BRANCH  23  24
HETATM   24  C4  UNL     1      30.138  -1.251  14.074  1.00  0.00     0.000 C 
BRANCH  24  25
HETATM   25  C3  UNL     1      30.668  -2.640  13.833  1.00  0.00    -0.000 C 
BRANCH  25  26
HETATM   26  C2  UNL     1      29.588  -3.666  13.662  1.00  0.00    -0.005 C 
HETATM   27  C1  UNL     1      29.589  -4.074  12.199  1.00  0.00     0.005 C 
ENDBRANCH  25  26
ENDBRANCH  24  25
ENDBRANCH  23  24
ENDBRANCH  22  23
ENDBRANCH  21  22
ENDBRANCH  20  21
ENDBRANCH   1  20
BRANCH   2  28
HETATM   28  C10 UNL     1      28.019  -0.997  11.026  1.00  0.00     0.198 C 
BRANCH  28  29
HETATM   29  O2  UNL     1      27.693   0.202  11.587  1.00  0.00    -0.398 OA
ATOM     30  H2  UNL     1      27.273   0.172  12.438  1.00  0.00     0.209 HD
ENDBRANCH  28  29
ENDBRANCH   2  28
BRANCH  17  31
HETATM   31  O5  UNL     1      27.977   2.018   9.611  1.00  0.00    -0.391 OA
ATOM     32  H5  UNL     1      27.578   2.775   9.199  1.00  0.00     0.210 HD
ENDBRANCH  17  31
BRANCH  19  33
HETATM   33  O7  UNL     1      25.091   0.073   4.429  1.00  0.00    -0.391 OA
ATOM     34  H7  UNL     1      25.026   0.978   4.146  1.00  0.00     0.210 HD
ENDBRANCH  19  33
BRANCH  10  35
HETATM   35  O4  UNL     1      30.475  -0.742   4.783  1.00  0.00    -0.390 OA
HETATM   36  C15 UNL     1      31.345  -1.252   3.843  1.00  0.00     0.202 C 
ENDBRANCH  10  35
BRANCH  18  37
HETATM   37  O6  UNL     1      27.166   0.526   2.349  1.00  0.00    -0.392 OA
ATOM     38  H6  UNL     1      26.326   0.819   2.013  1.00  0.00     0.210 HD
ENDBRANCH  18  37
TORSDOF 13
ENDMDL
MODEL 2
REMARK VINA RESULT: -6.929888642      1.609      2.136
REMARK  13 active torsions:
REMARK  status: ('A' for Active; 'I' for Inactive)
REMARK    1  A    between atoms: C2_2  and  C3_3 
REMARK    2  A    between atoms: C3_3  and  C4_4 
REMARK    3  A    between atoms: C4_4  and  C5_5 
REMARK    4  A    between atoms: C5_5  and  C6_6 
REMARK    5  A    between atoms: C6_6  and  C7_7 
REMARK    6  A    between atoms: C7_7  and  O1_8 
REMARK    7  A    between atoms: O1_8  and  C8_9 
REMARK    8  A    between atoms: C9_10  and  C10_11 
REMARK    9  A    between atoms: C10_11  and  O2_12 
REMARK   10  A    between atoms: C14_21  and  O4_22 
REMARK   11  A    between atoms: C20_30  and  O5_31 
REMARK   12  A    between atoms: C21_33  and  O6_34 
REMARK   13  A    between atoms: C22_36  and  O7_37 
ROOT
HETATM    1  C8  UNL     1      29.757   0.234   9.519  1.00  0.00     0.183 C 
HETATM    2  C9  UNL     1      28.897  -0.968   9.711  1.00  0.00     0.179 C 
HETATM    3  O3  UNL     1      28.131  -1.292   8.615  1.00  0.00    -0.347 OA
HETATM    4  C11 UNL     1      27.529  -0.280   7.962  1.00  0.00     0.347 C 
HETATM    5  N1  UNL     1      26.599  -0.895   6.979  1.00  0.00    -0.040 N 
ATOM      6  H11 UNL     1      25.617  -0.682   7.154  1.00  0.00     0.280 HD
ATOM      7  H12 UNL     1      26.519  -1.907   7.069  1.00  0.00     0.280 HD
HETATM    8  C12 UNL     1      27.048  -0.477   5.734  1.00  0.00     0.222 C 
HETATM    9  C13 UNL     1      28.231  -1.276   5.459  1.00  0.00     0.068 C 
HETATM   10  C14 UNL     1      29.158  -0.796   4.387  1.00  0.00     0.135 C 
HETATM   11  C16 UNL     1      28.713   0.658   4.142  1.00  0.00     0.091 C 
HETATM   12  C17 UNL     1      29.254   1.431   5.276  1.00  0.00    -0.012 C 
HETATM   13  C18 UNL     1      28.822   2.906   5.296  1.00  0.00     0.063 C 
HETATM   14  N2  UNL     1      29.334   0.824   6.561  1.00  0.00    -0.385 N 
ATOM     15  H2  UNL     1      30.189   0.315   6.784  1.00  0.00     0.159 HD
HETATM   16  C19 UNL     1      28.356   0.865   7.529  1.00  0.00     0.169 C 
HETATM   17  C20 UNL     1      29.017   1.368   8.829  1.00  0.00     0.176 C 
HETATM   18  C21 UNL     1      27.318   0.650   3.702  1.00  0.00     0.161 C 
HETATM   19  C22 UNL     1      26.399  -0.408   4.407  1.00  0.00     0.178 C 
ENDROOT
BRANCH   1  20
HETATM   20  O1  UNL     1      30.352   0.597  10.666  1.00  0.00    -0.381 OA
BRANCH  20  21
HETATM   21  C7  UNL     1      31.647   0.330  10.880  1.00  0.00     0.168 C 
BRANCH  21  22
HETATM   22  C6  UNL     1      31.870  -0.730  11.902  1.00  0.00     0.026 C 
BRANCH  22  23
HETATM   23  C5  UNL     1      32.011  -2.110  11.321  1.00  0.00     0.002 C 
BRANCH  23  24
HETATM   24  C4  UNL     1      32.907  -2.127  10.095  1.00  0.00     0.000 C 
BRANCH  24  25
HETATM   25  C3  UNL     1      33.235  -3.534   9.669  1.00  0.00    -0.000 C 
BRANCH  25  26
HETATM   26  C2  UNL     1      34.614  -3.968  10.069  1.00  0.00    -0.005 C 
HETATM   27  C1  UNL     1      35.591  -3.007   9.416  1.00  0.00     0.005 C 
ENDBRANCH  25  26
ENDBRANCH  24  25
ENDBRANCH  23  24
ENDBRANCH  22  23
ENDBRANCH  21  22
ENDBRANCH  20  21
ENDBRANCH   1  20
BRANCH   2  28
HETATM   28  C10 UNL     1      28.141  -1.016  11.007  1.00  0.00     0.198 C 
BRANCH  28  29
HETATM   29  O2  UNL     1      27.820   0.182  11.570  1.00  0.00    -0.398 OA
ATOM     30  H2  UNL     1      28.444   0.542  12.191  1.00  0.00     0.209 HD
ENDBRANCH  28  29
ENDBRANCH   2  28
BRANCH  17  31
HETATM   31  O5  UNL     1      28.086   2.003   9.600  1.00  0.00    -0.391 OA
ATOM     32  H5  UNL     1      27.472   2.545   9.122  1.00  0.00     0.210 HD
ENDBRANCH  17  31
BRANCH  19  33
HETATM   33  O7  UNL     1      25.098   0.083   4.466  1.00  0.00    -0.391 OA
ATOM     34  H7  UNL     1      24.817   0.279   5.352  1.00  0.00     0.210 HD
ENDBRANCH  19  33
BRANCH  10  35
HETATM   35  O4  UNL     1      30.485  -0.756   4.722  1.00  0.00    -0.390 OA
HETATM   36  C15 UNL     1      31.337  -1.259   3.761  1.00  0.00     0.202 C 
ENDBRANCH  10  35
BRANCH  18  37
HETATM   37  O6  UNL     1      27.137   0.532   2.351  1.00  0.00    -0.392 OA
ATOM     38  H6  UNL     1      26.977  -0.352   2.043  1.00  0.00     0.210 HD
ENDBRANCH  18  37
TORSDOF 13
ENDMDL
MODEL 3
REMARK VINA RESULT: -6.867505010      2.395      7.956
REMARK  13 active torsions:
REMARK  status: ('A' for Active; 'I' for Inactive)
REMARK    1  A    between atoms: C2_2  and  C3_3 
REMARK    2  A    between atoms: C3_3  and  C4_4 
REMARK    3  A    between atoms: C4_4  and  C5_5 
REMARK    4  A    between atoms: C5_5  and  C6_6 
REMARK    5  A    between atoms: C6_6  and  C7_7 
REMARK    6  A    between atoms: C7_7  and  O1_8 
REMARK    7  A    between atoms: O1_8  and  C8_9 
REMARK    8  A    between atoms: C9_10  and  C10_11 
REMARK    9  A    between atoms: C10_11  and  O2_12 
REMARK   10  A    between atoms: C14_21  and  O4_22 
REMARK   11  A    between atoms: C20_30  and  O5_31 
REMARK   12  A    between atoms: C21_33  and  O6_34 
REMARK   13  A    between atoms: C22_36  and  O7_37 
ROOT
HETATM    1  C8  UNL     1      28.668  -1.061   8.284  1.00  0.00     0.183 C 
HETATM    2  C9  UNL     1      29.233   0.309   8.450  1.00  0.00     0.179 C 
HETATM    3  O3  UNL     1      29.921   0.493   9.627  1.00  0.00    -0.347 OA
HETATM    4  C11 UNL     1      29.379  -0.022  10.747  1.00  0.00     0.347 C 
HETATM    5  N1  UNL     1      30.177   0.496  11.888  1.00  0.00    -0.040 N 
ATOM      6  H11 UNL     1      29.646   1.093  12.524  1.00  0.00     0.280 HD
ATOM      7  H12 UNL     1      30.870   1.194  11.621  1.00  0.00     0.280 HD
HETATM    8  C12 UNL     1      30.720  -0.626  12.499  1.00  0.00     0.222 C 
HETATM    9  C13 UNL     1      31.809  -1.050  11.634  1.00  0.00     0.068 C 
HETATM   10  C14 UNL     1      32.331  -2.441  11.809  1.00  0.00     0.135 C 
HETATM   11  C16 UNL     1      31.253  -3.132  12.666  1.00  0.00     0.091 C 
HETATM   12  C17 UNL     1      30.140  -3.419  11.741  1.00  0.00    -0.012 C 
HETATM   13  C18 UNL     1      28.894  -4.008  12.420  1.00  0.00     0.063 C 
HETATM   14  N2  UNL     1      29.860  -2.512  10.681  1.00  0.00    -0.385 N 
ATOM     15  H2  UNL     1      30.345  -2.664   9.796  1.00  0.00     0.159 HD
HETATM   16  C19 UNL     1      28.991  -1.447  10.747  1.00  0.00     0.169 C 
HETATM   17  C20 UNL     1      28.018  -1.574   9.557  1.00  0.00     0.176 C 
HETATM   18  C21 UNL     1      31.143  -2.420  13.939  1.00  0.00     0.161 C 
HETATM   19  C22 UNL     1      31.279  -0.859  13.847  1.00  0.00     0.178 C 
ENDROOT
BRANCH   1  20
HETATM   20  O1  UNL     1      27.873  -1.132   7.205  1.00  0.00    -0.381 OA
BRANCH  20  21
HETATM   21  C7  UNL     1      28.294  -1.733   6.083  1.00  0.00     0.168 C 
BRANCH  21  22
HETATM   22  C6  UNL     1      28.638  -0.777   4.995  1.00  0.00     0.026 C 
BRANCH  22  23
HETATM   23  C5  UNL     1      27.563   0.239   4.721  1.00  0.00     0.002 C 
BRANCH  23  24
HETATM   24  C4  UNL     1      27.784   0.968   3.407  1.00  0.00     0.000 C 
BRANCH  24  25
HETATM   25  C3  UNL     1      28.743   2.119   3.567  1.00  0.00    -0.000 C 
BRANCH  25  26
HETATM   26  C2  UNL     1      28.687   2.753   4.924  1.00  0.00    -0.005 C 
HETATM   27  C1  UNL     1      29.706   3.879   4.933  1.00  0.00     0.005 C 
ENDBRANCH  25  26
ENDBRANCH  24  25
ENDBRANCH  23  24
ENDBRANCH  22  23
ENDBRANCH  21  22
ENDBRANCH  20  21
ENDBRANCH   1  20
BRANCH   2  28
HETATM   28  C10 UNL     1      28.296   1.434   8.120  1.00  0.00     0.198 C 
BRANCH  28  29
HETATM   29  O2  UNL     1      26.964   1.159   8.189  1.00  0.00    -0.398 OA
ATOM     30  H2  UNL     1      26.419   1.518   7.499  1.00  0.00     0.209 HD
ENDBRANCH  28  29
ENDBRANCH   2  28
BRANCH  17  31
HETATM   31  O5  UNL     1      26.827  -0.986   9.874  1.00  0.00    -0.391 OA
ATOM     32  H5  UNL     1      26.173  -1.573  10.234  1.00  0.00     0.210 HD
ENDBRANCH  17  31
BRANCH  19  33
HETATM   33  O7  UNL     1      30.521  -0.274  14.857  1.00  0.00    -0.391 OA
ATOM     34  H7  UNL     1      30.985  -0.219  15.683  1.00  0.00     0.210 HD
ENDBRANCH  19  33
BRANCH  10  35
HETATM   35  O4  UNL     1      32.461  -3.177  10.662  1.00  0.00    -0.390 OA
HETATM   36  C15 UNL     1      33.747  -3.586  10.383  1.00  0.00     0.202 C 
ENDBRANCH  10  35
BRANCH  18  37
HETATM   37  O6  UNL     1      31.985  -2.860  14.923  1.00  0.00    -0.392 OA
ATOM     38  H6  UNL     1      31.555  -3.234  15.683  1.00  0.00     0.210 HD
ENDBRANCH  18  37
TORSDOF 13
ENDMDL
MODEL 4
REMARK VINA RESULT: -6.845004796      2.331      7.818
REMARK  13 active torsions:
REMARK  status: ('A' for Active; 'I' for Inactive)
REMARK    1  A    between atoms: C2_2  and  C3_3 
REMARK    2  A    between atoms: C3_3  and  C4_4 
REMARK    3  A    between atoms: C4_4  and  C5_5 
REMARK    4  A    between atoms: C5_5  and  C6_6 
REMARK    5  A    between atoms: C6_6  and  C7_7 
REMARK    6  A    between atoms: C7_7  and  O1_8 
REMARK    7  A    between atoms: O1_8  and  C8_9 
REMARK    8  A    between atoms: C9_10  and  C10_11 
REMARK    9  A    between atoms: C10_11  and  O2_12 
REMARK   10  A    between atoms: C14_21  and  O4_22 
REMARK   11  A    between atoms: C20_30  and  O5_31 
REMARK   12  A    between atoms: C21_33  and  O6_34 
REMARK   13  A    between atoms: C22_36  and  O7_37 
ROOT
HETATM    1  C8  UNL     1      28.764  -1.042   8.170  1.00  0.00     0.183 C 
HETATM    2  C9  UNL     1      29.310   0.332   8.358  1.00  0.00     0.179 C 
HETATM    3  O3  UNL     1      29.954   0.522   9.559  1.00  0.00    -0.347 OA
HETATM    4  C11 UNL     1      29.377   0.001  10.658  1.00  0.00     0.347 C 
HETATM    5  N1  UNL     1      30.128   0.525  11.828  1.00  0.00    -0.040 N 
ATOM      6  H11 UNL     1      29.570   1.115  12.444  1.00  0.00     0.280 HD
ATOM      7  H12 UNL     1      30.824   1.230  11.586  1.00  0.00     0.280 HD
HETATM    8  C12 UNL     1      30.660  -0.593  12.457  1.00  0.00     0.222 C 
HETATM    9  C13 UNL     1      31.783  -1.006  11.631  1.00  0.00     0.068 C 
HETATM   10  C14 UNL     1      32.312  -2.392  11.823  1.00  0.00     0.135 C 
HETATM   11  C16 UNL     1      31.210  -3.094  12.640  1.00  0.00     0.091 C 
HETATM   12  C17 UNL     1      30.134  -3.391  11.676  1.00  0.00    -0.012 C 
HETATM   13  C18 UNL     1      28.869  -3.992  12.309  1.00  0.00     0.063 C 
HETATM   14  N2  UNL     1      29.884  -2.484  10.608  1.00  0.00    -0.385 N 
ATOM     15  H2  UNL     1      30.401  -2.631   9.741  1.00  0.00     0.159 HD
HETATM   16  C19 UNL     1      29.003  -1.428  10.643  1.00  0.00     0.169 C 
HETATM   17  C20 UNL     1      28.074  -1.563   9.419  1.00  0.00     0.176 C 
HETATM   18  C21 UNL     1      31.048  -2.384  13.909  1.00  0.00     0.161 C 
HETATM   19  C22 UNL     1      31.172  -0.822  13.824  1.00  0.00     0.178 C 
ENDROOT
BRANCH   1  20
HETATM   20  O1  UNL     1      28.010  -1.120   7.063  1.00  0.00    -0.381 OA
BRANCH  20  21
HETATM   21  C7  UNL     1      28.436  -1.800   5.990  1.00  0.00     0.168 C 
BRANCH  21  22
HETATM   22  C6  UNL     1      29.587  -1.152   5.300  1.00  0.00     0.026 C 
BRANCH  22  23
HETATM   23  C5  UNL     1      29.200  -0.407   4.052  1.00  0.00     0.002 C 
BRANCH  23  24
HETATM   24  C4  UNL     1      28.078   0.586   4.301  1.00  0.00     0.000 C 
BRANCH  24  25
HETATM   25  C3  UNL     1      27.058   0.558   3.193  1.00  0.00    -0.000 C 
BRANCH  25  26
HETATM   26  C2  UNL     1      25.808  -0.186   3.556  1.00  0.00    -0.005 C 
HETATM   27  C1  UNL     1      25.466   0.190   4.987  1.00  0.00     0.005 C 
ENDBRANCH  25  26
ENDBRANCH  24  25
ENDBRANCH  23  24
ENDBRANCH  22  23
ENDBRANCH  21  22
ENDBRANCH  20  21
ENDBRANCH   1  20
BRANCH   2  28
HETATM   28  C10 UNL     1      28.375   1.449   7.995  1.00  0.00     0.198 C 
BRANCH  28  29
HETATM   29  O2  UNL     1      27.043   1.190   8.107  1.00  0.00    -0.398 OA
ATOM     30  H2  UNL     1      26.798   0.289   8.284  1.00  0.00     0.209 HD
ENDBRANCH  28  29
ENDBRANCH   2  28
BRANCH  17  31
HETATM   31  O5  UNL     1      26.867  -0.986   9.694  1.00  0.00    -0.391 OA
ATOM     32  H5  UNL     1      26.164  -1.227   9.102  1.00  0.00     0.210 HD
ENDBRANCH  17  31
BRANCH  19  33
HETATM   33  O7  UNL     1      30.372  -0.246  14.806  1.00  0.00    -0.391 OA
ATOM     34  H7  UNL     1      30.356   0.703  14.760  1.00  0.00     0.210 HD
ENDBRANCH  19  33
BRANCH  10  35
HETATM   35  O4  UNL     1      32.490  -3.125  10.681  1.00  0.00    -0.390 OA
HETATM   36  C15 UNL     1      33.291  -2.528   9.732  1.00  0.00     0.202 C 
ENDBRANCH  10  35
BRANCH  18  37
HETATM   37  O6  UNL     1      31.858  -2.817  14.923  1.00  0.00    -0.392 OA
ATOM     38  H6  UNL     1      32.452  -3.522  14.690  1.00  0.00     0.210 HD
ENDBRANCH  18  37
TORSDOF 13
ENDMDL
MODEL 5
REMARK VINA RESULT: -6.729961391      1.485      2.994
REMARK  13 active torsions:
REMARK  status: ('A' for Active; 'I' for Inactive)
REMARK    1  A    between atoms: C2_2  and  C3_3 
REMARK    2  A    between atoms: C3_3  and  C4_4 
REMARK    3  A    between atoms: C4_4  and  C5_5 
REMARK    4  A    between atoms: C5_5  and  C6_6 
REMARK    5  A    between atoms: C6_6  and  C7_7 
REMARK    6  A    between atoms: C7_7  and  O1_8 
REMARK    7  A    between atoms: O1_8  and  C8_9 
REMARK    8  A    between atoms: C9_10  and  C10_11 
REMARK    9  A    between atoms: C10_11  and  O2_12 
REMARK   10  A    between atoms: C14_21  and  O4_22 
REMARK   11  A    between atoms: C20_30  and  O5_31 
REMARK   12  A    between atoms: C21_33  and  O6_34 
REMARK   13  A    between atoms: C22_36  and  O7_37 
ROOT
HETATM    1  C8  UNL     1      29.652   0.286   9.568  1.00  0.00     0.183 C 
HETATM    2  C9  UNL     1      28.787  -0.913   9.761  1.00  0.00     0.179 C 
HETATM    3  O3  UNL     1      28.042  -1.252   8.655  1.00  0.00    -0.347 OA
HETATM    4  C11 UNL     1      27.454  -0.248   7.977  1.00  0.00     0.347 C 
HETATM    5  N1  UNL     1      26.542  -0.876   6.985  1.00  0.00    -0.040 N 
ATOM      6  H11 UNL     1      25.557  -0.660   7.138  1.00  0.00     0.280 HD
ATOM      7  H12 UNL     1      26.460  -1.887   7.086  1.00  0.00     0.280 HD
HETATM    8  C12 UNL     1      27.015  -0.474   5.743  1.00  0.00     0.222 C 
HETATM    9  C13 UNL     1      28.202  -1.278   5.501  1.00  0.00     0.068 C 
HETATM   10  C14 UNL     1      29.149  -0.813   4.441  1.00  0.00     0.135 C 
HETATM   11  C16 UNL     1      28.710   0.638   4.168  1.00  0.00     0.091 C 
HETATM   12  C17 UNL     1      29.229   1.426   5.301  1.00  0.00    -0.012 C 
HETATM   13  C18 UNL     1      28.799   2.901   5.293  1.00  0.00     0.063 C 
HETATM   14  N2  UNL     1      29.285   0.836   6.596  1.00  0.00    -0.385 N 
ATOM     15  H2  UNL     1      30.136   0.330   6.842  1.00  0.00     0.159 HD
HETATM   16  C19 UNL     1      28.289   0.890   7.544  1.00  0.00     0.169 C 
HETATM   17  C20 UNL     1      28.926   1.410   8.849  1.00  0.00     0.176 C 
HETATM   18  C21 UNL     1      27.323   0.625   3.702  1.00  0.00     0.161 C 
HETATM   19  C22 UNL     1      26.391  -0.423   4.404  1.00  0.00     0.178 C 
ENDROOT
BRANCH   1  20
HETATM   20  O1  UNL     1      30.225   0.664  10.722  1.00  0.00    -0.381 OA
BRANCH  20  21
HETATM   21  C7  UNL     1      31.457   0.245  11.043  1.00  0.00     0.168 C 
BRANCH  21  22
HETATM   22  C6  UNL     1      32.490   0.625  10.039  1.00  0.00     0.026 C 
BRANCH  22  23
HETATM   23  C5  UNL     1      33.577  -0.401   9.873  1.00  0.00     0.002 C 
BRANCH  23  24
HETATM   24  C4  UNL     1      33.410  -1.212   8.600  1.00  0.00     0.000 C 
BRANCH  24  25
HETATM   25  C3  UNL     1      32.700  -0.425   7.530  1.00  0.00    -0.000 C 
BRANCH  25  26
HETATM   26  C2  UNL     1      33.629   0.151   6.503  1.00  0.00    -0.005 C 
HETATM   27  C1  UNL     1      32.994   1.435   5.998  1.00  0.00     0.005 C 
ENDBRANCH  25  26
ENDBRANCH  24  25
ENDBRANCH  23  24
ENDBRANCH  22  23
ENDBRANCH  21  22
ENDBRANCH  20  21
ENDBRANCH   1  20
BRANCH   2  28
HETATM   28  C10 UNL     1      28.007  -0.944  11.043  1.00  0.00     0.198 C 
BRANCH  28  29
HETATM   29  O2  UNL     1      27.705   0.262  11.601  1.00  0.00    -0.398 OA
ATOM     30  H2  UNL     1      27.971   1.034  11.115  1.00  0.00     0.209 HD
ENDBRANCH  28  29
ENDBRANCH   2  28
BRANCH  17  31
HETATM   31  O5  UNL     1      27.981   2.056   9.595  1.00  0.00    -0.391 OA
ATOM     32  H5  UNL     1      27.696   2.891   9.245  1.00  0.00     0.210 HD
ENDBRANCH  17  31
BRANCH  19  33
HETATM   33  O7  UNL     1      25.089   0.069   4.431  1.00  0.00    -0.391 OA
ATOM     34  H7  UNL     1      25.043   0.977   4.706  1.00  0.00     0.210 HD
ENDBRANCH  19  33
BRANCH  10  35
HETATM   35  O4  UNL     1      30.470  -0.769   4.800  1.00  0.00    -0.390 OA
HETATM   36  C15 UNL     1      31.342  -1.244   3.844  1.00  0.00     0.202 C 
ENDBRANCH  10  35
BRANCH  18  37
HETATM   37  O6  UNL     1      27.168   0.489   2.349  1.00  0.00    -0.392 OA
ATOM     38  H6  UNL     1      27.175  -0.407   2.032  1.00  0.00     0.210 HD
ENDBRANCH  18  37
TORSDOF 13
ENDMDL
