MODEL 1
REMARK VINA RESULT: -6.670943774      0.000      0.000
REMARK  15 active torsions:
REMARK  status: ('A' for Active; 'I' for Inactive)
REMARK    1  A    between atoms: C2_2  and  C3_3 
REMARK    2  A    between atoms: C3_3  and  C6_6 
REMARK    3  A    between atoms: C6_6  and  O1_7 
REMARK    4  A    between atoms: C8_10  and  O2_11 
REMARK    5  A    between atoms: O2_11  and  C9_12 
REMARK    6  A    between atoms: C9_12  and  C10_13 
REMARK    7  A    between atoms: C10_13  and  C11_14 
REMARK    8  A    between atoms: C11_14  and  O3_15 
REMARK    9  A    between atoms: O3_15  and  C12_16 
REMARK   10  A    between atoms: C13_18  and  C14_19 
REMARK   11  A    between atoms: C14_19  and  O5_20 
REMARK   12  A    between atoms: C15_22  and  O6_23 
REMARK   13  A    between atoms: C16_25  and  O7_27 
REMARK   14  A    between atoms: C18_29  and  O8_30 
REMARK   15  A    between atoms: C19_32  and  O9_33 
ROOT
HETATM    1  C12 UNL     1      29.660  -2.156   6.484  1.00  0.00     0.291 C 
HETATM    2  O4  UNL     1      29.907  -1.057   7.238  1.00  0.00    -0.348 OA
HETATM    3  C13 UNL     1      30.264  -1.177   8.519  1.00  0.00     0.180 C 
HETATM    4  C15 UNL     1      29.164  -1.149   9.533  1.00  0.00     0.185 C 
HETATM    5  C16 UNL     1      27.869  -1.709   9.122  1.00  0.00     0.111 C 
HETATM    6  C17 UNL     1      27.646  -3.114   9.679  1.00  0.00     0.051 C 
HETATM    7  C18 UNL     1      27.545  -1.719   7.678  1.00  0.00     0.188 C 
HETATM    8  C19 UNL     1      28.287  -2.682   6.820  1.00  0.00     0.205 C 
ENDROOT
BRANCH   1   9
HETATM    9  O3  UNL     1      29.774  -1.735   5.167  1.00  0.00    -0.358 OA
BRANCH   9  10
HETATM   10  C11 UNL     1      30.685  -2.400   4.406  1.00  0.00     0.173 C 
BRANCH  10  11
HETATM   11  C10 UNL     1      31.450  -1.572   3.431  1.00  0.00     0.053 C 
BRANCH  11  12
HETATM   12  C9  UNL     1      32.240  -0.546   4.220  1.00  0.00     0.178 C 
BRANCH  12  13
HETATM   13  O2  UNL     1      31.874   0.766   3.887  1.00  0.00    -0.351 OA
BRANCH  13  14
HETATM   14  C8  UNL     1      30.786   1.393   4.443  1.00  0.00     0.067 A 
HETATM   15  C7  UNL     1      30.806   1.891   5.657  1.00  0.00     0.048 A 
HETATM   16  C6  UNL     1      29.690   2.578   6.327  1.00  0.00     0.088 A 
HETATM   17  C22 UNL     1      28.454   2.686   5.539  1.00  0.00     0.070 A 
HETATM   18  C21 UNL     1      28.519   2.110   4.202  1.00  0.00    -0.020 A 
HETATM   19  C20 UNL     1      29.554   1.518   3.674  1.00  0.00     0.032 A 
BRANCH  16  20
HETATM   20  C3  UNL     1      30.158   3.912   6.872  1.00  0.00    -0.013 C 
HETATM   21  C4  UNL     1      31.643   3.762   7.208  1.00  0.00     0.018 C 
HETATM   22  C5  UNL     1      30.034   5.023   5.889  1.00  0.00     0.018 C 
BRANCH  20  23
HETATM   23  C2  UNL     1      29.471   4.282   8.150  1.00  0.00     0.007 C 
HETATM   24  C1  UNL     1      28.776   5.624   8.112  1.00  0.00     0.006 C 
ENDBRANCH  20  23
ENDBRANCH  16  20
BRANCH  16  25
HETATM   25  O1  UNL     1      29.390   1.770   7.458  1.00  0.00    -0.385 OA
ATOM     26  H1  UNL     1      29.231   0.895   7.124  1.00  0.00     0.211 HD
ENDBRANCH  16  25
ENDBRANCH  13  14
ENDBRANCH  12  13
ENDBRANCH  11  12
ENDBRANCH  10  11
ENDBRANCH   9  10
ENDBRANCH   1   9
BRANCH   8  27
HETATM   27  O9  UNL     1      28.302  -3.985   7.273  1.00  0.00    -0.388 OA
ATOM     28  H9  UNL     1      28.060  -4.064   8.188  1.00  0.00     0.210 HD
ENDBRANCH   8  27
BRANCH   3  29
HETATM   29  C14 UNL     1      31.252  -2.319   8.804  1.00  0.00     0.198 C 
BRANCH  29  30
HETATM   30  O5  UNL     1      31.095  -2.766  10.119  1.00  0.00    -0.398 OA
ATOM     31  H5  UNL     1      31.903  -3.163  10.423  1.00  0.00     0.209 HD
ENDBRANCH  29  30
ENDBRANCH   3  29
BRANCH   7  32
HETATM   32  O8  UNL     1      27.609  -0.467   7.075  1.00  0.00    -0.390 OA
ATOM     33  H8  UNL     1      28.170  -0.437   6.308  1.00  0.00     0.210 HD
ENDBRANCH   7  32
BRANCH   4  34
HETATM   34  O6  UNL     1      29.017   0.136  10.115  1.00  0.00    -0.390 OA
ATOM     35  H6  UNL     1      28.151   0.259  10.484  1.00  0.00     0.210 HD
ENDBRANCH   4  34
BRANCH   5  36
HETATM   36  O7  UNL     1      26.855  -0.932   9.744  1.00  0.00    -0.385 OA
ATOM     37  H7  UNL     1      26.291  -1.532  10.219  1.00  0.00     0.210 HD
ENDBRANCH   5  36
TORSDOF 15
ENDMDL
MODEL 2
REMARK VINA RESULT: -6.526134195      1.911      3.066
REMARK  15 active torsions:
REMARK  status: ('A' for Active; 'I' for Inactive)
REMARK    1  A    between atoms: C2_2  and  C3_3 
REMARK    2  A    between atoms: C3_3  and  C6_6 
REMARK    3  A    between atoms: C6_6  and  O1_7 
REMARK    4  A    between atoms: C8_10  and  O2_11 
REMARK    5  A    between atoms: O2_11  and  C9_12 
REMARK    6  A    between atoms: C9_12  and  C10_13 
REMARK    7  A    between atoms: C10_13  and  C11_14 
REMARK    8  A    between atoms: C11_14  and  O3_15 
REMARK    9  A    between atoms: O3_15  and  C12_16 
REMARK   10  A    between atoms: C13_18  and  C14_19 
REMARK   11  A    between atoms: C14_19  and  O5_20 
REMARK   12  A    between atoms: C15_22  and  O6_23 
REMARK   13  A    between atoms: C16_25  and  O7_27 
REMARK   14  A    between atoms: C18_29  and  O8_30 
REMARK   15  A    between atoms: C19_32  and  O9_33 
ROOT
HETATM    1  C12 UNL     1      27.740  -0.989   6.160  1.00  0.00     0.291 C 
HETATM    2  O4  UNL     1      26.907  -0.847   7.220  1.00  0.00    -0.348 OA
HETATM    3  C13 UNL     1      27.323  -0.241   8.336  1.00  0.00     0.180 C 
HETATM    4  C15 UNL     1      27.903  -1.115   9.402  1.00  0.00     0.185 C 
HETATM    5  C16 UNL     1      28.627  -2.315   8.957  1.00  0.00     0.111 C 
HETATM    6  C17 UNL     1      30.141  -2.126   9.010  1.00  0.00     0.051 C 
HETATM    7  C18 UNL     1      28.270  -2.891   7.641  1.00  0.00     0.188 C 
HETATM    8  C19 UNL     1      28.685  -2.132   6.430  1.00  0.00     0.205 C 
ENDROOT
BRANCH   1   9
HETATM    9  O3  UNL     1      26.914  -1.213   5.067  1.00  0.00    -0.358 OA
BRANCH   9  10
HETATM   10  C11 UNL     1      26.265  -0.123   4.578  1.00  0.00     0.173 C 
BRANCH  10  11
HETATM   11  C10 UNL     1      26.565   0.236   3.163  1.00  0.00     0.053 C 
BRANCH  11  12
HETATM   12  C9  UNL     1      27.876   0.997   3.149  1.00  0.00     0.178 C 
BRANCH  12  13
HETATM   13  O2  UNL     1      28.056   1.752   4.316  1.00  0.00    -0.351 OA
BRANCH  13  14
HETATM   14  C8  UNL     1      29.206   2.459   4.571  1.00  0.00     0.067 A 
HETATM   15  C7  UNL     1      29.190   3.662   5.094  1.00  0.00     0.048 A 
HETATM   16  C6  UNL     1      30.371   4.487   5.399  1.00  0.00     0.088 A 
HETATM   17  C22 UNL     1      31.667   3.879   5.064  1.00  0.00     0.070 A 
HETATM   18  C21 UNL     1      31.592   2.541   4.491  1.00  0.00    -0.020 A 
HETATM   19  C20 UNL     1      30.500   1.870   4.253  1.00  0.00     0.032 A 
BRANCH  16  20
HETATM   20  C3  UNL     1      30.303   4.973   6.833  1.00  0.00    -0.013 C 
HETATM   21  C4  UNL     1      31.016   3.928   7.693  1.00  0.00     0.018 C 
HETATM   22  C5  UNL     1      30.996   6.273   7.045  1.00  0.00     0.018 C 
BRANCH  20  23
HETATM   23  C2  UNL     1      28.897   5.053   7.345  1.00  0.00     0.007 C 
HETATM   24  C1  UNL     1      28.786   5.561   8.764  1.00  0.00     0.006 C 
ENDBRANCH  20  23
ENDBRANCH  16  20
BRANCH  16  25
HETATM   25  O1  UNL     1      30.231   5.641   4.581  1.00  0.00    -0.385 OA
ATOM     26  H1  UNL     1      30.710   5.460   3.781  1.00  0.00     0.211 HD
ENDBRANCH  16  25
ENDBRANCH  13  14
ENDBRANCH  12  13
ENDBRANCH  11  12
ENDBRANCH  10  11
ENDBRANCH   9  10
ENDBRANCH   1   9
BRANCH   8  27
HETATM   27  O9  UNL     1      30.012  -1.756   6.397  1.00  0.00    -0.388 OA
ATOM     28  H9  UNL     1      30.610  -2.495   6.425  1.00  0.00     0.210 HD
ENDBRANCH   8  27
BRANCH   3  29
HETATM   29  C14 UNL     1      28.194   1.002   8.103  1.00  0.00     0.198 C 
BRANCH  29  30
HETATM   30  O5  UNL     1      27.869   1.992   9.034  1.00  0.00    -0.398 OA
ATOM     31  H5  UNL     1      27.948   2.850   8.634  1.00  0.00     0.209 HD
ENDBRANCH  29  30
ENDBRANCH   3  29
BRANCH   7  32
HETATM   32  O8  UNL     1      26.921  -3.207   7.509  1.00  0.00    -0.390 OA
ATOM     33  H8  UNL     1      26.547  -2.957   6.672  1.00  0.00     0.210 HD
ENDBRANCH   7  32
BRANCH   4  34
HETATM   34  O6  UNL     1      26.950  -1.423  10.407  1.00  0.00    -0.390 OA
ATOM     35  H6  UNL     1      27.317  -1.979  11.083  1.00  0.00     0.210 HD
ENDBRANCH   4  34
BRANCH   5  36
HETATM   36  O7  UNL     1      28.378  -3.338   9.911  1.00  0.00    -0.385 OA
ATOM     37  H7  UNL     1      28.703  -4.152   9.545  1.00  0.00     0.210 HD
ENDBRANCH   5  36
TORSDOF 15
ENDMDL
MODEL 3
REMARK VINA RESULT: -6.495662632      2.948      5.608
REMARK  15 active torsions:
REMARK  status: ('A' for Active; 'I' for Inactive)
REMARK    1  A    between atoms: C2_2  and  C3_3 
REMARK    2  A    between atoms: C3_3  and  C6_6 
REMARK    3  A    between atoms: C6_6  and  O1_7 
REMARK    4  A    between atoms: C8_10  and  O2_11 
REMARK    5  A    between atoms: O2_11  and  C9_12 
REMARK    6  A    between atoms: C9_12  and  C10_13 
REMARK    7  A    between atoms: C10_13  and  C11_14 
REMARK    8  A    between atoms: C11_14  and  O3_15 
REMARK    9  A    between atoms: O3_15  and  C12_16 
REMARK   10  A    between atoms: C13_18  and  C14_19 
REMARK   11  A    between atoms: C14_19  and  O5_20 
REMARK   12  A    between atoms: C15_22  and  O6_23 
REMARK   13  A    between atoms: C16_25  and  O7_27 
REMARK   14  A    between atoms: C18_29  and  O8_30 
REMARK   15  A    between atoms: C19_32  and  O9_33 
ROOT
HETATM    1  C12 UNL     1      30.986  -0.168  12.146  1.00  0.00     0.291 C 
HETATM    2  O4  UNL     1      30.705  -1.213  11.330  1.00  0.00    -0.348 OA
HETATM    3  C13 UNL     1      29.508  -1.804  11.370  1.00  0.00     0.180 C 
HETATM    4  C15 UNL     1      29.365  -2.980  12.284  1.00  0.00     0.185 C 
HETATM    5  C16 UNL     1      30.170  -2.966  13.515  1.00  0.00     0.111 C 
HETATM    6  C17 UNL     1      29.344  -2.570  14.737  1.00  0.00     0.051 C 
HETATM    7  C18 UNL     1      31.421  -2.174  13.516  1.00  0.00     0.188 C 
HETATM    8  C19 UNL     1      31.289  -0.693  13.527  1.00  0.00     0.205 C 
ENDROOT
BRANCH   1   9
HETATM    9  O3  UNL     1      32.066   0.479  11.562  1.00  0.00    -0.358 OA
BRANCH   9  10
HETATM   10  C11 UNL     1      32.291   0.194  10.251  1.00  0.00     0.173 C 
BRANCH  10  11
HETATM   11  C10 UNL     1      32.163   1.338   9.303  1.00  0.00     0.053 C 
BRANCH  11  12
HETATM   12  C9  UNL     1      31.464   0.826   8.058  1.00  0.00     0.178 C 
BRANCH  12  13
HETATM   13  O2  UNL     1      31.059  -0.509   8.195  1.00  0.00    -0.351 OA
BRANCH  13  14
HETATM   14  C8  UNL     1      29.812  -0.945   7.819  1.00  0.00     0.067 A 
HETATM   15  C7  UNL     1      28.814  -0.121   7.605  1.00  0.00     0.048 A 
HETATM   16  C6  UNL     1      27.451  -0.501   7.200  1.00  0.00     0.088 A 
HETATM   17  C22 UNL     1      27.222  -1.944   7.039  1.00  0.00     0.070 A 
HETATM   18  C21 UNL     1      28.384  -2.787   7.293  1.00  0.00    -0.020 A 
HETATM   19  C20 UNL     1      29.568  -2.371   7.647  1.00  0.00     0.032 A 
BRANCH  16  20
HETATM   20  C3  UNL     1      27.034   0.299   5.982  1.00  0.00    -0.013 C 
HETATM   21  C4  UNL     1      25.533   0.566   6.115  1.00  0.00     0.018 C 
HETATM   22  C5  UNL     1      27.714   1.620   5.885  1.00  0.00     0.018 C 
BRANCH  20  23
HETATM   23  C2  UNL     1      27.216  -0.464   4.706  1.00  0.00     0.007 C 
HETATM   24  C1  UNL     1      26.107  -0.258   3.699  1.00  0.00     0.006 C 
ENDBRANCH  20  23
ENDBRANCH  16  20
BRANCH  16  25
HETATM   25  O1  UNL     1      26.617  -0.065   8.266  1.00  0.00    -0.385 OA
ATOM     26  H1  UNL     1      26.993  -0.424   9.061  1.00  0.00     0.211 HD
ENDBRANCH  16  25
ENDBRANCH  13  14
ENDBRANCH  12  13
ENDBRANCH  11  12
ENDBRANCH  10  11
ENDBRANCH   9  10
ENDBRANCH   1   9
BRANCH   8  27
HETATM   27  O9  UNL     1      30.450  -0.183  14.496  1.00  0.00    -0.388 OA
ATOM     28  H9  UNL     1      29.964   0.580  14.204  1.00  0.00     0.210 HD
ENDBRANCH   8  27
BRANCH   3  29
HETATM   29  C14 UNL     1      28.322  -0.840  11.519  1.00  0.00     0.198 C 
BRANCH  29  30
HETATM   30  O5  UNL     1      27.265  -1.257  10.707  1.00  0.00    -0.398 OA
ATOM     31  H5  UNL     1      26.798  -1.971  11.125  1.00  0.00     0.209 HD
ENDBRANCH  29  30
ENDBRANCH   3  29
BRANCH   7  32
HETATM   32  O8  UNL     1      32.309  -2.520  12.503  1.00  0.00    -0.390 OA
ATOM     33  H8  UNL     1      32.260  -1.957  11.739  1.00  0.00     0.210 HD
ENDBRANCH   7  32
BRANCH   4  34
HETATM   34  O6  UNL     1      29.499  -4.209  11.587  1.00  0.00    -0.390 OA
ATOM     35  H6  UNL     1      30.137  -4.780  11.998  1.00  0.00     0.210 HD
ENDBRANCH   4  34
BRANCH   5  36
HETATM   36  O7  UNL     1      30.555  -4.307  13.785  1.00  0.00    -0.385 OA
ATOM     37  H7  UNL     1      31.386  -4.275  14.245  1.00  0.00     0.210 HD
ENDBRANCH   5  36
TORSDOF 15
ENDMDL
MODEL 4
REMARK VINA RESULT: -6.481092431      2.003      3.224
REMARK  15 active torsions:
REMARK  status: ('A' for Active; 'I' for Inactive)
REMARK    1  A    between atoms: C2_2  and  C3_3 
REMARK    2  A    between atoms: C3_3  and  C6_6 
REMARK    3  A    between atoms: C6_6  and  O1_7 
REMARK    4  A    between atoms: C8_10  and  O2_11 
REMARK    5  A    between atoms: O2_11  and  C9_12 
REMARK    6  A    between atoms: C9_12  and  C10_13 
REMARK    7  A    between atoms: C10_13  and  C11_14 
REMARK    8  A    between atoms: C11_14  and  O3_15 
REMARK    9  A    between atoms: O3_15  and  C12_16 
REMARK   10  A    between atoms: C13_18  and  C14_19 
REMARK   11  A    between atoms: C14_19  and  O5_20 
REMARK   12  A    between atoms: C15_22  and  O6_23 
REMARK   13  A    between atoms: C16_25  and  O7_27 
REMARK   14  A    between atoms: C18_29  and  O8_30 
REMARK   15  A    between atoms: C19_32  and  O9_33 
ROOT
HETATM    1  C12 UNL     1      27.838  -1.207   8.804  1.00  0.00     0.291 C 
HETATM    2  O4  UNL     1      28.868  -0.326   8.833  1.00  0.00    -0.348 OA
HETATM    3  C13 UNL     1      30.113  -0.743   9.075  1.00  0.00     0.180 C 
HETATM    4  C15 UNL     1      30.566  -0.725  10.501  1.00  0.00     0.185 C 
HETATM    5  C16 UNL     1      29.543  -0.975  11.526  1.00  0.00     0.111 C 
HETATM    6  C17 UNL     1      29.604  -2.403  12.064  1.00  0.00     0.051 C 
HETATM    7  C18 UNL     1      28.136  -0.659  11.192  1.00  0.00     0.188 C 
HETATM    8  C19 UNL     1      27.449  -1.552  10.220  1.00  0.00     0.205 C 
ENDROOT
BRANCH   1   9
HETATM    9  O3  UNL     1      26.825  -0.570   8.102  1.00  0.00    -0.358 OA
BRANCH   9  10
HETATM   10  C11 UNL     1      26.683  -0.936   6.800  1.00  0.00     0.173 C 
BRANCH  10  11
HETATM   11  C10 UNL     1      26.014   0.057   5.911  1.00  0.00     0.053 C 
BRANCH  11  12
HETATM   12  C9  UNL     1      26.543  -0.153   4.506  1.00  0.00     0.178 C 
BRANCH  12  13
HETATM   13  O2  UNL     1      27.361   0.906   4.090  1.00  0.00    -0.351 OA
BRANCH  13  14
HETATM   14  C8  UNL     1      28.433   1.348   4.828  1.00  0.00     0.067 A 
HETATM   15  C7  UNL     1      28.453   2.528   5.400  1.00  0.00     0.048 A 
HETATM   16  C6  UNL     1      29.554   3.079   6.207  1.00  0.00     0.088 A 
HETATM   17  C22 UNL     1      30.725   2.202   6.354  1.00  0.00     0.070 A 
HETATM   18  C21 UNL     1      30.617   0.909   5.690  1.00  0.00    -0.020 A 
HETATM   19  C20 UNL     1      29.599   0.490   4.993  1.00  0.00     0.032 A 
BRANCH  16  20
HETATM   20  C3  UNL     1      29.021   3.575   7.536  1.00  0.00    -0.013 C 
HETATM   21  C4  UNL     1      27.658   2.914   7.746  1.00  0.00     0.018 C 
HETATM   22  C5  UNL     1      29.882   3.199   8.691  1.00  0.00     0.018 C 
BRANCH  20  23
HETATM   23  C2  UNL     1      28.778   5.054   7.540  1.00  0.00     0.007 C 
HETATM   24  C1  UNL     1      28.833   5.685   8.912  1.00  0.00     0.006 C 
ENDBRANCH  20  23
ENDBRANCH  16  20
BRANCH  16  25
HETATM   25  O1  UNL     1      29.986   4.232   5.496  1.00  0.00    -0.385 OA
ATOM     26  H1  UNL     1      30.686   3.943   4.922  1.00  0.00     0.211 HD
ENDBRANCH  16  25
ENDBRANCH  13  14
ENDBRANCH  12  13
ENDBRANCH  11  12
ENDBRANCH  10  11
ENDBRANCH   9  10
ENDBRANCH   1   9
BRANCH   8  27
HETATM   27  O9  UNL     1      27.540  -2.901  10.493  1.00  0.00    -0.388 OA
ATOM     28  H9  UNL     1      26.900  -3.196  11.129  1.00  0.00     0.210 HD
ENDBRANCH   8  27
BRANCH   3  29
HETATM   29  C14 UNL     1      30.491  -2.065   8.391  1.00  0.00     0.198 C 
BRANCH  29  30
HETATM   30  O5  UNL     1      31.463  -2.730   9.142  1.00  0.00    -0.398 OA
ATOM     31  H5  UNL     1      31.411  -3.665   8.984  1.00  0.00     0.209 HD
ENDBRANCH  29  30
ENDBRANCH   3  29
BRANCH   7  32
HETATM   32  O8  UNL     1      27.933   0.656  10.786  1.00  0.00    -0.390 OA
ATOM     33  H8  UNL     1      27.974   0.780   9.845  1.00  0.00     0.210 HD
ENDBRANCH   7  32
BRANCH   4  34
HETATM   34  O6  UNL     1      31.330   0.434  10.797  1.00  0.00    -0.390 OA
ATOM     35  H6  UNL     1      31.641   0.431  11.694  1.00  0.00     0.210 HD
ENDBRANCH   4  34
BRANCH   5  36
HETATM   36  O7  UNL     1      29.867  -0.173  12.653  1.00  0.00    -0.385 OA
ATOM     37  H7  UNL     1      29.181  -0.301  13.298  1.00  0.00     0.210 HD
ENDBRANCH   5  36
TORSDOF 15
ENDMDL
MODEL 5
REMARK VINA RESULT: -6.434787647      2.671      5.073
REMARK  15 active torsions:
REMARK  status: ('A' for Active; 'I' for Inactive)
REMARK    1  A    between atoms: C2_2  and  C3_3 
REMARK    2  A    between atoms: C3_3  and  C6_6 
REMARK    3  A    between atoms: C6_6  and  O1_7 
REMARK    4  A    between atoms: C8_10  and  O2_11 
REMARK    5  A    between atoms: O2_11  and  C9_12 
REMARK    6  A    between atoms: C9_12  and  C10_13 
REMARK    7  A    between atoms: C10_13  and  C11_14 
REMARK    8  A    between atoms: C11_14  and  O3_15 
REMARK    9  A    between atoms: O3_15  and  C12_16 
REMARK   10  A    between atoms: C13_18  and  C14_19 
REMARK   11  A    between atoms: C14_19  and  O5_20 
REMARK   12  A    between atoms: C15_22  and  O6_23 
REMARK   13  A    between atoms: C16_25  and  O7_27 
REMARK   14  A    between atoms: C18_29  and  O8_30 
REMARK   15  A    between atoms: C19_32  and  O9_33 
ROOT
HETATM    1  C12 UNL     1      31.912  -0.918  11.244  1.00  0.00     0.291 C 
HETATM    2  O4  UNL     1      30.958  -1.397  10.409  1.00  0.00    -0.348 OA
HETATM    3  C13 UNL     1      29.680  -1.448  10.793  1.00  0.00     0.180 C 
HETATM    4  C15 UNL     1      29.215  -2.720  11.429  1.00  0.00     0.185 C 
HETATM    5  C16 UNL     1      30.204  -3.467  12.220  1.00  0.00     0.111 C 
HETATM    6  C17 UNL     1      30.019  -3.255  13.721  1.00  0.00     0.051 C 
HETATM    7  C18 UNL     1      31.635  -3.283  11.891  1.00  0.00     0.188 C 
HETATM    8  C19 UNL     1      32.256  -1.981  12.256  1.00  0.00     0.205 C 
ENDROOT
BRANCH   1   9
HETATM    9  O3  UNL     1      32.982  -0.578  10.428  1.00  0.00    -0.358 OA
BRANCH   9  10
HETATM   10  C11 UNL     1      32.823   0.545   9.676  1.00  0.00     0.173 C 
BRANCH  10  11
HETATM   11  C10 UNL     1      33.084   0.396   8.216  1.00  0.00     0.053 C 
BRANCH  11  12
HETATM   12  C9  UNL     1      31.750   0.474   7.500  1.00  0.00     0.178 C 
BRANCH  12  13
HETATM   13  O2  UNL     1      31.283  -0.792   7.121  1.00  0.00    -0.351 OA
BRANCH  13  14
HETATM   14  C8  UNL     1      29.948  -1.114   7.106  1.00  0.00     0.067 A 
HETATM   15  C7  UNL     1      29.006  -0.211   7.240  1.00  0.00     0.048 A 
HETATM   16  C6  UNL     1      27.557  -0.467   7.235  1.00  0.00     0.088 A 
HETATM   17  C22 UNL     1      27.167  -1.876   7.072  1.00  0.00     0.070 A 
HETATM   18  C21 UNL     1      28.276  -2.811   6.927  1.00  0.00    -0.020 A 
HETATM   19  C20 UNL     1      29.543  -2.503   6.938  1.00  0.00     0.032 A 
BRANCH  16  20
HETATM   20  C3  UNL     1      26.875   0.449   6.238  1.00  0.00    -0.013 C 
HETATM   21  C4  UNL     1      25.581   0.936   6.892  1.00  0.00     0.018 C 
HETATM   22  C5  UNL     1      27.683   1.652   5.899  1.00  0.00     0.018 C 
BRANCH  20  23
HETATM   23  C2  UNL     1      26.473  -0.266   4.985  1.00  0.00     0.007 C 
HETATM   24  C1  UNL     1      27.206   0.197   3.747  1.00  0.00     0.006 C 
ENDBRANCH  20  23
ENDBRANCH  16  20
BRANCH  16  25
HETATM   25  O1  UNL     1      27.108  -0.059   8.521  1.00  0.00    -0.385 OA
ATOM     26  H1  UNL     1      27.753  -0.379   9.141  1.00  0.00     0.211 HD
ENDBRANCH  16  25
ENDBRANCH  13  14
ENDBRANCH  12  13
ENDBRANCH  11  12
ENDBRANCH  10  11
ENDBRANCH   9  10
ENDBRANCH   1   9
BRANCH   8  27
HETATM   27  O9  UNL     1      32.051  -1.575  13.558  1.00  0.00    -0.388 OA
ATOM     28  H9  UNL     1      32.575  -0.820  13.800  1.00  0.00     0.210 HD
ENDBRANCH   8  27
BRANCH   3  29
HETATM   29  C14 UNL     1      29.202  -0.224  11.589  1.00  0.00     0.198 C 
BRANCH  29  30
HETATM   30  O5  UNL     1      27.867   0.051  11.283  1.00  0.00    -0.398 OA
ATOM     31  H5  UNL     1      27.798   0.910  10.883  1.00  0.00     0.209 HD
ENDBRANCH  29  30
ENDBRANCH   3  29
BRANCH   7  32
HETATM   32  O8  UNL     1      31.950  -3.553  10.563  1.00  0.00    -0.390 OA
ATOM     33  H8  UNL     1      32.845  -3.337  10.328  1.00  0.00     0.210 HD
ENDBRANCH   7  32
BRANCH   4  34
HETATM   34  O6  UNL     1      28.547  -3.559  10.500  1.00  0.00    -0.390 OA
ATOM     35  H6  UNL     1      29.050  -3.674   9.704  1.00  0.00     0.210 HD
ENDBRANCH   4  34
BRANCH   5  36
HETATM   36  O7  UNL     1      29.935  -4.850  12.037  1.00  0.00    -0.385 OA
ATOM     37  H7  UNL     1      29.014  -4.987  12.225  1.00  0.00     0.210 HD
ENDBRANCH   5  36
TORSDOF 15
ENDMDL
