MODEL 1
REMARK VINA RESULT: -7.401098653      0.000      0.000
REMARK  19 active torsions:
REMARK  status: ('A' for Active; 'I' for Inactive)
REMARK    1  A    between atoms: C2_2  and  C3_3 
REMARK    2  A    between atoms: C3_3  and  N1_4 
REMARK       I    between atoms: C4_6  and  N2_7 
REMARK       I    between atoms: C4_6  and  N5_12 
REMARK    3  A    between atoms: N5_12  and  C6_14 
REMARK    4  A    between atoms: C6_14  and  C7_15 
REMARK    5  A    between atoms: C7_15  and  C8_16 
REMARK    6  A    between atoms: C8_16  and  C9_17 
REMARK    7  A    between atoms: C9_17  and  N6_18 
REMARK    8  A    between atoms: N6_18  and  C10_19 
REMARK    9  A    between atoms: C10_19  and  C11_20 
REMARK   10  A    between atoms: C11_20  and  N7_21 
REMARK   11  A    between atoms: N7_21  and  C12_23 
REMARK   12  A    between atoms: C12_23  and  C13_25 
REMARK   13  A    between atoms: C13_25  and  N8_26 
REMARK   14  A    between atoms: N8_26  and  C14_29 
REMARK   15  A    between atoms: C14_29  and  C15_30 
REMARK   16  A    between atoms: C15_30  and  C16_31 
REMARK   17  A    between atoms: C16_31  and  C17_32 
REMARK   18  A    between atoms: C17_32  and  C18_33 
REMARK   19  A    between atoms: C18_33  and  N9_34 
ROOT
HETATM    1  N6  UNL     1     -42.915  29.258 -17.094  1.00  0.00    -0.066 N 
HETATM    2  C19 UNL     1     -41.496  29.210 -17.124  1.00  0.00     0.237 C 
HETATM    3  C20 UNL     1     -40.996  29.491 -18.497  1.00  0.00     0.029 C 
HETATM    4  C21 UNL     1     -42.194  29.277 -19.364  1.00  0.00     0.029 C 
HETATM    5  C22 UNL     1     -43.277  28.792 -18.448  1.00  0.00     0.237 C 
ENDROOT
BRANCH   1   6
HETATM    6  C9  UNL     1     -43.510  30.525 -16.921  1.00  0.00     0.237 C 
BRANCH   6   7
HETATM    7  C8  UNL     1     -43.895  30.895 -15.524  1.00  0.00     0.029 C 
BRANCH   7   8
HETATM    8  C7  UNL     1     -45.373  31.241 -15.534  1.00  0.00     0.022 C 
BRANCH   8   9
HETATM    9  C6  UNL     1     -46.012  31.046 -14.192  1.00  0.00     0.138 C 
BRANCH   9  10
HETATM   10  N5  UNL     1     -44.988  30.769 -13.221  1.00  0.00    -0.226 N 
HETATM   11  C4  UNL     1     -45.033  31.274 -11.888  1.00  0.00     0.676 C 
HETATM   12  N1  UNL     1     -45.118  30.428 -10.926  1.00  0.00    -0.226 N 
HETATM   13  N2  UNL     1     -44.991  32.646 -11.584  1.00  0.00    -0.166 N 
ATOM     14  H1  UNL     1     -45.148  29.439 -11.173  1.00  0.00     0.177 HD
HETATM   15  C5  UNL     1     -44.021  33.443 -11.837  1.00  0.00     0.215 C 
ATOM     16  H2  UNL     1     -45.808  33.044 -11.119  1.00  0.00     0.186 HD
HETATM   17  N3  UNL     1     -44.158  34.809 -11.453  1.00  0.00    -0.066 NA
HETATM   18  N4  UNL     1     -42.822  33.051 -12.474  1.00  0.00    -0.066 NA
ATOM     19  H5  UNL     1     -44.197  30.187 -13.496  1.00  0.00     0.177 HD
BRANCH  12  20
HETATM   20  C3  UNL     1     -45.176  30.758  -9.538  1.00  0.00     0.137 C 
BRANCH  20  21
HETATM   21  C2  UNL     1     -43.940  30.288  -8.784  1.00  0.00     0.016 C 
HETATM   22  C1  UNL     1     -42.916  31.392  -8.673  1.00  0.00     0.006 C 
ENDBRANCH  20  21
ENDBRANCH  12  20
ENDBRANCH   9  10
ENDBRANCH   8   9
ENDBRANCH   7   8
ENDBRANCH   6   7
ENDBRANCH   1   6
BRANCH   1  23
HETATM   23  C10 UNL     1     -43.476  28.205 -16.231  1.00  0.00     0.257 C 
BRANCH  23  24
HETATM   24  C11 UNL     1     -43.362  26.849 -16.815  1.00  0.00     0.148 C 
BRANCH  24  25
HETATM   25  N7  UNL     1     -43.255  25.865 -15.758  1.00  0.00    -0.381 N 
ATOM     26  H7  UNL     1     -44.088  25.700 -15.193  1.00  0.00     0.160 HD
BRANCH  25  27
HETATM   27  C12 UNL     1     -42.112  25.116 -15.440  1.00  0.00     0.099 C 
HETATM   28  S1  UNL     1     -40.644  25.847 -15.518  1.00  0.00    -0.064 SA
BRANCH  27  29
HETATM   29  C13 UNL     1     -42.228  23.695 -15.022  1.00  0.00     0.301 C 
BRANCH  29  30
HETATM   30  N8  UNL     1     -43.585  23.221 -15.085  1.00  0.00    -0.069 N 
ATOM     31  H82 UNL     1     -44.244  23.985 -14.930  1.00  0.00     0.277 HD
ATOM     32  H81 UNL     1     -43.838  22.973 -16.042  1.00  0.00     0.277 HD
BRANCH  30  33
HETATM   33  C14 UNL     1     -43.848  22.135 -14.192  1.00  0.00     0.232 C 
BRANCH  33  34
HETATM   34  C15 UNL     1     -42.606  21.433 -13.689  1.00  0.00     0.027 C 
BRANCH  34  35
HETATM   35  C16 UNL     1     -42.947  20.077 -13.127  1.00  0.00     0.003 C 
BRANCH  35  36
HETATM   36  C17 UNL     1     -41.832  19.478 -12.312  1.00  0.00     0.027 C 
BRANCH  36  37
HETATM   37  C18 UNL     1     -40.624  20.364 -12.208  1.00  0.00     0.229 C 
BRANCH  37  38
HETATM   38  N9  UNL     1     -40.472  20.795 -10.829  1.00  0.00    -0.079 N 
ATOM     39  H93 UNL     1     -40.197  20.031 -10.211  1.00  0.00     0.274 HD
ATOM     40  H92 UNL     1     -39.653  21.388 -10.696  1.00  0.00     0.274 HD
ATOM     41  H91 UNL     1     -41.334  21.249 -10.526  1.00  0.00     0.274 HD
ENDBRANCH  37  38
ENDBRANCH  36  37
ENDBRANCH  35  36
ENDBRANCH  34  35
ENDBRANCH  33  34
ENDBRANCH  30  33
ENDBRANCH  29  30
ENDBRANCH  27  29
ENDBRANCH  25  27
ENDBRANCH  24  25
ENDBRANCH  23  24
ENDBRANCH   1  23
TORSDOF 19
ENDMDL
MODEL 2
REMARK VINA RESULT: -7.371569331      1.382      1.607
REMARK  19 active torsions:
REMARK  status: ('A' for Active; 'I' for Inactive)
REMARK    1  A    between atoms: C2_2  and  C3_3 
REMARK    2  A    between atoms: C3_3  and  N1_4 
REMARK       I    between atoms: C4_6  and  N2_7 
REMARK       I    between atoms: C4_6  and  N5_12 
REMARK    3  A    between atoms: N5_12  and  C6_14 
REMARK    4  A    between atoms: C6_14  and  C7_15 
REMARK    5  A    between atoms: C7_15  and  C8_16 
REMARK    6  A    between atoms: C8_16  and  C9_17 
REMARK    7  A    between atoms: C9_17  and  N6_18 
REMARK    8  A    between atoms: N6_18  and  C10_19 
REMARK    9  A    between atoms: C10_19  and  C11_20 
REMARK   10  A    between atoms: C11_20  and  N7_21 
REMARK   11  A    between atoms: N7_21  and  C12_23 
REMARK   12  A    between atoms: C12_23  and  C13_25 
REMARK   13  A    between atoms: C13_25  and  N8_26 
REMARK   14  A    between atoms: N8_26  and  C14_29 
REMARK   15  A    between atoms: C14_29  and  C15_30 
REMARK   16  A    between atoms: C15_30  and  C16_31 
REMARK   17  A    between atoms: C16_31  and  C17_32 
REMARK   18  A    between atoms: C17_32  and  C18_33 
REMARK   19  A    between atoms: C18_33  and  N9_34 
ROOT
HETATM    1  N6  UNL     1     -42.400  29.033 -16.757  1.00  0.00    -0.066 N 
HETATM    2  C19 UNL     1     -40.993  28.940 -16.923  1.00  0.00     0.237 C 
HETATM    3  C20 UNL     1     -40.617  29.219 -18.336  1.00  0.00     0.029 C 
HETATM    4  C21 UNL     1     -41.898  29.052 -19.086  1.00  0.00     0.029 C 
HETATM    5  C22 UNL     1     -42.904  28.592 -18.074  1.00  0.00     0.237 C 
ENDROOT
BRANCH   1   6
HETATM    6  C9  UNL     1     -42.936  30.316 -16.520  1.00  0.00     0.237 C 
BRANCH   6   7
HETATM    7  C8  UNL     1     -44.229  30.370 -15.770  1.00  0.00     0.029 C 
BRANCH   7   8
HETATM    8  C7  UNL     1     -44.905  31.683 -16.119  1.00  0.00     0.022 C 
BRANCH   8   9
HETATM    9  C6  UNL     1     -45.216  32.503 -14.904  1.00  0.00     0.138 C 
BRANCH   9  10
HETATM   10  N5  UNL     1     -44.244  32.216 -13.883  1.00  0.00    -0.226 N 
HETATM   11  C4  UNL     1     -44.583  32.128 -12.500  1.00  0.00     0.676 C 
HETATM   12  N1  UNL     1     -44.422  30.999 -11.912  1.00  0.00    -0.226 N 
HETATM   13  N2  UNL     1     -45.082  33.214 -11.760  1.00  0.00    -0.166 N 
ATOM     14  H1  UNL     1     -44.059  30.227 -12.471  1.00  0.00     0.177 HD
HETATM   15  C5  UNL     1     -44.464  34.311 -11.525  1.00  0.00     0.215 C 
ATOM     16  H2  UNL     1     -46.023  33.121 -11.376  1.00  0.00     0.186 HD
HETATM   17  N3  UNL     1     -45.133  35.305 -10.752  1.00  0.00    -0.066 NA
HETATM   18  N4  UNL     1     -43.158  34.597 -11.983  1.00  0.00    -0.066 NA
ATOM     19  H5  UNL     1     -43.274  32.068 -14.159  1.00  0.00     0.177 HD
BRANCH  12  20
HETATM   20  C3  UNL     1     -44.711  30.734 -10.538  1.00  0.00     0.137 C 
BRANCH  20  21
HETATM   21  C2  UNL     1     -43.462  30.778  -9.670  1.00  0.00     0.016 C 
HETATM   22  C1  UNL     1     -43.502  31.947  -8.716  1.00  0.00     0.006 C 
ENDBRANCH  20  21
ENDBRANCH  12  20
ENDBRANCH   9  10
ENDBRANCH   8   9
ENDBRANCH   7   8
ENDBRANCH   6   7
ENDBRANCH   1   6
BRANCH   1  23
HETATM   23  C10 UNL     1     -42.911  27.989 -15.852  1.00  0.00     0.257 C 
BRANCH  23  24
HETATM   24  C11 UNL     1     -43.201  26.711 -16.541  1.00  0.00     0.148 C 
BRANCH  24  25
HETATM   25  N7  UNL     1     -43.165  25.620 -15.589  1.00  0.00    -0.381 N 
ATOM     26  H7  UNL     1     -44.027  25.420 -15.081  1.00  0.00     0.160 HD
BRANCH  25  27
HETATM   27  C12 UNL     1     -42.055  24.811 -15.301  1.00  0.00     0.099 C 
HETATM   28  S1  UNL     1     -40.568  25.506 -15.241  1.00  0.00    -0.064 SA
BRANCH  27  29
HETATM   29  C13 UNL     1     -42.221  23.359 -15.037  1.00  0.00     0.301 C 
BRANCH  29  30
HETATM   30  N8  UNL     1     -43.607  22.981 -14.945  1.00  0.00    -0.069 N 
ATOM     31  H82 UNL     1     -44.196  23.798 -14.784  1.00  0.00     0.277 HD
ATOM     32  H81 UNL     1     -43.964  22.693 -15.856  1.00  0.00     0.277 HD
BRANCH  30  33
HETATM   33  C14 UNL     1     -43.855  21.974 -13.961  1.00  0.00     0.232 C 
BRANCH  33  34
HETATM   34  C15 UNL     1     -42.636  21.164 -13.582  1.00  0.00     0.027 C 
BRANCH  34  35
HETATM   35  C16 UNL     1     -42.951  20.215 -12.455  1.00  0.00     0.003 C 
BRANCH  35  36
HETATM   36  C17 UNL     1     -43.577  18.928 -12.923  1.00  0.00     0.027 C 
BRANCH  36  37
HETATM   37  C18 UNL     1     -44.840  18.575 -12.192  1.00  0.00     0.229 C 
BRANCH  37  38
HETATM   38  N9  UNL     1     -45.897  19.479 -12.611  1.00  0.00    -0.079 N 
ATOM     39  H93 UNL     1     -45.630  20.042 -13.418  1.00  0.00     0.274 HD
ATOM     40  H92 UNL     1     -46.684  18.986 -13.034  1.00  0.00     0.274 HD
ATOM     41  H91 UNL     1     -46.180  20.051 -11.815  1.00  0.00     0.274 HD
ENDBRANCH  37  38
ENDBRANCH  36  37
ENDBRANCH  35  36
ENDBRANCH  34  35
ENDBRANCH  33  34
ENDBRANCH  30  33
ENDBRANCH  29  30
ENDBRANCH  27  29
ENDBRANCH  25  27
ENDBRANCH  24  25
ENDBRANCH  23  24
ENDBRANCH   1  23
TORSDOF 19
ENDMDL
MODEL 3
REMARK VINA RESULT: -7.339218300      5.468     10.036
REMARK  19 active torsions:
REMARK  status: ('A' for Active; 'I' for Inactive)
REMARK    1  A    between atoms: C2_2  and  C3_3 
REMARK    2  A    between atoms: C3_3  and  N1_4 
REMARK       I    between atoms: C4_6  and  N2_7 
REMARK       I    between atoms: C4_6  and  N5_12 
REMARK    3  A    between atoms: N5_12  and  C6_14 
REMARK    4  A    between atoms: C6_14  and  C7_15 
REMARK    5  A    between atoms: C7_15  and  C8_16 
REMARK    6  A    between atoms: C8_16  and  C9_17 
REMARK    7  A    between atoms: C9_17  and  N6_18 
REMARK    8  A    between atoms: N6_18  and  C10_19 
REMARK    9  A    between atoms: C10_19  and  C11_20 
REMARK   10  A    between atoms: C11_20  and  N7_21 
REMARK   11  A    between atoms: N7_21  and  C12_23 
REMARK   12  A    between atoms: C12_23  and  C13_25 
REMARK   13  A    between atoms: C13_25  and  N8_26 
REMARK   14  A    between atoms: N8_26  and  C14_29 
REMARK   15  A    between atoms: C14_29  and  C15_30 
REMARK   16  A    between atoms: C15_30  and  C16_31 
REMARK   17  A    between atoms: C16_31  and  C17_32 
REMARK   18  A    between atoms: C17_32  and  C18_33 
REMARK   19  A    between atoms: C18_33  and  N9_34 
ROOT
HETATM    1  N6  UNL     1     -43.996  30.606 -19.801  1.00  0.00    -0.066 N 
HETATM    2  C19 UNL     1     -45.400  30.679 -19.602  1.00  0.00     0.237 C 
HETATM    3  C20 UNL     1     -45.759  31.940 -18.895  1.00  0.00     0.029 C 
HETATM    4  C21 UNL     1     -44.466  32.397 -18.303  1.00  0.00     0.029 C 
HETATM    5  C22 UNL     1     -43.470  31.323 -18.622  1.00  0.00     0.237 C 
ENDROOT
BRANCH   1   6
HETATM    6  C9  UNL     1     -43.475  31.252 -20.942  1.00  0.00     0.237 C 
BRANCH   6   7
HETATM    7  C8  UNL     1     -44.210  31.030 -22.226  1.00  0.00     0.029 C 
BRANCH   7   8
HETATM    8  C7  UNL     1     -43.173  30.851 -23.320  1.00  0.00     0.022 C 
BRANCH   8   9
HETATM    9  C6  UNL     1     -42.689  29.436 -23.420  1.00  0.00     0.138 C 
BRANCH   9  10
HETATM   10  N5  UNL     1     -42.145  29.217 -24.733  1.00  0.00    -0.226 N 
HETATM   11  C4  UNL     1     -42.738  29.756 -25.912  1.00  0.00     0.676 C 
HETATM   12  N1  UNL     1     -42.057  30.604 -26.595  1.00  0.00    -0.226 N 
HETATM   13  N2  UNL     1     -44.025  29.404 -26.356  1.00  0.00    -0.166 N 
ATOM     14  H1  UNL     1     -41.127  30.843 -26.252  1.00  0.00     0.177 HD
HETATM   15  C5  UNL     1     -44.401  28.234 -26.718  1.00  0.00     0.215 C 
ATOM     16  H2  UNL     1     -44.723  30.147 -26.392  1.00  0.00     0.186 HD
HETATM   17  N3  UNL     1     -45.753  28.066 -27.139  1.00  0.00    -0.066 NA
HETATM   18  N4  UNL     1     -43.560  27.100 -26.726  1.00  0.00    -0.066 NA
ATOM     19  H5  UNL     1     -41.299  28.654 -24.824  1.00  0.00     0.177 HD
BRANCH  12  20
HETATM   20  C3  UNL     1     -42.496  31.241 -27.796  1.00  0.00     0.137 C 
BRANCH  20  21
HETATM   21  C2  UNL     1     -42.173  32.728 -27.808  1.00  0.00     0.016 C 
HETATM   22  C1  UNL     1     -41.422  33.113 -29.060  1.00  0.00     0.006 C 
ENDBRANCH  20  21
ENDBRANCH  12  20
ENDBRANCH   9  10
ENDBRANCH   8   9
ENDBRANCH   7   8
ENDBRANCH   6   7
ENDBRANCH   1   6
BRANCH   1  23
HETATM   23  C10 UNL     1     -43.489  29.238 -19.598  1.00  0.00     0.257 C 
BRANCH  23  24
HETATM   24  C11 UNL     1     -44.189  28.512 -18.514  1.00  0.00     0.148 C 
BRANCH  24  25
HETATM   25  N7  UNL     1     -43.227  27.811 -17.689  1.00  0.00    -0.381 N 
ATOM     26  H7  UNL     1     -42.607  27.152 -18.159  1.00  0.00     0.160 HD
BRANCH  25  27
HETATM   27  C12 UNL     1     -43.069  27.956 -16.302  1.00  0.00     0.099 C 
HETATM   28  S1  UNL     1     -43.730  29.266 -15.566  1.00  0.00    -0.064 SA
BRANCH  27  29
HETATM   29  C13 UNL     1     -42.335  26.935 -15.511  1.00  0.00     0.301 C 
BRANCH  29  30
HETATM   30  N8  UNL     1     -42.928  25.629 -15.631  1.00  0.00    -0.069 N 
ATOM     31  H82 UNL     1     -43.735  25.539 -15.013  1.00  0.00     0.277 HD
ATOM     32  H81 UNL     1     -43.393  25.524 -16.532  1.00  0.00     0.277 HD
BRANCH  30  33
HETATM   33  C14 UNL     1     -42.000  24.563 -15.411  1.00  0.00     0.232 C 
BRANCH  33  34
HETATM   34  C15 UNL     1     -41.418  24.527 -14.016  1.00  0.00     0.027 C 
BRANCH  34  35
HETATM   35  C16 UNL     1     -42.080  23.457 -13.186  1.00  0.00     0.003 C 
BRANCH  35  36
HETATM   36  C17 UNL     1     -42.275  22.165 -13.936  1.00  0.00     0.027 C 
BRANCH  36  37
HETATM   37  C18 UNL     1     -43.639  21.565 -13.752  1.00  0.00     0.229 C 
BRANCH  37  38
HETATM   38  N9  UNL     1     -44.522  22.074 -14.787  1.00  0.00    -0.079 N 
ATOM     39  H93 UNL     1     -44.520  23.093 -14.833  1.00  0.00     0.274 HD
ATOM     40  H92 UNL     1     -44.169  21.887 -15.725  1.00  0.00     0.274 HD
ATOM     41  H91 UNL     1     -45.457  21.693 -14.641  1.00  0.00     0.274 HD
ENDBRANCH  37  38
ENDBRANCH  36  37
ENDBRANCH  35  36
ENDBRANCH  34  35
ENDBRANCH  33  34
ENDBRANCH  30  33
ENDBRANCH  29  30
ENDBRANCH  27  29
ENDBRANCH  25  27
ENDBRANCH  24  25
ENDBRANCH  23  24
ENDBRANCH   1  23
TORSDOF 19
ENDMDL
MODEL 4
REMARK VINA RESULT: -7.305625466      1.288      1.553
REMARK  19 active torsions:
REMARK  status: ('A' for Active; 'I' for Inactive)
REMARK    1  A    between atoms: C2_2  and  C3_3 
REMARK    2  A    between atoms: C3_3  and  N1_4 
REMARK       I    between atoms: C4_6  and  N2_7 
REMARK       I    between atoms: C4_6  and  N5_12 
REMARK    3  A    between atoms: N5_12  and  C6_14 
REMARK    4  A    between atoms: C6_14  and  C7_15 
REMARK    5  A    between atoms: C7_15  and  C8_16 
REMARK    6  A    between atoms: C8_16  and  C9_17 
REMARK    7  A    between atoms: C9_17  and  N6_18 
REMARK    8  A    between atoms: N6_18  and  C10_19 
REMARK    9  A    between atoms: C10_19  and  C11_20 
REMARK   10  A    between atoms: C11_20  and  N7_21 
REMARK   11  A    between atoms: N7_21  and  C12_23 
REMARK   12  A    between atoms: C12_23  and  C13_25 
REMARK   13  A    between atoms: C13_25  and  N8_26 
REMARK   14  A    between atoms: N8_26  and  C14_29 
REMARK   15  A    between atoms: C14_29  and  C15_30 
REMARK   16  A    between atoms: C15_30  and  C16_31 
REMARK   17  A    between atoms: C16_31  and  C17_32 
REMARK   18  A    between atoms: C17_32  and  C18_33 
REMARK   19  A    between atoms: C18_33  and  N9_34 
ROOT
HETATM    1  N6  UNL     1     -42.386  28.111 -16.598  1.00  0.00    -0.066 N 
HETATM    2  C19 UNL     1     -41.033  27.872 -16.957  1.00  0.00     0.237 C 
HETATM    3  C20 UNL     1     -40.623  28.775 -18.067  1.00  0.00     0.029 C 
HETATM    4  C21 UNL     1     -41.919  29.252 -18.636  1.00  0.00     0.029 C 
HETATM    5  C22 UNL     1     -42.988  28.518 -17.884  1.00  0.00     0.237 C 
ENDROOT
BRANCH   1   6
HETATM    6  C9  UNL     1     -42.631  29.153 -15.680  1.00  0.00     0.237 C 
BRANCH   6   7
HETATM    7  C8  UNL     1     -44.042  29.642 -15.590  1.00  0.00     0.029 C 
BRANCH   7   8
HETATM    8  C7  UNL     1     -44.010  31.015 -14.942  1.00  0.00     0.022 C 
BRANCH   8   9
HETATM    9  C6  UNL     1     -44.561  30.999 -13.549  1.00  0.00     0.138 C 
BRANCH   9  10
HETATM   10  N5  UNL     1     -43.534  31.417 -12.633  1.00  0.00    -0.226 N 
HETATM   11  C4  UNL     1     -43.821  31.892 -11.319  1.00  0.00     0.676 C 
HETATM   12  N1  UNL     1     -43.380  31.212 -10.323  1.00  0.00    -0.226 N 
HETATM   13  N2  UNL     1     -44.561  33.061 -11.068  1.00  0.00    -0.166 N 
ATOM     14  H1  UNL     1     -42.846  30.368 -10.532  1.00  0.00     0.177 HD
HETATM   15  C5  UNL     1     -44.227  34.250 -11.410  1.00  0.00     0.215 C 
ATOM     16  H2  UNL     1     -45.444  32.953 -10.569  1.00  0.00     0.186 HD
HETATM   17  N3  UNL     1     -45.108  35.317 -11.068  1.00  0.00    -0.066 NA
HETATM   18  N4  UNL     1     -43.039  34.569 -12.104  1.00  0.00    -0.066 NA
ATOM     19  H5  UNL     1     -42.561  31.371 -12.935  1.00  0.00     0.177 HD
BRANCH  12  20
HETATM   20  C3  UNL     1     -43.574  31.540  -8.947  1.00  0.00     0.137 C 
BRANCH  20  21
HETATM   21  C2  UNL     1     -42.850  30.576  -8.019  1.00  0.00     0.016 C 
HETATM   22  C1  UNL     1     -41.563  31.174  -7.506  1.00  0.00     0.006 C 
ENDBRANCH  20  21
ENDBRANCH  12  20
ENDBRANCH   9  10
ENDBRANCH   8   9
ENDBRANCH   7   8
ENDBRANCH   6   7
ENDBRANCH   1   6
BRANCH   1  23
HETATM   23  C10 UNL     1     -43.097  26.857 -16.293  1.00  0.00     0.257 C 
BRANCH  23  24
HETATM   24  C11 UNL     1     -42.225  25.823 -15.693  1.00  0.00     0.148 C 
BRANCH  24  25
HETATM   25  N7  UNL     1     -42.993  24.625 -15.425  1.00  0.00    -0.381 N 
ATOM     26  H7  UNL     1     -43.965  24.619 -15.734  1.00  0.00     0.160 HD
BRANCH  25  27
HETATM   27  C12 UNL     1     -42.525  23.471 -14.779  1.00  0.00     0.099 C 
HETATM   28  S1  UNL     1     -40.929  23.370 -14.404  1.00  0.00    -0.064 SA
BRANCH  27  29
HETATM   29  C13 UNL     1     -43.456  22.370 -14.423  1.00  0.00     0.301 C 
BRANCH  29  30
HETATM   30  N8  UNL     1     -43.853  22.422 -13.041  1.00  0.00    -0.069 N 
ATOM     31  H82 UNL     1     -43.132  22.867 -12.473  1.00  0.00     0.277 HD
ATOM     32  H81 UNL     1     -44.610  23.092 -12.907  1.00  0.00     0.277 HD
BRANCH  30  33
HETATM   33  C14 UNL     1     -44.206  21.144 -12.504  1.00  0.00     0.232 C 
BRANCH  33  34
HETATM   34  C15 UNL     1     -43.528  19.977 -13.186  1.00  0.00     0.027 C 
BRANCH  34  35
HETATM   35  C16 UNL     1     -42.434  19.410 -12.318  1.00  0.00     0.003 C 
BRANCH  35  36
HETATM   36  C17 UNL     1     -41.078  19.987 -12.626  1.00  0.00     0.027 C 
BRANCH  36  37
HETATM   37  C18 UNL     1     -40.441  20.678 -11.455  1.00  0.00     0.229 C 
BRANCH  37  38
HETATM   38  N9  UNL     1     -41.420  20.800 -10.389  1.00  0.00    -0.079 N 
ATOM     39  H93 UNL     1     -42.121  21.515 -10.584  1.00  0.00     0.274 HD
ATOM     40  H92 UNL     1     -42.045  19.995 -10.342  1.00  0.00     0.274 HD
ATOM     41  H91 UNL     1     -40.932  20.964  -9.508  1.00  0.00     0.274 HD
ENDBRANCH  37  38
ENDBRANCH  36  37
ENDBRANCH  35  36
ENDBRANCH  34  35
ENDBRANCH  33  34
ENDBRANCH  30  33
ENDBRANCH  29  30
ENDBRANCH  27  29
ENDBRANCH  25  27
ENDBRANCH  24  25
ENDBRANCH  23  24
ENDBRANCH   1  23
TORSDOF 19
ENDMDL
MODEL 5
REMARK VINA RESULT: -7.303276488      4.032     10.108
REMARK  19 active torsions:
REMARK  status: ('A' for Active; 'I' for Inactive)
REMARK    1  A    between atoms: C2_2  and  C3_3 
REMARK    2  A    between atoms: C3_3  and  N1_4 
REMARK       I    between atoms: C4_6  and  N2_7 
REMARK       I    between atoms: C4_6  and  N5_12 
REMARK    3  A    between atoms: N5_12  and  C6_14 
REMARK    4  A    between atoms: C6_14  and  C7_15 
REMARK    5  A    between atoms: C7_15  and  C8_16 
REMARK    6  A    between atoms: C8_16  and  C9_17 
REMARK    7  A    between atoms: C9_17  and  N6_18 
REMARK    8  A    between atoms: N6_18  and  C10_19 
REMARK    9  A    between atoms: C10_19  and  C11_20 
REMARK   10  A    between atoms: C11_20  and  N7_21 
REMARK   11  A    between atoms: N7_21  and  C12_23 
REMARK   12  A    between atoms: C12_23  and  C13_25 
REMARK   13  A    between atoms: C13_25  and  N8_26 
REMARK   14  A    between atoms: N8_26  and  C14_29 
REMARK   15  A    between atoms: C14_29  and  C15_30 
REMARK   16  A    between atoms: C15_30  and  C16_31 
REMARK   17  A    between atoms: C16_31  and  C17_32 
REMARK   18  A    between atoms: C17_32  and  C18_33 
REMARK   19  A    between atoms: C18_33  and  N9_34 
ROOT
HETATM    1  N6  UNL     1     -42.284  27.807 -16.529  1.00  0.00    -0.066 N 
HETATM    2  C19 UNL     1     -42.013  28.909 -15.675  1.00  0.00     0.237 C 
HETATM    3  C20 UNL     1     -43.283  29.529 -15.208  1.00  0.00     0.029 C 
HETATM    4  C21 UNL     1     -44.305  29.015 -16.168  1.00  0.00     0.029 C 
HETATM    5  C22 UNL     1     -43.544  28.215 -17.183  1.00  0.00     0.237 C 
ENDROOT
BRANCH   1   6
HETATM    6  C9  UNL     1     -42.524  26.561 -15.912  1.00  0.00     0.237 C 
BRANCH   6   7
HETATM    7  C8  UNL     1     -41.318  25.769 -15.520  1.00  0.00     0.029 C 
BRANCH   7   8
HETATM    8  C7  UNL     1     -41.777  24.678 -14.570  1.00  0.00     0.022 C 
BRANCH   8   9
HETATM    9  C6  UNL     1     -41.243  23.331 -14.950  1.00  0.00     0.138 C 
BRANCH   9  10
HETATM   10  N5  UNL     1     -42.309  22.368 -14.885  1.00  0.00    -0.226 N 
HETATM   11  C4  UNL     1     -43.167  22.244 -13.753  1.00  0.00     0.676 C 
HETATM   12  N1  UNL     1     -44.416  22.493 -13.913  1.00  0.00    -0.226 N 
HETATM   13  N2  UNL     1     -42.708  21.865 -12.478  1.00  0.00    -0.166 N 
ATOM     14  H1  UNL     1     -44.723  22.765 -14.847  1.00  0.00     0.177 HD
HETATM   15  C5  UNL     1     -42.170  20.743 -12.176  1.00  0.00     0.215 C 
ATOM     16  H2  UNL     1     -42.814  22.547 -11.726  1.00  0.00     0.186 HD
HETATM   17  N3  UNL     1     -41.764  20.537 -10.824  1.00  0.00    -0.066 NA
HETATM   18  N4  UNL     1     -41.954  19.696 -13.098  1.00  0.00    -0.066 NA
ATOM     19  H5  UNL     1     -42.458  21.748 -15.682  1.00  0.00     0.177 HD
BRANCH  12  20
HETATM   20  C3  UNL     1     -45.412  22.420 -12.892  1.00  0.00     0.137 C 
BRANCH  20  21
HETATM   21  C2  UNL     1     -46.025  21.031 -12.785  1.00  0.00     0.016 C 
HETATM   22  C1  UNL     1     -45.779  20.430 -11.422  1.00  0.00     0.006 C 
ENDBRANCH  20  21
ENDBRANCH  12  20
ENDBRANCH   9  10
ENDBRANCH   8   9
ENDBRANCH   7   8
ENDBRANCH   6   7
ENDBRANCH   1   6
BRANCH   1  23
HETATM   23  C10 UNL     1     -41.340  27.750 -17.659  1.00  0.00     0.257 C 
BRANCH  23  24
HETATM   24  C11 UNL     1     -40.615  29.022 -17.878  1.00  0.00     0.148 C 
BRANCH  24  25
HETATM   25  N7  UNL     1     -40.921  29.542 -19.195  1.00  0.00    -0.381 N 
ATOM     26  H7  UNL     1     -40.171  29.523 -19.886  1.00  0.00     0.160 HD
BRANCH  25  27
HETATM   27  C12 UNL     1     -42.154  30.070 -19.608  1.00  0.00     0.099 C 
HETATM   28  S1  UNL     1     -42.734  31.405 -18.848  1.00  0.00    -0.064 SA
BRANCH  27  29
HETATM   29  C13 UNL     1     -42.911  29.446 -20.723  1.00  0.00     0.301 C 
BRANCH  29  30
HETATM   30  N8  UNL     1     -42.109  29.305 -21.910  1.00  0.00    -0.069 N 
ATOM     31  H82 UNL     1     -41.275  29.889 -21.855  1.00  0.00     0.277 HD
ATOM     32  H81 UNL     1     -41.669  28.385 -21.942  1.00  0.00     0.277 HD
BRANCH  30  33
HETATM   33  C14 UNL     1     -42.832  29.564 -23.116  1.00  0.00     0.232 C 
BRANCH  33  34
HETATM   34  C15 UNL     1     -42.085  29.193 -24.377  1.00  0.00     0.027 C 
BRANCH  34  35
HETATM   35  C16 UNL     1     -42.971  29.336 -25.588  1.00  0.00     0.003 C 
BRANCH  35  36
HETATM   36  C17 UNL     1     -43.246  28.025 -26.276  1.00  0.00     0.027 C 
BRANCH  36  37
HETATM   37  C18 UNL     1     -43.855  28.180 -27.639  1.00  0.00     0.229 C 
BRANCH  37  38
HETATM   38  N9  UNL     1     -42.792  28.299 -28.621  1.00  0.00    -0.079 N 
ATOM     39  H93 UNL     1     -43.141  28.563 -29.542  1.00  0.00     0.274 HD
ATOM     40  H92 UNL     1     -42.199  29.111 -28.455  1.00  0.00     0.274 HD
ATOM     41  H91 UNL     1     -42.261  27.428 -28.643  1.00  0.00     0.274 HD
ENDBRANCH  37  38
ENDBRANCH  36  37
ENDBRANCH  35  36
ENDBRANCH  34  35
ENDBRANCH  33  34
ENDBRANCH  30  33
ENDBRANCH  29  30
ENDBRANCH  27  29
ENDBRANCH  25  27
ENDBRANCH  24  25
ENDBRANCH  23  24
ENDBRANCH   1  23
TORSDOF 19
ENDMDL
