MODEL 1
REMARK VINA RESULT: -7.449531458      0.000      0.000
REMARK  18 active torsions:
REMARK  status: ('A' for Active; 'I' for Inactive)
REMARK    1  A    between atoms: C4_4  and  C5_5 
REMARK    2  A    between atoms: C5_5  and  N1_6 
REMARK       I    between atoms: N1_6  and  C6_8 
REMARK       I    between atoms: C6_8  and  N2_10 
REMARK    3  A    between atoms: N2_10  and  C7_12 
REMARK    4  A    between atoms: C7_12  and  C8_13 
REMARK    5  A    between atoms: C8_13  and  C9_14 
REMARK    6  A    between atoms: C9_14  and  N3_15 
REMARK    7  A    between atoms: N3_15  and  C12_18 
REMARK    8  A    between atoms: C12_18  and  C13_19 
REMARK       I    between atoms: C13_19  and  N4_21 
REMARK    9  A    between atoms: N4_21  and  C14_23 
REMARK   10  A    between atoms: C14_23  and  C15_24 
REMARK   11  A    between atoms: C15_24  and  C16_25 
REMARK   12  A    between atoms: C16_25  and  C17_26 
REMARK   13  A    between atoms: C17_26  and  C18_27 
REMARK   14  A    between atoms: C18_27  and  N5_28 
REMARK   15  A    between atoms: N5_28  and  C19_31 
REMARK   16  A    between atoms: C19_31  and  C20_32 
REMARK   17  A    between atoms: C20_32  and  C21_33 
REMARK   18  A    between atoms: C21_33  and  N6_34 
REMARK       I    between atoms: N6_34  and  C22_36 
REMARK       I    between atoms: C22_36  and  N7_38 
ROOT
HETATM    1  C1  UNL     1     -43.762  17.851 -12.815  1.00  0.00     0.113 C 
HETATM    2  C2  UNL     1     -42.984  18.791 -12.770  1.00  0.00    -0.098 C 
HETATM    3  C3  UNL     1     -42.064  19.865 -12.711  1.00  0.00    -0.027 C 
HETATM    4  C4  UNL     1     -41.257  20.766 -12.655  1.00  0.00    -0.074 C 
ENDROOT
BRANCH   4   5
HETATM    5  C5  UNL     1     -40.255  21.841 -12.581  1.00  0.00     0.219 C 
BRANCH   5   6
HETATM    6  N1  UNL     1     -40.191  22.618 -13.786  1.00  0.00    -0.332 N 
HETATM    7  C6  UNL     1     -41.037  23.733 -13.952  1.00  0.00     0.320 C 
HETATM    8  O1  UNL     1     -41.850  24.059 -13.049  1.00  0.00    -0.247 OA
HETATM    9  N2  UNL     1     -41.013  24.536 -15.134  1.00  0.00    -0.323 N 
ATOM     10  H2  UNL     1     -40.365  24.285 -15.880  1.00  0.00     0.169 HD
ATOM     11  H1  UNL     1     -39.533  22.363 -14.523  1.00  0.00     0.165 HD
BRANCH   9  12
HETATM   12  C7  UNL     1     -41.837  25.650 -15.315  1.00  0.00     0.067 C 
BRANCH  12  13
HETATM   13  C8  UNL     1     -41.315  27.028 -15.432  1.00  0.00     0.072 C 
BRANCH  13  14
HETATM   14  C9  UNL     1     -42.209  28.179 -15.503  1.00  0.00     0.242 C 
BRANCH  14  15
HETATM   15  N3  UNL     1     -42.545  28.910 -16.633  1.00  0.00    -0.066 N 
HETATM   16  C10 UNL     1     -43.001  30.275 -16.297  1.00  0.00     0.272 C 
HETATM   17  C11 UNL     1     -41.546  29.009 -17.656  1.00  0.00     0.272 C 
BRANCH  15  18
HETATM   18  C12 UNL     1     -43.692  28.236 -17.268  1.00  0.00     0.338 C 
BRANCH  18  19
HETATM   19  C13 UNL     1     -44.045  28.689 -18.604  1.00  0.00     0.243 C 
HETATM   20  O2  UNL     1     -43.648  28.148 -19.651  1.00  0.00    -0.272 OA
HETATM   21  N4  UNL     1     -44.908  29.838 -18.700  1.00  0.00    -0.360 N 
ATOM     22  H4  UNL     1     -45.250  30.284 -17.850  1.00  0.00     0.162 HD
BRANCH  21  23
HETATM   23  C14 UNL     1     -45.290  30.362 -19.975  1.00  0.00     0.122 C 
BRANCH  23  24
HETATM   24  C15 UNL     1     -44.380  31.458 -20.392  1.00  0.00     0.020 C 
BRANCH  24  25
HETATM   25  C16 UNL     1     -43.903  31.335 -21.846  1.00  0.00     0.003 C 
BRANCH  25  26
HETATM   26  C17 UNL     1     -44.819  32.068 -22.763  1.00  0.00     0.027 C 
BRANCH  26  27
HETATM   27  C18 UNL     1     -45.622  31.126 -23.619  1.00  0.00     0.232 C 
BRANCH  27  28
HETATM   28  N5  UNL     1     -44.845  29.959 -23.912  1.00  0.00    -0.075 N 
ATOM     29  H52 UNL     1     -43.886  30.220 -24.141  1.00  0.00     0.277 HD
ATOM     30  H51 UNL     1     -44.681  29.419 -23.063  1.00  0.00     0.277 HD
BRANCH  28  31
HETATM   31  C19 UNL     1     -45.402  29.112 -24.953  1.00  0.00     0.234 C 
BRANCH  31  32
HETATM   32  C20 UNL     1     -44.277  28.261 -25.520  1.00  0.00     0.047 C 
BRANCH  32  33
HETATM   33  C21 UNL     1     -42.966  28.906 -25.141  1.00  0.00     0.126 C 
BRANCH  33  34
HETATM   34  N6  UNL     1     -42.276  29.464 -26.272  1.00  0.00    -0.343 N 
HETATM   35  C22 UNL     1     -42.418  30.808 -26.680  1.00  0.00     0.315 C 
HETATM   36  O3  UNL     1     -43.151  31.612 -26.073  1.00  0.00    -0.247 OA
HETATM   37  N7  UNL     1     -41.719  31.305 -27.821  1.00  0.00    -0.347 N 
HETATM   38  C23 UNL     1     -41.867  32.683 -28.252  1.00  0.00     0.151 C 
ATOM     39  H7  UNL     1     -41.105  30.681 -28.344  1.00  0.00     0.163 HD
ATOM     40  H6  UNL     1     -41.652  28.859 -26.806  1.00  0.00     0.164 HD
ENDBRANCH  33  34
ENDBRANCH  32  33
ENDBRANCH  31  32
ENDBRANCH  28  31
ENDBRANCH  27  28
ENDBRANCH  26  27
ENDBRANCH  25  26
ENDBRANCH  24  25
ENDBRANCH  23  24
ENDBRANCH  21  23
ENDBRANCH  18  19
ENDBRANCH  15  18
ENDBRANCH  14  15
ENDBRANCH  13  14
ENDBRANCH  12  13
ENDBRANCH   9  12
ENDBRANCH   5   6
ENDBRANCH   4   5
TORSDOF 18
ENDMDL
MODEL 2
REMARK VINA RESULT: -7.440645672      1.537      1.787
REMARK  18 active torsions:
REMARK  status: ('A' for Active; 'I' for Inactive)
REMARK    1  A    between atoms: C4_4  and  C5_5 
REMARK    2  A    between atoms: C5_5  and  N1_6 
REMARK       I    between atoms: N1_6  and  C6_8 
REMARK       I    between atoms: C6_8  and  N2_10 
REMARK    3  A    between atoms: N2_10  and  C7_12 
REMARK    4  A    between atoms: C7_12  and  C8_13 
REMARK    5  A    between atoms: C8_13  and  C9_14 
REMARK    6  A    between atoms: C9_14  and  N3_15 
REMARK    7  A    between atoms: N3_15  and  C12_18 
REMARK    8  A    between atoms: C12_18  and  C13_19 
REMARK       I    between atoms: C13_19  and  N4_21 
REMARK    9  A    between atoms: N4_21  and  C14_23 
REMARK   10  A    between atoms: C14_23  and  C15_24 
REMARK   11  A    between atoms: C15_24  and  C16_25 
REMARK   12  A    between atoms: C16_25  and  C17_26 
REMARK   13  A    between atoms: C17_26  and  C18_27 
REMARK   14  A    between atoms: C18_27  and  N5_28 
REMARK   15  A    between atoms: N5_28  and  C19_31 
REMARK   16  A    between atoms: C19_31  and  C20_32 
REMARK   17  A    between atoms: C20_32  and  C21_33 
REMARK   18  A    between atoms: C21_33  and  N6_34 
REMARK       I    between atoms: N6_34  and  C22_36 
REMARK       I    between atoms: C22_36  and  N7_38 
ROOT
HETATM    1  C1  UNL     1     -42.817  17.531 -12.163  1.00  0.00     0.113 C 
HETATM    2  C2  UNL     1     -42.947  18.648 -12.638  1.00  0.00    -0.098 C 
HETATM    3  C3  UNL     1     -43.089  19.954 -13.166  1.00  0.00    -0.027 C 
HETATM    4  C4  UNL     1     -43.202  21.081 -13.595  1.00  0.00    -0.074 C 
ENDROOT
BRANCH   4   5
HETATM    5  C5  UNL     1     -43.327  22.460 -14.090  1.00  0.00     0.219 C 
BRANCH   5   6
HETATM    6  N1  UNL     1     -42.076  23.163 -14.085  1.00  0.00    -0.332 N 
HETATM    7  C6  UNL     1     -41.854  24.215 -14.998  1.00  0.00     0.320 C 
HETATM    8  O1  UNL     1     -42.747  24.548 -15.818  1.00  0.00    -0.247 OA
HETATM    9  N2  UNL     1     -40.625  24.943 -15.034  1.00  0.00    -0.323 N 
ATOM     10  H2  UNL     1     -39.886  24.684 -14.381  1.00  0.00     0.169 HD
ATOM     11  H1  UNL     1     -41.346  22.902 -13.421  1.00  0.00     0.165 HD
BRANCH   9  12
HETATM   12  C7  UNL     1     -40.389  25.993 -15.924  1.00  0.00     0.067 C 
BRANCH  12  13
HETATM   13  C8  UNL     1     -40.582  27.414 -15.564  1.00  0.00     0.072 C 
BRANCH  13  14
HETATM   14  C9  UNL     1     -41.913  28.009 -15.491  1.00  0.00     0.242 C 
BRANCH  14  15
HETATM   15  N3  UNL     1     -42.608  28.635 -16.516  1.00  0.00    -0.066 N 
HETATM   16  C10 UNL     1     -43.586  27.731 -17.157  1.00  0.00     0.272 C 
HETATM   17  C11 UNL     1     -43.275  29.859 -16.186  1.00  0.00     0.272 C 
BRANCH  15  18
HETATM   18  C12 UNL     1     -41.629  28.989 -17.558  1.00  0.00     0.338 C 
BRANCH  18  19
HETATM   19  C13 UNL     1     -42.040  30.015 -18.505  1.00  0.00     0.243 C 
HETATM   20  O2  UNL     1     -41.698  31.208 -18.433  1.00  0.00    -0.272 OA
HETATM   21  N4  UNL     1     -42.899  29.603 -19.585  1.00  0.00    -0.360 N 
ATOM     22  H4  UNL     1     -43.177  28.626 -19.663  1.00  0.00     0.162 HD
BRANCH  21  23
HETATM   23  C14 UNL     1     -43.366  30.550 -20.550  1.00  0.00     0.122 C 
BRANCH  23  24
HETATM   24  C15 UNL     1     -43.345  29.968 -21.916  1.00  0.00     0.020 C 
BRANCH  24  25
HETATM   25  C16 UNL     1     -43.183  31.019 -23.024  1.00  0.00     0.003 C 
BRANCH  25  26
HETATM   26  C17 UNL     1     -44.496  31.636 -23.358  1.00  0.00     0.027 C 
BRANCH  26  27
HETATM   27  C18 UNL     1     -45.569  30.597 -23.548  1.00  0.00     0.232 C 
BRANCH  27  28
HETATM   28  N5  UNL     1     -45.677  30.265 -24.936  1.00  0.00    -0.075 N 
ATOM     29  H52 UNL     1     -46.435  30.791 -25.370  1.00  0.00     0.277 HD
ATOM     30  H51 UNL     1     -44.884  30.641 -25.455  1.00  0.00     0.277 HD
BRANCH  28  31
HETATM   31  C19 UNL     1     -45.829  28.845 -25.204  1.00  0.00     0.234 C 
BRANCH  31  32
HETATM   32  C20 UNL     1     -44.456  28.199 -25.116  1.00  0.00     0.047 C 
BRANCH  32  33
HETATM   33  C21 UNL     1     -43.887  28.116 -26.512  1.00  0.00     0.126 C 
BRANCH  33  34
HETATM   34  N6  UNL     1     -42.796  29.029 -26.720  1.00  0.00    -0.343 N 
HETATM   35  C22 UNL     1     -42.967  30.337 -27.222  1.00  0.00     0.315 C 
HETATM   36  O3  UNL     1     -44.088  30.796 -27.511  1.00  0.00    -0.247 OA
HETATM   37  N7  UNL     1     -41.845  31.197 -27.424  1.00  0.00    -0.347 N 
HETATM   38  C23 UNL     1     -42.011  32.540 -27.948  1.00  0.00     0.151 C 
ATOM     39  H7  UNL     1     -40.909  30.861 -27.195  1.00  0.00     0.163 HD
ATOM     40  H6  UNL     1     -41.852  28.716 -26.494  1.00  0.00     0.164 HD
ENDBRANCH  33  34
ENDBRANCH  32  33
ENDBRANCH  31  32
ENDBRANCH  28  31
ENDBRANCH  27  28
ENDBRANCH  26  27
ENDBRANCH  25  26
ENDBRANCH  24  25
ENDBRANCH  23  24
ENDBRANCH  21  23
ENDBRANCH  18  19
ENDBRANCH  15  18
ENDBRANCH  14  15
ENDBRANCH  13  14
ENDBRANCH  12  13
ENDBRANCH   9  12
ENDBRANCH   5   6
ENDBRANCH   4   5
TORSDOF 18
ENDMDL
MODEL 3
REMARK VINA RESULT: -7.205732661      5.090     11.573
REMARK  18 active torsions:
REMARK  status: ('A' for Active; 'I' for Inactive)
REMARK    1  A    between atoms: C4_4  and  C5_5 
REMARK    2  A    between atoms: C5_5  and  N1_6 
REMARK       I    between atoms: N1_6  and  C6_8 
REMARK       I    between atoms: C6_8  and  N2_10 
REMARK    3  A    between atoms: N2_10  and  C7_12 
REMARK    4  A    between atoms: C7_12  and  C8_13 
REMARK    5  A    between atoms: C8_13  and  C9_14 
REMARK    6  A    between atoms: C9_14  and  N3_15 
REMARK    7  A    between atoms: N3_15  and  C12_18 
REMARK    8  A    between atoms: C12_18  and  C13_19 
REMARK       I    between atoms: C13_19  and  N4_21 
REMARK    9  A    between atoms: N4_21  and  C14_23 
REMARK   10  A    between atoms: C14_23  and  C15_24 
REMARK   11  A    between atoms: C15_24  and  C16_25 
REMARK   12  A    between atoms: C16_25  and  C17_26 
REMARK   13  A    between atoms: C17_26  and  C18_27 
REMARK   14  A    between atoms: C18_27  and  N5_28 
REMARK   15  A    between atoms: N5_28  and  C19_31 
REMARK   16  A    between atoms: C19_31  and  C20_32 
REMARK   17  A    between atoms: C20_32  and  C21_33 
REMARK   18  A    between atoms: C21_33  and  N6_34 
REMARK       I    between atoms: N6_34  and  C22_36 
REMARK       I    between atoms: C22_36  and  N7_38 
ROOT
HETATM    1  C1  UNL     1     -40.191  29.287 -18.407  1.00  0.00     0.113 C 
HETATM    2  C2  UNL     1     -41.221  29.943 -18.429  1.00  0.00    -0.098 C 
HETATM    3  C3  UNL     1     -42.412  30.706 -18.479  1.00  0.00    -0.027 C 
HETATM    4  C4  UNL     1     -43.429  31.360 -18.549  1.00  0.00    -0.074 C 
ENDROOT
BRANCH   4   5
HETATM    5  C5  UNL     1     -44.662  32.154 -18.664  1.00  0.00     0.219 C 
BRANCH   5   6
HETATM    6  N1  UNL     1     -44.765  33.161 -17.646  1.00  0.00    -0.332 N 
HETATM    7  C6  UNL     1     -45.803  33.096 -16.692  1.00  0.00     0.320 C 
HETATM    8  O1  UNL     1     -46.640  32.159 -16.723  1.00  0.00    -0.247 OA
HETATM    9  N2  UNL     1     -45.950  34.075 -15.662  1.00  0.00    -0.323 N 
ATOM     10  H2  UNL     1     -45.284  34.846 -15.624  1.00  0.00     0.169 HD
ATOM     11  H1  UNL     1     -44.088  33.923 -17.612  1.00  0.00     0.165 HD
BRANCH   9  12
HETATM   12  C7  UNL     1     -46.965  34.024 -14.703  1.00  0.00     0.067 C 
BRANCH  12  13
HETATM   13  C8  UNL     1     -46.699  33.965 -13.250  1.00  0.00     0.072 C 
BRANCH  13  14
HETATM   14  C9  UNL     1     -45.354  33.743 -12.728  1.00  0.00     0.242 C 
BRANCH  14  15
HETATM   15  N3  UNL     1     -45.008  33.099 -11.549  1.00  0.00    -0.066 N 
HETATM   16  C10 UNL     1     -44.295  33.995 -10.615  1.00  0.00     0.272 C 
HETATM   17  C11 UNL     1     -46.070  32.456 -10.833  1.00  0.00     0.272 C 
BRANCH  15  18
HETATM   18  C12 UNL     1     -44.061  32.026 -11.896  1.00  0.00     0.338 C 
BRANCH  18  19
HETATM   19  C13 UNL     1     -44.524  31.048 -12.869  1.00  0.00     0.243 C 
HETATM   20  O2  UNL     1     -45.470  30.264 -12.673  1.00  0.00    -0.272 OA
HETATM   21  N4  UNL     1     -43.832  30.999 -14.131  1.00  0.00    -0.360 N 
ATOM     22  H4  UNL     1     -43.063  31.644 -14.309  1.00  0.00     0.162 HD
BRANCH  21  23
HETATM   23  C14 UNL     1     -44.209  30.056 -15.137  1.00  0.00     0.122 C 
BRANCH  23  24
HETATM   24  C15 UNL     1     -43.104  29.103 -15.412  1.00  0.00     0.020 C 
BRANCH  24  25
HETATM   25  C16 UNL     1     -43.548  27.865 -16.203  1.00  0.00     0.003 C 
BRANCH  25  26
HETATM   26  C17 UNL     1     -42.377  27.009 -16.539  1.00  0.00     0.027 C 
BRANCH  26  27
HETATM   27  C18 UNL     1     -42.035  26.066 -15.415  1.00  0.00     0.232 C 
BRANCH  27  28
HETATM   28  N5  UNL     1     -42.937  24.955 -15.428  1.00  0.00    -0.075 N 
ATOM     29  H52 UNL     1     -43.819  25.207 -14.982  1.00  0.00     0.277 HD
ATOM     30  H51 UNL     1     -43.266  24.774 -16.376  1.00  0.00     0.277 HD
BRANCH  28  31
HETATM   31  C19 UNL     1     -42.402  23.740 -14.838  1.00  0.00     0.234 C 
BRANCH  31  32
HETATM   32  C20 UNL     1     -41.250  24.127 -13.925  1.00  0.00     0.047 C 
BRANCH  32  33
HETATM   33  C21 UNL     1     -40.408  22.897 -13.687  1.00  0.00     0.126 C 
BRANCH  33  34
HETATM   34  N6  UNL     1     -40.646  22.303 -12.399  1.00  0.00    -0.343 N 
HETATM   35  C22 UNL     1     -41.494  21.191 -12.204  1.00  0.00     0.315 C 
HETATM   36  O3  UNL     1     -42.090  20.638 -13.147  1.00  0.00    -0.247 OA
HETATM   37  N7  UNL     1     -41.706  20.652 -10.899  1.00  0.00    -0.347 N 
HETATM   38  C23 UNL     1     -42.584  19.514 -10.690  1.00  0.00     0.151 C 
ATOM     39  H7  UNL     1     -41.233  21.073 -10.100  1.00  0.00     0.163 HD
ATOM     40  H6  UNL     1     -40.180  22.705 -11.586  1.00  0.00     0.164 HD
ENDBRANCH  33  34
ENDBRANCH  32  33
ENDBRANCH  31  32
ENDBRANCH  28  31
ENDBRANCH  27  28
ENDBRANCH  26  27
ENDBRANCH  25  26
ENDBRANCH  24  25
ENDBRANCH  23  24
ENDBRANCH  21  23
ENDBRANCH  18  19
ENDBRANCH  15  18
ENDBRANCH  14  15
ENDBRANCH  13  14
ENDBRANCH  12  13
ENDBRANCH   9  12
ENDBRANCH   5   6
ENDBRANCH   4   5
TORSDOF 18
ENDMDL
MODEL 4
REMARK VINA RESULT: -7.191537784      2.523      3.378
REMARK  18 active torsions:
REMARK  status: ('A' for Active; 'I' for Inactive)
REMARK    1  A    between atoms: C4_4  and  C5_5 
REMARK    2  A    between atoms: C5_5  and  N1_6 
REMARK       I    between atoms: N1_6  and  C6_8 
REMARK       I    between atoms: C6_8  and  N2_10 
REMARK    3  A    between atoms: N2_10  and  C7_12 
REMARK    4  A    between atoms: C7_12  and  C8_13 
REMARK    5  A    between atoms: C8_13  and  C9_14 
REMARK    6  A    between atoms: C9_14  and  N3_15 
REMARK    7  A    between atoms: N3_15  and  C12_18 
REMARK    8  A    between atoms: C12_18  and  C13_19 
REMARK       I    between atoms: C13_19  and  N4_21 
REMARK    9  A    between atoms: N4_21  and  C14_23 
REMARK   10  A    between atoms: C14_23  and  C15_24 
REMARK   11  A    between atoms: C15_24  and  C16_25 
REMARK   12  A    between atoms: C16_25  and  C17_26 
REMARK   13  A    between atoms: C17_26  and  C18_27 
REMARK   14  A    between atoms: C18_27  and  N5_28 
REMARK   15  A    between atoms: N5_28  and  C19_31 
REMARK   16  A    between atoms: C19_31  and  C20_32 
REMARK   17  A    between atoms: C20_32  and  C21_33 
REMARK   18  A    between atoms: C21_33  and  N6_34 
REMARK       I    between atoms: N6_34  and  C22_36 
REMARK       I    between atoms: C22_36  and  N7_38 
ROOT
HETATM    1  C1  UNL     1     -48.047  22.291 -11.277  1.00  0.00     0.113 C 
HETATM    2  C2  UNL     1     -47.001  22.171 -11.896  1.00  0.00    -0.098 C 
HETATM    3  C3  UNL     1     -45.794  22.054 -12.626  1.00  0.00    -0.027 C 
HETATM    4  C4  UNL     1     -44.767  21.977 -13.263  1.00  0.00    -0.074 C 
ENDROOT
BRANCH   4   5
HETATM    5  C5  UNL     1     -43.526  21.909 -14.050  1.00  0.00     0.219 C 
BRANCH   5   6
HETATM    6  N1  UNL     1     -43.393  23.007 -14.965  1.00  0.00    -0.332 N 
HETATM    7  C6  UNL     1     -42.414  23.998 -14.740  1.00  0.00     0.320 C 
HETATM    8  O1  UNL     1     -41.650  23.927 -13.745  1.00  0.00    -0.247 OA
HETATM    9  N2  UNL     1     -42.245  25.111 -15.620  1.00  0.00    -0.323 N 
ATOM     10  H2  UNL     1     -42.859  25.190 -16.430  1.00  0.00     0.169 HD
ATOM     11  H1  UNL     1     -44.007  23.072 -15.777  1.00  0.00     0.165 HD
BRANCH   9  12
HETATM   12  C7  UNL     1     -41.276  26.098 -15.421  1.00  0.00     0.067 C 
BRANCH  12  13
HETATM   13  C8  UNL     1     -41.505  27.526 -15.728  1.00  0.00     0.072 C 
BRANCH  13  14
HETATM   14  C9  UNL     1     -42.123  27.948 -16.980  1.00  0.00     0.242 C 
BRANCH  14  15
HETATM   15  N3  UNL     1     -43.026  28.985 -17.161  1.00  0.00    -0.066 N 
HETATM   16  C10 UNL     1     -43.954  29.121 -16.019  1.00  0.00     0.272 C 
HETATM   17  C11 UNL     1     -42.474  30.276 -17.449  1.00  0.00     0.272 C 
BRANCH  15  18
HETATM   18  C12 UNL     1     -43.858  28.645 -18.329  1.00  0.00     0.338 C 
BRANCH  18  19
HETATM   19  C13 UNL     1     -43.373  29.107 -19.621  1.00  0.00     0.243 C 
HETATM   20  O2  UNL     1     -42.457  28.559 -20.258  1.00  0.00    -0.272 OA
HETATM   21  N4  UNL     1     -44.005  30.275 -20.179  1.00  0.00    -0.360 N 
ATOM     22  H4  UNL     1     -44.765  30.727 -19.672  1.00  0.00     0.162 HD
BRANCH  21  23
HETATM   23  C14 UNL     1     -43.578  30.809 -21.435  1.00  0.00     0.122 C 
BRANCH  23  24
HETATM   24  C15 UNL     1     -44.062  29.969 -22.560  1.00  0.00     0.020 C 
BRANCH  24  25
HETATM   25  C16 UNL     1     -45.254  30.580 -23.308  1.00  0.00     0.003 C 
BRANCH  25  26
HETATM   26  C17 UNL     1     -44.824  31.760 -24.109  1.00  0.00     0.027 C 
BRANCH  26  27
HETATM   27  C18 UNL     1     -43.569  31.475 -24.891  1.00  0.00     0.232 C 
BRANCH  27  28
HETATM   28  N5  UNL     1     -43.898  30.747 -26.080  1.00  0.00    -0.075 N 
ATOM     29  H52 UNL     1     -44.780  30.249 -25.959  1.00  0.00     0.277 HD
ATOM     30  H51 UNL     1     -44.161  31.388 -26.828  1.00  0.00     0.277 HD
BRANCH  28  31
HETATM   31  C19 UNL     1     -42.860  29.838 -26.534  1.00  0.00     0.234 C 
BRANCH  31  32
HETATM   32  C20 UNL     1     -43.122  28.476 -25.912  1.00  0.00     0.047 C 
BRANCH  32  33
HETATM   33  C21 UNL     1     -44.142  27.761 -26.765  1.00  0.00     0.126 C 
BRANCH  33  34
HETATM   34  N6  UNL     1     -45.336  27.427 -26.037  1.00  0.00    -0.343 N 
HETATM   35  C22 UNL     1     -46.491  28.239 -26.031  1.00  0.00     0.315 C 
HETATM   36  O3  UNL     1     -46.557  29.305 -26.672  1.00  0.00    -0.247 OA
HETATM   37  N7  UNL     1     -47.645  27.866 -25.277  1.00  0.00    -0.347 N 
HETATM   38  C23 UNL     1     -48.833  28.700 -25.259  1.00  0.00     0.151 C 
ATOM     39  H7  UNL     1     -47.634  26.998 -24.742  1.00  0.00     0.163 HD
ATOM     40  H6  UNL     1     -45.350  26.561 -25.498  1.00  0.00     0.164 HD
ENDBRANCH  33  34
ENDBRANCH  32  33
ENDBRANCH  31  32
ENDBRANCH  28  31
ENDBRANCH  27  28
ENDBRANCH  26  27
ENDBRANCH  25  26
ENDBRANCH  24  25
ENDBRANCH  23  24
ENDBRANCH  21  23
ENDBRANCH  18  19
ENDBRANCH  15  18
ENDBRANCH  14  15
ENDBRANCH  13  14
ENDBRANCH  12  13
ENDBRANCH   9  12
ENDBRANCH   5   6
ENDBRANCH   4   5
TORSDOF 18
ENDMDL
MODEL 5
REMARK VINA RESULT: -7.004160641      2.094      3.347
REMARK  18 active torsions:
REMARK  status: ('A' for Active; 'I' for Inactive)
REMARK    1  A    between atoms: C4_4  and  C5_5 
REMARK    2  A    between atoms: C5_5  and  N1_6 
REMARK       I    between atoms: N1_6  and  C6_8 
REMARK       I    between atoms: C6_8  and  N2_10 
REMARK    3  A    between atoms: N2_10  and  C7_12 
REMARK    4  A    between atoms: C7_12  and  C8_13 
REMARK    5  A    between atoms: C8_13  and  C9_14 
REMARK    6  A    between atoms: C9_14  and  N3_15 
REMARK    7  A    between atoms: N3_15  and  C12_18 
REMARK    8  A    between atoms: C12_18  and  C13_19 
REMARK       I    between atoms: C13_19  and  N4_21 
REMARK    9  A    between atoms: N4_21  and  C14_23 
REMARK   10  A    between atoms: C14_23  and  C15_24 
REMARK   11  A    between atoms: C15_24  and  C16_25 
REMARK   12  A    between atoms: C16_25  and  C17_26 
REMARK   13  A    between atoms: C17_26  and  C18_27 
REMARK   14  A    between atoms: C18_27  and  N5_28 
REMARK   15  A    between atoms: N5_28  and  C19_31 
REMARK   16  A    between atoms: C19_31  and  C20_32 
REMARK   17  A    between atoms: C20_32  and  C21_33 
REMARK   18  A    between atoms: C21_33  and  N6_34 
REMARK       I    between atoms: N6_34  and  C22_36 
REMARK       I    between atoms: C22_36  and  N7_38 
ROOT
HETATM    1  C1  UNL     1     -44.271  18.432 -12.798  1.00  0.00     0.113 C 
HETATM    2  C2  UNL     1     -43.377  19.263 -12.760  1.00  0.00    -0.098 C 
HETATM    3  C3  UNL     1     -42.335  20.221 -12.739  1.00  0.00    -0.027 C 
HETATM    4  C4  UNL     1     -41.438  21.034 -12.748  1.00  0.00    -0.074 C 
ENDROOT
BRANCH   4   5
HETATM    5  C5  UNL     1     -40.344  22.017 -12.787  1.00  0.00     0.219 C 
BRANCH   5   6
HETATM    6  N1  UNL     1     -40.344  22.793 -13.995  1.00  0.00    -0.332 N 
HETATM    7  C6  UNL     1     -41.209  23.900 -14.121  1.00  0.00     0.320 C 
HETATM    8  O1  UNL     1     -41.980  24.219 -13.182  1.00  0.00    -0.247 OA
HETATM    9  N2  UNL     1     -41.248  24.702 -15.304  1.00  0.00    -0.323 N 
ATOM     10  H2  UNL     1     -40.633  24.456 -16.079  1.00  0.00     0.169 HD
ATOM     11  H1  UNL     1     -39.719  22.544 -14.762  1.00  0.00     0.165 HD
BRANCH   9  12
HETATM   12  C7  UNL     1     -42.090  25.808 -15.446  1.00  0.00     0.067 C 
BRANCH  12  13
HETATM   13  C8  UNL     1     -41.617  27.126 -15.920  1.00  0.00     0.072 C 
BRANCH  13  14
HETATM   14  C9  UNL     1     -42.249  27.803 -17.048  1.00  0.00     0.242 C 
BRANCH  14  15
HETATM   15  N3  UNL     1     -42.966  28.990 -17.018  1.00  0.00    -0.066 N 
HETATM   16  C10 UNL     1     -43.718  29.154 -15.756  1.00  0.00     0.272 C 
HETATM   17  C11 UNL     1     -42.226  30.194 -17.260  1.00  0.00     0.272 C 
BRANCH  15  18
HETATM   18  C12 UNL     1     -43.971  28.924 -18.093  1.00  0.00     0.338 C 
BRANCH  18  19
HETATM   19  C13 UNL     1     -43.509  29.268 -19.428  1.00  0.00     0.243 C 
HETATM   20  O2  UNL     1     -42.781  28.537 -20.124  1.00  0.00    -0.272 OA
HETATM   21  N4  UNL     1     -43.928  30.538 -19.961  1.00  0.00    -0.360 N 
ATOM     22  H4  UNL     1     -44.534  31.142 -19.407  1.00  0.00     0.162 HD
BRANCH  21  23
HETATM   23  C14 UNL     1     -43.503  30.964 -21.259  1.00  0.00     0.122 C 
BRANCH  23  24
HETATM   24  C15 UNL     1     -44.521  30.627 -22.286  1.00  0.00     0.020 C 
BRANCH  24  25
HETATM   25  C16 UNL     1     -44.086  29.496 -23.228  1.00  0.00     0.003 C 
BRANCH  25  26
HETATM   26  C17 UNL     1     -42.621  29.562 -23.487  1.00  0.00     0.027 C 
BRANCH  26  27
HETATM   27  C18 UNL     1     -42.297  29.288 -24.932  1.00  0.00     0.232 C 
BRANCH  27  28
HETATM   28  N5  UNL     1     -43.382  28.582 -25.543  1.00  0.00    -0.075 N 
ATOM     29  H52 UNL     1     -43.401  27.613 -25.226  1.00  0.00     0.277 HD
ATOM     30  H51 UNL     1     -44.273  28.906 -25.167  1.00  0.00     0.277 HD
BRANCH  28  31
HETATM   31  C19 UNL     1     -43.395  28.640 -26.995  1.00  0.00     0.234 C 
BRANCH  31  32
HETATM   32  C20 UNL     1     -44.776  28.221 -27.471  1.00  0.00     0.047 C 
BRANCH  32  33
HETATM   33  C21 UNL     1     -45.796  28.813 -26.528  1.00  0.00     0.126 C 
BRANCH  33  34
HETATM   34  N6  UNL     1     -47.031  28.076 -26.514  1.00  0.00    -0.343 N 
HETATM   35  C22 UNL     1     -47.964  28.151 -25.458  1.00  0.00     0.315 C 
HETATM   36  O3  UNL     1     -47.783  28.877 -24.462  1.00  0.00    -0.247 OA
HETATM   37  N7  UNL     1     -49.169  27.385 -25.489  1.00  0.00    -0.347 N 
HETATM   38  C23 UNL     1     -50.130  27.450 -24.403  1.00  0.00     0.151 C 
ATOM     39  H7  UNL     1     -49.357  26.781 -26.289  1.00  0.00     0.163 HD
ATOM     40  H6  UNL     1     -47.242  27.469 -27.306  1.00  0.00     0.164 HD
ENDBRANCH  33  34
ENDBRANCH  32  33
ENDBRANCH  31  32
ENDBRANCH  28  31
ENDBRANCH  27  28
ENDBRANCH  26  27
ENDBRANCH  25  26
ENDBRANCH  24  25
ENDBRANCH  23  24
ENDBRANCH  21  23
ENDBRANCH  18  19
ENDBRANCH  15  18
ENDBRANCH  14  15
ENDBRANCH  13  14
ENDBRANCH  12  13
ENDBRANCH   9  12
ENDBRANCH   5   6
ENDBRANCH   4   5
TORSDOF 18
ENDMDL
