MODEL 1
REMARK VINA RESULT: -7.113180480      0.000      0.000
REMARK  17 active torsions:
REMARK  status: ('A' for Active; 'I' for Inactive)
REMARK    1  A    between atoms: C2_2  and  C3_3 
REMARK    2  A    between atoms: C3_3  and  C4_4 
REMARK    3  A    between atoms: C4_4  and  N1_5 
REMARK    4  A    between atoms: N1_5  and  C5_7 
REMARK    5  A    between atoms: C5_7  and  C6_8 
REMARK    6  A    between atoms: C6_8  and  C7_9 
REMARK    7  A    between atoms: C7_9  and  N2_10 
REMARK       I    between atoms: N2_10  and  C8_12 
REMARK       I    between atoms: C8_12  and  N3_14 
REMARK    8  A    between atoms: N3_14  and  C9_16 
REMARK    9  A    between atoms: C10_17  and  N4_18 
REMARK       I    between atoms: N4_18  and  C11_20 
REMARK   10  A    between atoms: C11_20  and  C12_22 
REMARK   11  A    between atoms: C12_22  and  N5_23 
REMARK   12  A    between atoms: N5_23  and  C13_24 
REMARK   13  A    between atoms: C13_24  and  C14_25 
REMARK   14  A    between atoms: C14_25  and  C15_26 
REMARK   15  A    between atoms: C15_26  and  N6_27 
REMARK   16  A    between atoms: N6_27  and  C16_29 
REMARK   17  A    between atoms: N8_37  and  C22_39 
ROOT
HETATM    1  C9  UNL     1     -43.671  30.074 -21.209  1.00  0.00     0.315 C 
HETATM    2  C10 UNL     1     -43.447  30.389 -22.654  1.00  0.00     0.136 C 
HETATM    3  C19 UNL     1     -43.920  31.841 -22.740  1.00  0.00     0.057 C 
HETATM    4  C20 UNL     1     -45.124  31.780 -21.792  1.00  0.00     0.242 C 
HETATM    5  N8  UNL     1     -44.618  31.049 -20.670  1.00  0.00    -0.048 N 
HETATM    6  C21 UNL     1     -43.956  31.998 -19.780  1.00  0.00     0.275 C 
ENDROOT
BRANCH   2   7
HETATM    7  N4  UNL     1     -44.340  29.633 -23.504  1.00  0.00    -0.351 N 
HETATM    8  C11 UNL     1     -43.852  28.930 -24.631  1.00  0.00     0.244 C 
HETATM    9  O2  UNL     1     -42.628  28.981 -24.881  1.00  0.00    -0.272 OA
ATOM     10  H4  UNL     1     -45.336  29.606 -23.287  1.00  0.00     0.163 HD
BRANCH   8  11
HETATM   11  C12 UNL     1     -44.743  28.158 -25.498  1.00  0.00     0.339 C 
BRANCH  11  12
HETATM   12  N5  UNL     1     -44.961  28.822 -26.790  1.00  0.00    -0.056 N 
HETATM   13  C17 UNL     1     -46.284  29.248 -27.132  1.00  0.00     0.266 A 
HETATM   14  C18 UNL     1     -45.275  30.242 -26.772  1.00  0.00     0.266 A 
BRANCH  12  15
HETATM   15  C13 UNL     1     -44.054  28.358 -27.808  1.00  0.00     0.239 C 
BRANCH  15  16
HETATM   16  C14 UNL     1     -44.166  29.125 -29.105  1.00  0.00     0.047 C 
BRANCH  16  17
HETATM   17  C15 UNL     1     -42.838  29.702 -29.529  1.00  0.00     0.122 C 
BRANCH  17  18
HETATM   18  N6  UNL     1     -42.712  31.094 -29.232  1.00  0.00    -0.386 N 
ATOM     19  H6  UNL     1     -43.166  31.765 -29.852  1.00  0.00     0.160 HD
BRANCH  18  20
HETATM   20  C16 UNL     1     -41.987  31.590 -28.114  1.00  0.00     0.168 C 
HETATM   21  N7  UNL     1     -41.646  30.820 -27.121  1.00  0.00    -0.396 N 
ATOM     22  H72 UNL     1     -41.915  29.836 -27.162  1.00  0.00     0.156 HD
ATOM     23  H71 UNL     1     -41.126  31.175 -26.319  1.00  0.00     0.156 HD
ENDBRANCH  18  20
ENDBRANCH  17  18
ENDBRANCH  16  17
ENDBRANCH  15  16
ENDBRANCH  12  15
ENDBRANCH  11  12
ENDBRANCH   8  11
ENDBRANCH   2   7
BRANCH   1  24
HETATM   24  N3  UNL     1     -42.441  30.111 -20.416  1.00  0.00    -0.313 N 
HETATM   25  C8  UNL     1     -42.181  29.061 -19.457  1.00  0.00     0.317 C 
HETATM   26  N2  UNL     1     -41.011  29.077 -18.681  1.00  0.00    -0.343 N 
HETATM   27  O1  UNL     1     -43.040  28.129 -19.337  1.00  0.00    -0.247 OA
ATOM     28  H2  UNL     1     -40.344  29.840 -18.805  1.00  0.00     0.164 HD
ATOM     29  H3  UNL     1     -41.773  30.871 -20.538  1.00  0.00     0.166 HD
BRANCH  26  30
HETATM   30  C7  UNL     1     -40.718  28.025 -17.692  1.00  0.00     0.129 C 
BRANCH  30  31
HETATM   31  C6  UNL     1     -41.141  28.393 -16.314  1.00  0.00     0.064 C 
BRANCH  31  32
HETATM   32  C5  UNL     1     -42.101  27.520 -15.604  1.00  0.00     0.057 C 
BRANCH  32  33
HETATM   33  N1  UNL     1     -42.332  26.220 -16.030  1.00  0.00    -0.402 N 
ATOM     34  H1  UNL     1     -42.786  26.082 -16.933  1.00  0.00     0.158 HD
BRANCH  33  35
HETATM   35  C4  UNL     1     -41.976  25.089 -15.288  1.00  0.00     0.118 C 
BRANCH  35  36
HETATM   36  C3  UNL     1     -40.453  25.056 -15.054  1.00  0.00     0.019 C 
BRANCH  36  37
HETATM   37  C2  UNL     1     -40.135  24.093 -13.959  1.00  0.00    -0.003 C 
HETATM   38  C1  UNL     1     -41.376  23.811 -13.152  1.00  0.00     0.005 C 
ENDBRANCH  36  37
ENDBRANCH  35  36
ENDBRANCH  33  35
ENDBRANCH  32  33
ENDBRANCH  31  32
ENDBRANCH  30  31
ENDBRANCH  26  30
ENDBRANCH   1  24
BRANCH   5  39
HETATM   39  C22 UNL     1     -45.601  30.358 -19.892  1.00  0.00     0.235 C 
HETATM   40  C23 UNL     1     -45.518  30.553 -18.419  1.00  0.00     0.035 C 
ENDBRANCH   5  39
TORSDOF 17
ENDMDL
MODEL 2
REMARK VINA RESULT: -6.980663308      2.167     10.161
REMARK  17 active torsions:
REMARK  status: ('A' for Active; 'I' for Inactive)
REMARK    1  A    between atoms: C2_2  and  C3_3 
REMARK    2  A    between atoms: C3_3  and  C4_4 
REMARK    3  A    between atoms: C4_4  and  N1_5 
REMARK    4  A    between atoms: N1_5  and  C5_7 
REMARK    5  A    between atoms: C5_7  and  C6_8 
REMARK    6  A    between atoms: C6_8  and  C7_9 
REMARK    7  A    between atoms: C7_9  and  N2_10 
REMARK       I    between atoms: N2_10  and  C8_12 
REMARK       I    between atoms: C8_12  and  N3_14 
REMARK    8  A    between atoms: N3_14  and  C9_16 
REMARK    9  A    between atoms: C10_17  and  N4_18 
REMARK       I    between atoms: N4_18  and  C11_20 
REMARK   10  A    between atoms: C11_20  and  C12_22 
REMARK   11  A    between atoms: C12_22  and  N5_23 
REMARK   12  A    between atoms: N5_23  and  C13_24 
REMARK   13  A    between atoms: C13_24  and  C14_25 
REMARK   14  A    between atoms: C14_25  and  C15_26 
REMARK   15  A    between atoms: C15_26  and  N6_27 
REMARK   16  A    between atoms: N6_27  and  C16_29 
REMARK   17  A    between atoms: N8_37  and  C22_39 
ROOT
HETATM    1  C9  UNL     1     -45.396  31.524 -19.494  1.00  0.00     0.315 C 
HETATM    2  C10 UNL     1     -45.939  30.146 -19.291  1.00  0.00     0.136 C 
HETATM    3  C19 UNL     1     -47.355  30.433 -18.792  1.00  0.00     0.057 C 
HETATM    4  C20 UNL     1     -47.079  31.657 -17.911  1.00  0.00     0.242 C 
HETATM    5  N8  UNL     1     -46.218  32.458 -18.727  1.00  0.00    -0.048 N 
HETATM    6  C21 UNL     1     -47.060  33.269 -19.602  1.00  0.00     0.275 C 
ENDROOT
BRANCH   2   7
HETATM    7  N4  UNL     1     -45.268  29.469 -18.204  1.00  0.00    -0.351 N 
HETATM    8  C11 UNL     1     -44.285  28.482 -18.456  1.00  0.00     0.244 C 
HETATM    9  O2  UNL     1     -44.011  28.203 -19.643  1.00  0.00    -0.272 OA
ATOM     10  H4  UNL     1     -45.507  29.706 -17.240  1.00  0.00     0.163 HD
BRANCH   8  11
HETATM   11  C12 UNL     1     -43.596  27.791 -17.365  1.00  0.00     0.339 C 
BRANCH  11  12
HETATM   12  N5  UNL     1     -42.351  28.473 -16.985  1.00  0.00    -0.056 N 
HETATM   13  C17 UNL     1     -42.192  29.855 -17.320  1.00  0.00     0.266 A 
HETATM   14  C18 UNL     1     -42.427  29.471 -15.930  1.00  0.00     0.266 A 
BRANCH  12  15
HETATM   15  C13 UNL     1     -41.217  27.585 -16.977  1.00  0.00     0.239 C 
BRANCH  15  16
HETATM   16  C14 UNL     1     -40.876  27.062 -15.600  1.00  0.00     0.047 C 
BRANCH  16  17
HETATM   17  C15 UNL     1     -40.953  25.556 -15.540  1.00  0.00     0.122 C 
BRANCH  17  18
HETATM   18  N6  UNL     1     -42.205  25.079 -15.041  1.00  0.00    -0.386 N 
ATOM     19  H6  UNL     1     -42.942  25.759 -14.852  1.00  0.00     0.160 HD
BRANCH  18  20
HETATM   20  C16 UNL     1     -42.473  23.705 -14.795  1.00  0.00     0.168 C 
HETATM   21  N7  UNL     1     -43.615  23.163 -15.107  1.00  0.00    -0.396 N 
ATOM     22  H72 UNL     1     -44.326  23.754 -15.539  1.00  0.00     0.156 HD
ATOM     23  H71 UNL     1     -43.808  22.177 -14.930  1.00  0.00     0.156 HD
ENDBRANCH  18  20
ENDBRANCH  17  18
ENDBRANCH  16  17
ENDBRANCH  15  16
ENDBRANCH  12  15
ENDBRANCH  11  12
ENDBRANCH   8  11
ENDBRANCH   2   7
BRANCH   1  24
HETATM   24  N3  UNL     1     -45.386  31.936 -20.899  1.00  0.00    -0.313 N 
HETATM   25  C8  UNL     1     -44.286  31.540 -21.749  1.00  0.00     0.317 C 
HETATM   26  N2  UNL     1     -44.251  31.928 -23.099  1.00  0.00    -0.343 N 
HETATM   27  O1  UNL     1     -43.354  30.837 -21.240  1.00  0.00    -0.247 OA
ATOM     28  H2  UNL     1     -45.015  32.491 -23.473  1.00  0.00     0.164 HD
ATOM     29  H3  UNL     1     -46.149  32.498 -21.275  1.00  0.00     0.166 HD
BRANCH  26  30
HETATM   30  C7  UNL     1     -43.142  31.545 -23.990  1.00  0.00     0.129 C 
BRANCH  30  31
HETATM   31  C6  UNL     1     -43.453  30.349 -24.818  1.00  0.00     0.064 C 
BRANCH  31  32
HETATM   32  C5  UNL     1     -42.433  29.850 -25.766  1.00  0.00     0.057 C 
BRANCH  32  33
HETATM   33  N1  UNL     1     -42.385  30.319 -27.071  1.00  0.00    -0.402 N 
ATOM     34  H1  UNL     1     -42.737  29.715 -27.814  1.00  0.00     0.158 HD
BRANCH  33  35
HETATM   35  C4  UNL     1     -41.879  31.575 -27.423  1.00  0.00     0.118 C 
BRANCH  35  36
HETATM   36  C3  UNL     1     -43.016  32.499 -27.900  1.00  0.00     0.019 C 
BRANCH  36  37
HETATM   37  C2  UNL     1     -42.650  33.108 -29.213  1.00  0.00    -0.003 C 
HETATM   38  C1  UNL     1     -41.156  33.287 -29.292  1.00  0.00     0.005 C 
ENDBRANCH  36  37
ENDBRANCH  35  36
ENDBRANCH  33  35
ENDBRANCH  32  33
ENDBRANCH  31  32
ENDBRANCH  30  31
ENDBRANCH  26  30
ENDBRANCH   1  24
BRANCH   5  39
HETATM   39  C22 UNL     1     -45.358  33.357 -18.019  1.00  0.00     0.235 C 
HETATM   40  C23 UNL     1     -45.968  34.651 -17.608  1.00  0.00     0.035 C 
ENDBRANCH   5  39
TORSDOF 17
ENDMDL
MODEL 3
REMARK VINA RESULT: -6.850776069      1.130      1.644
REMARK  17 active torsions:
REMARK  status: ('A' for Active; 'I' for Inactive)
REMARK    1  A    between atoms: C2_2  and  C3_3 
REMARK    2  A    between atoms: C3_3  and  C4_4 
REMARK    3  A    between atoms: C4_4  and  N1_5 
REMARK    4  A    between atoms: N1_5  and  C5_7 
REMARK    5  A    between atoms: C5_7  and  C6_8 
REMARK    6  A    between atoms: C6_8  and  C7_9 
REMARK    7  A    between atoms: C7_9  and  N2_10 
REMARK       I    between atoms: N2_10  and  C8_12 
REMARK       I    between atoms: C8_12  and  N3_14 
REMARK    8  A    between atoms: N3_14  and  C9_16 
REMARK    9  A    between atoms: C10_17  and  N4_18 
REMARK       I    between atoms: N4_18  and  C11_20 
REMARK   10  A    between atoms: C11_20  and  C12_22 
REMARK   11  A    between atoms: C12_22  and  N5_23 
REMARK   12  A    between atoms: N5_23  and  C13_24 
REMARK   13  A    between atoms: C13_24  and  C14_25 
REMARK   14  A    between atoms: C14_25  and  C15_26 
REMARK   15  A    between atoms: C15_26  and  N6_27 
REMARK   16  A    between atoms: N6_27  and  C16_29 
REMARK   17  A    between atoms: N8_37  and  C22_39 
ROOT
HETATM    1  C9  UNL     1     -44.031  30.412 -20.634  1.00  0.00     0.315 C 
HETATM    2  C10 UNL     1     -43.801  31.037 -21.973  1.00  0.00     0.136 C 
HETATM    3  C19 UNL     1     -44.524  32.376 -21.826  1.00  0.00     0.057 C 
HETATM    4  C20 UNL     1     -45.740  31.928 -21.005  1.00  0.00     0.242 C 
HETATM    5  N8  UNL     1     -45.162  31.088 -20.001  1.00  0.00    -0.048 N 
HETATM    6  C21 UNL     1     -44.725  31.942 -18.901  1.00  0.00     0.275 C 
ENDROOT
BRANCH   2   7
HETATM    7  N4  UNL     1     -44.501  30.323 -23.016  1.00  0.00    -0.351 N 
HETATM    8  C11 UNL     1     -43.919  29.198 -23.647  1.00  0.00     0.244 C 
HETATM    9  O2  UNL     1     -42.779  28.835 -23.284  1.00  0.00    -0.272 OA
ATOM     10  H4  UNL     1     -45.430  30.635 -23.303  1.00  0.00     0.163 HD
BRANCH   8  11
HETATM   11  C12 UNL     1     -44.618  28.464 -24.702  1.00  0.00     0.339 C 
BRANCH  11  12
HETATM   12  N5  UNL     1     -44.058  28.748 -26.031  1.00  0.00    -0.056 N 
HETATM   13  C17 UNL     1     -43.156  27.803 -26.615  1.00  0.00     0.266 A 
HETATM   14  C18 UNL     1     -44.514  27.926 -27.141  1.00  0.00     0.266 A 
BRANCH  12  15
HETATM   15  C13 UNL     1     -43.900  30.159 -26.271  1.00  0.00     0.239 C 
BRANCH  15  16
HETATM   16  C14 UNL     1     -42.455  30.592 -26.365  1.00  0.00     0.047 C 
BRANCH  16  17
HETATM   17  C15 UNL     1     -42.268  31.698 -27.374  1.00  0.00     0.122 C 
BRANCH  17  18
HETATM   18  N6  UNL     1     -41.328  31.368 -28.398  1.00  0.00    -0.386 N 
ATOM     19  H6  UNL     1     -40.338  31.538 -28.221  1.00  0.00     0.160 HD
BRANCH  18  20
HETATM   20  C16 UNL     1     -41.705  30.814 -29.652  1.00  0.00     0.168 C 
HETATM   21  N7  UNL     1     -42.297  29.658 -29.742  1.00  0.00    -0.396 N 
ATOM     22  H72 UNL     1     -42.488  29.148 -28.879  1.00  0.00     0.156 HD
ATOM     23  H71 UNL     1     -42.567  29.261 -30.641  1.00  0.00     0.156 HD
ENDBRANCH  18  20
ENDBRANCH  17  18
ENDBRANCH  16  17
ENDBRANCH  15  16
ENDBRANCH  12  15
ENDBRANCH  11  12
ENDBRANCH   8  11
ENDBRANCH   2   7
BRANCH   1  24
HETATM   24  N3  UNL     1     -42.865  30.499 -19.751  1.00  0.00    -0.313 N 
HETATM   25  C8  UNL     1     -42.322  29.293 -19.168  1.00  0.00     0.317 C 
HETATM   26  N2  UNL     1     -41.209  29.352 -18.314  1.00  0.00    -0.343 N 
HETATM   27  O1  UNL     1     -42.882  28.184 -19.448  1.00  0.00    -0.247 OA
ATOM     28  H2  UNL     1     -40.786  30.258 -18.113  1.00  0.00     0.164 HD
ATOM     29  H3  UNL     1     -42.441  31.404 -19.549  1.00  0.00     0.166 HD
BRANCH  26  30
HETATM   30  C7  UNL     1     -40.634  28.142 -17.700  1.00  0.00     0.129 C 
BRANCH  30  31
HETATM   31  C6  UNL     1     -41.166  27.878 -16.336  1.00  0.00     0.064 C 
BRANCH  31  32
HETATM   32  C5  UNL     1     -42.172  26.809 -16.156  1.00  0.00     0.057 C 
BRANCH  32  33
HETATM   33  N1  UNL     1     -41.847  25.627 -15.506  1.00  0.00    -0.402 N 
ATOM     34  H1  UNL     1     -42.597  24.968 -15.298  1.00  0.00     0.158 HD
BRANCH  33  35
HETATM   35  C4  UNL     1     -40.545  25.291 -15.122  1.00  0.00     0.118 C 
BRANCH  35  36
HETATM   36  C3  UNL     1     -40.462  23.798 -14.748  1.00  0.00     0.019 C 
BRANCH  36  37
HETATM   37  C2  UNL     1     -40.419  23.654 -13.263  1.00  0.00    -0.003 C 
HETATM   38  C1  UNL     1     -40.401  22.193 -12.894  1.00  0.00     0.005 C 
ENDBRANCH  36  37
ENDBRANCH  35  36
ENDBRANCH  33  35
ENDBRANCH  32  33
ENDBRANCH  31  32
ENDBRANCH  30  31
ENDBRANCH  26  30
ENDBRANCH   1  24
BRANCH   5  39
HETATM   39  C22 UNL     1     -46.038  30.102 -19.446  1.00  0.00     0.235 C 
HETATM   40  C23 UNL     1     -47.481  30.465 -19.403  1.00  0.00     0.035 C 
ENDBRANCH   5  39
TORSDOF 17
ENDMDL
MODEL 4
REMARK VINA RESULT: -6.844620835      1.645      2.920
REMARK  17 active torsions:
REMARK  status: ('A' for Active; 'I' for Inactive)
REMARK    1  A    between atoms: C2_2  and  C3_3 
REMARK    2  A    between atoms: C3_3  and  C4_4 
REMARK    3  A    between atoms: C4_4  and  N1_5 
REMARK    4  A    between atoms: N1_5  and  C5_7 
REMARK    5  A    between atoms: C5_7  and  C6_8 
REMARK    6  A    between atoms: C6_8  and  C7_9 
REMARK    7  A    between atoms: C7_9  and  N2_10 
REMARK       I    between atoms: N2_10  and  C8_12 
REMARK       I    between atoms: C8_12  and  N3_14 
REMARK    8  A    between atoms: N3_14  and  C9_16 
REMARK    9  A    between atoms: C10_17  and  N4_18 
REMARK       I    between atoms: N4_18  and  C11_20 
REMARK   10  A    between atoms: C11_20  and  C12_22 
REMARK   11  A    between atoms: C12_22  and  N5_23 
REMARK   12  A    between atoms: N5_23  and  C13_24 
REMARK   13  A    between atoms: C13_24  and  C14_25 
REMARK   14  A    between atoms: C14_25  and  C15_26 
REMARK   15  A    between atoms: C15_26  and  N6_27 
REMARK   16  A    between atoms: N6_27  and  C16_29 
REMARK   17  A    between atoms: N8_37  and  C22_39 
ROOT
HETATM    1  C9  UNL     1     -43.570  29.980 -21.605  1.00  0.00     0.315 C 
HETATM    2  C10 UNL     1     -42.921  30.240 -22.927  1.00  0.00     0.136 C 
HETATM    3  C19 UNL     1     -43.199  31.730 -23.129  1.00  0.00     0.057 C 
HETATM    4  C20 UNL     1     -44.619  31.811 -22.556  1.00  0.00     0.242 C 
HETATM    5  N8  UNL     1     -44.524  31.056 -21.343  1.00  0.00    -0.048 N 
HETATM    6  C21 UNL     1     -44.042  31.951 -20.296  1.00  0.00     0.275 C 
ENDROOT
BRANCH   2   7
HETATM    7  N4  UNL     1     -43.613  29.561 -23.998  1.00  0.00    -0.351 N 
HETATM    8  C11 UNL     1     -42.899  28.938 -25.049  1.00  0.00     0.244 C 
HETATM    9  O2  UNL     1     -41.650  28.992 -25.034  1.00  0.00    -0.272 OA
ATOM     10  H4  UNL     1     -44.633  29.530 -23.997  1.00  0.00     0.163 HD
BRANCH   8  11
HETATM   11  C12 UNL     1     -43.587  28.244 -26.138  1.00  0.00     0.339 C 
BRANCH  11  12
HETATM   12  N5  UNL     1     -44.059  29.177 -27.171  1.00  0.00    -0.056 N 
HETATM   13  C17 UNL     1     -43.189  30.232 -27.597  1.00  0.00     0.266 A 
HETATM   14  C18 UNL     1     -43.438  29.097 -28.483  1.00  0.00     0.266 A 
BRANCH  12  15
HETATM   15  C13 UNL     1     -45.484  29.376 -27.123  1.00  0.00     0.239 C 
BRANCH  15  16
HETATM   16  C14 UNL     1     -46.268  28.085 -27.075  1.00  0.00     0.047 C 
BRANCH  16  17
HETATM   17  C15 UNL     1     -47.422  28.095 -28.046  1.00  0.00     0.122 C 
BRANCH  17  18
HETATM   18  N6  UNL     1     -48.657  27.688 -27.453  1.00  0.00    -0.386 N 
ATOM     19  H6  UNL     1     -49.264  27.061 -27.980  1.00  0.00     0.160 HD
BRANCH  18  20
HETATM   20  C16 UNL     1     -49.080  28.114 -26.164  1.00  0.00     0.168 C 
HETATM   21  N7  UNL     1     -49.282  27.268 -25.195  1.00  0.00    -0.396 N 
ATOM     22  H72 UNL     1     -49.128  26.277 -25.382  1.00  0.00     0.156 HD
ATOM     23  H71 UNL     1     -49.586  27.574 -24.270  1.00  0.00     0.156 HD
ENDBRANCH  18  20
ENDBRANCH  17  18
ENDBRANCH  16  17
ENDBRANCH  15  16
ENDBRANCH  12  15
ENDBRANCH  11  12
ENDBRANCH   8  11
ENDBRANCH   2   7
BRANCH   1  24
HETATM   24  N3  UNL     1     -42.612  29.907 -20.499  1.00  0.00    -0.313 N 
HETATM   25  C8  UNL     1     -42.777  28.897 -19.479  1.00  0.00     0.317 C 
HETATM   26  N2  UNL     1     -41.875  28.811 -18.406  1.00  0.00    -0.343 N 
HETATM   27  O1  UNL     1     -43.760  28.094 -19.581  1.00  0.00    -0.247 OA
ATOM     28  H2  UNL     1     -41.099  29.472 -18.357  1.00  0.00     0.164 HD
ATOM     29  H3  UNL     1     -41.835  30.566 -20.449  1.00  0.00     0.166 HD
BRANCH  26  30
HETATM   30  C7  UNL     1     -42.018  27.796 -17.348  1.00  0.00     0.129 C 
BRANCH  30  31
HETATM   31  C6  UNL     1     -40.711  27.352 -16.794  1.00  0.00     0.064 C 
BRANCH  31  32
HETATM   32  C5  UNL     1     -40.668  26.789 -15.427  1.00  0.00     0.057 C 
BRANCH  32  33
HETATM   33  N1  UNL     1     -40.663  25.417 -15.222  1.00  0.00    -0.402 N 
ATOM     34  H1  UNL     1     -39.770  24.959 -15.042  1.00  0.00     0.158 HD
BRANCH  33  35
HETATM   35  C4  UNL     1     -41.818  24.628 -15.247  1.00  0.00     0.118 C 
BRANCH  35  36
HETATM   36  C3  UNL     1     -41.486  23.172 -14.867  1.00  0.00     0.019 C 
BRANCH  36  37
HETATM   37  C2  UNL     1     -40.296  23.148 -13.966  1.00  0.00    -0.003 C 
HETATM   38  C1  UNL     1     -40.437  22.031 -12.965  1.00  0.00     0.005 C 
ENDBRANCH  36  37
ENDBRANCH  35  36
ENDBRANCH  33  35
ENDBRANCH  32  33
ENDBRANCH  31  32
ENDBRANCH  30  31
ENDBRANCH  26  30
ENDBRANCH   1  24
BRANCH   5  39
HETATM   39  C22 UNL     1     -45.750  30.484 -20.877  1.00  0.00     0.235 C 
HETATM   40  C23 UNL     1     -46.153  30.852 -19.492  1.00  0.00     0.035 C 
ENDBRANCH   5  39
TORSDOF 17
ENDMDL
MODEL 5
REMARK VINA RESULT: -6.781817997      5.568     10.019
REMARK  17 active torsions:
REMARK  status: ('A' for Active; 'I' for Inactive)
REMARK    1  A    between atoms: C2_2  and  C3_3 
REMARK    2  A    between atoms: C3_3  and  C4_4 
REMARK    3  A    between atoms: C4_4  and  N1_5 
REMARK    4  A    between atoms: N1_5  and  C5_7 
REMARK    5  A    between atoms: C5_7  and  C6_8 
REMARK    6  A    between atoms: C6_8  and  C7_9 
REMARK    7  A    between atoms: C7_9  and  N2_10 
REMARK       I    between atoms: N2_10  and  C8_12 
REMARK       I    between atoms: C8_12  and  N3_14 
REMARK    8  A    between atoms: N3_14  and  C9_16 
REMARK    9  A    between atoms: C10_17  and  N4_18 
REMARK       I    between atoms: N4_18  and  C11_20 
REMARK   10  A    between atoms: C11_20  and  C12_22 
REMARK   11  A    between atoms: C12_22  and  N5_23 
REMARK   12  A    between atoms: N5_23  and  C13_24 
REMARK   13  A    between atoms: C13_24  and  C14_25 
REMARK   14  A    between atoms: C14_25  and  C15_26 
REMARK   15  A    between atoms: C15_26  and  N6_27 
REMARK   16  A    between atoms: N6_27  and  C16_29 
REMARK   17  A    between atoms: N8_37  and  C22_39 
ROOT
HETATM    1  C9  UNL     1     -42.845  29.627 -17.333  1.00  0.00     0.315 C 
HETATM    2  C10 UNL     1     -41.381  29.331 -17.402  1.00  0.00     0.136 C 
HETATM    3  C19 UNL     1     -41.036  29.758 -18.829  1.00  0.00     0.057 C 
HETATM    4  C20 UNL     1     -42.299  29.282 -19.556  1.00  0.00     0.242 C 
HETATM    5  N8  UNL     1     -43.356  29.728 -18.699  1.00  0.00    -0.048 N 
HETATM    6  C21 UNL     1     -43.664  31.110 -19.053  1.00  0.00     0.275 C 
ENDROOT
BRANCH   2   7
HETATM    7  N4  UNL     1     -41.127  27.909 -17.344  1.00  0.00    -0.351 N 
HETATM    8  C11 UNL     1     -40.503  27.325 -16.216  1.00  0.00     0.244 C 
HETATM    9  O2  UNL     1     -40.170  28.068 -15.267  1.00  0.00    -0.272 OA
ATOM     10  H4  UNL     1     -41.402  27.317 -18.129  1.00  0.00     0.163 HD
BRANCH   8  11
HETATM   11  C12 UNL     1     -40.243  25.887 -16.142  1.00  0.00     0.339 C 
BRANCH  11  12
HETATM   12  N5  UNL     1     -41.154  25.212 -15.207  1.00  0.00    -0.056 N 
HETATM   13  C17 UNL     1     -42.397  25.843 -14.879  1.00  0.00     0.266 A 
HETATM   14  C18 UNL     1     -42.391  24.668 -15.748  1.00  0.00     0.266 A 
BRANCH  12  15
HETATM   15  C13 UNL     1     -40.454  24.419 -14.231  1.00  0.00     0.239 C 
BRANCH  15  16
HETATM   16  C14 UNL     1     -40.989  23.011 -14.106  1.00  0.00     0.047 C 
BRANCH  16  17
HETATM   17  C15 UNL     1     -41.668  22.787 -12.778  1.00  0.00     0.122 C 
BRANCH  17  18
HETATM   18  N6  UNL     1     -43.094  22.824 -12.865  1.00  0.00    -0.386 N 
ATOM     19  H6  UNL     1     -43.592  23.559 -12.363  1.00  0.00     0.160 HD
BRANCH  18  20
HETATM   20  C16 UNL     1     -43.853  21.887 -13.617  1.00  0.00     0.168 C 
HETATM   21  N7  UNL     1     -44.574  22.250 -14.639  1.00  0.00    -0.396 N 
ATOM     22  H72 UNL     1     -44.583  23.238 -14.893  1.00  0.00     0.156 HD
ATOM     23  H71 UNL     1     -45.119  21.578 -15.179  1.00  0.00     0.156 HD
ENDBRANCH  18  20
ENDBRANCH  17  18
ENDBRANCH  16  17
ENDBRANCH  15  16
ENDBRANCH  12  15
ENDBRANCH  11  12
ENDBRANCH   8  11
ENDBRANCH   2   7
BRANCH   1  24
HETATM   24  N3  UNL     1     -43.146  30.868 -16.616  1.00  0.00    -0.313 N 
HETATM   25  C8  UNL     1     -43.635  30.804 -15.258  1.00  0.00     0.317 C 
HETATM   26  N2  UNL     1     -43.937  31.980 -14.552  1.00  0.00    -0.343 N 
HETATM   27  O1  UNL     1     -43.787  29.658 -14.726  1.00  0.00    -0.247 OA
ATOM     28  H2  UNL     1     -43.804  32.882 -15.010  1.00  0.00     0.164 HD
ATOM     29  H3  UNL     1     -43.013  31.770 -17.072  1.00  0.00     0.166 HD
BRANCH  26  30
HETATM   30  C7  UNL     1     -44.442  31.949 -13.168  1.00  0.00     0.129 C 
BRANCH  30  31
HETATM   31  C6  UNL     1     -43.359  32.078 -12.155  1.00  0.00     0.064 C 
BRANCH  31  32
HETATM   32  C5  UNL     1     -43.603  31.589 -10.781  1.00  0.00     0.057 C 
BRANCH  32  33
HETATM   33  N1  UNL     1     -43.537  32.451  -9.696  1.00  0.00    -0.402 N 
ATOM     34  H1  UNL     1     -43.653  33.450  -9.865  1.00  0.00     0.158 HD
BRANCH  33  35
HETATM   35  C4  UNL     1     -43.319  32.023  -8.382  1.00  0.00     0.118 C 
BRANCH  35  36
HETATM   36  C3  UNL     1     -42.870  30.549  -8.363  1.00  0.00     0.019 C 
BRANCH  36  37
HETATM   37  C2  UNL     1     -42.101  30.275  -7.114  1.00  0.00    -0.003 C 
HETATM   38  C1  UNL     1     -40.746  30.928  -7.196  1.00  0.00     0.005 C 
ENDBRANCH  36  37
ENDBRANCH  35  36
ENDBRANCH  33  35
ENDBRANCH  32  33
ENDBRANCH  31  32
ENDBRANCH  30  31
ENDBRANCH  26  30
ENDBRANCH   1  24
BRANCH   5  39
HETATM   39  C22 UNL     1     -44.577  28.987 -18.792  1.00  0.00     0.235 C 
HETATM   40  C23 UNL     1     -45.818  29.795 -18.938  1.00  0.00     0.035 C 
ENDBRANCH   5  39
TORSDOF 17
ENDMDL
