MODEL 1
REMARK VINA RESULT: -7.925323754      0.000      0.000
REMARK  20 active torsions:
REMARK  status: ('A' for Active; 'I' for Inactive)
REMARK    1  A    between atoms: C2_2  and  C3_3 
REMARK    2  A    between atoms: C3_3  and  C4_4 
REMARK    3  A    between atoms: C4_4  and  C5_5 
REMARK    4  A    between atoms: C5_5  and  C6_6 
REMARK    5  A    between atoms: C6_6  and  N1_7 
REMARK    6  A    between atoms: N1_7  and  C7_10 
REMARK    7  A    between atoms: C7_10  and  C8_11 
REMARK    8  A    between atoms: C8_11  and  C9_12 
REMARK    9  A    between atoms: C9_12  and  N2_13 
REMARK       I    between atoms: N2_13  and  C10_15 
REMARK       I    between atoms: C10_15  and  N5_22 
REMARK   10  A    between atoms: N3_16  and  C11_18 
REMARK   11  A    between atoms: N5_22  and  C12_24 
REMARK   12  A    between atoms: C12_24  and  C13_25 
REMARK   13  A    between atoms: C13_25  and  C14_26 
REMARK   14  A    between atoms: C14_26  and  C15_27 
REMARK   15  A    between atoms: C17_31  and  N7_32 
REMARK       I    between atoms: N7_32  and  C18_34 
REMARK   16  A    between atoms: C18_34  and  C19_36 
REMARK   17  A    between atoms: C19_36  and  N8_37 
REMARK   18  A    between atoms: N8_37  and  C22_40 
REMARK   19  A    between atoms: C22_40  and  C23_41 
REMARK   20  A    between atoms: C23_41  and  N9_42 
ROOT
HETATM    1  C12 UNL     1     -41.300  24.040 -13.423  1.00  0.00     0.138 C 
ENDROOT
BRANCH   1   2
HETATM    2  N5  UNL     1     -42.574  23.448 -13.191  1.00  0.00    -0.226 N 
HETATM    3  C10 UNL     1     -42.912  22.106 -13.500  1.00  0.00     0.674 C 
HETATM    4  N2  UNL     1     -44.046  21.815 -14.349  1.00  0.00    -0.226 N 
HETATM    5  N3  UNL     1     -42.230  21.145 -13.028  1.00  0.00    -0.189 N 
ATOM      6  H2  UNL     1     -43.884  21.568 -15.325  1.00  0.00     0.177 HD
ATOM      7  H3  UNL     1     -42.545  20.212 -13.295  1.00  0.00     0.184 HD
ATOM      8  H5  UNL     1     -43.297  24.032 -12.772  1.00  0.00     0.177 HD
BRANCH   4   9
HETATM    9  C9  UNL     1     -45.388  21.865 -13.857  1.00  0.00     0.139 C 
BRANCH   9  10
HETATM   10  C8  UNL     1     -45.398  22.029 -12.351  1.00  0.00     0.048 C 
BRANCH  10  11
HETATM   11  C7  UNL     1     -45.883  20.772 -11.686  1.00  0.00     0.234 C 
BRANCH  11  12
HETATM   12  N1  UNL     1     -45.789  19.639 -12.556  1.00  0.00    -0.075 N 
ATOM     13  H12 UNL     1     -45.401  19.908 -13.460  1.00  0.00     0.277 HD
ATOM     14  H11 UNL     1     -46.716  19.334 -12.854  1.00  0.00     0.277 HD
BRANCH  12  15
HETATM   15  C6  UNL     1     -45.050  18.542 -11.989  1.00  0.00     0.232 C 
BRANCH  15  16
HETATM   16  C5  UNL     1     -43.946  18.072 -12.912  1.00  0.00     0.027 C 
BRANCH  16  17
HETATM   17  C4  UNL     1     -42.756  17.529 -12.154  1.00  0.00     0.002 C 
BRANCH  17  18
HETATM   18  C3  UNL     1     -42.806  17.952 -10.692  1.00  0.00    -0.000 C 
BRANCH  18  19
HETATM   19  C2  UNL     1     -42.253  16.883  -9.805  1.00  0.00    -0.005 C 
HETATM   20  C1  UNL     1     -42.178  15.592 -10.616  1.00  0.00     0.005 C 
ENDBRANCH  18  19
ENDBRANCH  17  18
ENDBRANCH  16  17
ENDBRANCH  15  16
ENDBRANCH  12  15
ENDBRANCH  11  12
ENDBRANCH  10  11
ENDBRANCH   9  10
ENDBRANCH   4   9
BRANCH   5  21
HETATM   21  C11 UNL     1     -41.106  21.184 -12.194  1.00  0.00     0.191 C 
HETATM   22  N4  UNL     1     -41.269  21.067 -10.919  1.00  0.00    -0.395 N 
ATOM     23  H42 UNL     1     -42.210  20.948 -10.541  1.00  0.00     0.156 HD
ATOM     24  H41 UNL     1     -40.451  21.095 -10.312  1.00  0.00     0.156 HD
ENDBRANCH   5  21
ENDBRANCH   1   2
BRANCH   1  25
HETATM   25  C13 UNL     1     -40.938  24.091 -14.905  1.00  0.00     0.026 C 
BRANCH  25  26
HETATM   26  C14 UNL     1     -40.415  25.475 -15.164  1.00  0.00     0.060 C 
BRANCH  26  27
HETATM   27  C15 UNL     1     -41.500  26.262 -15.836  1.00  0.00     0.042 A 
HETATM   28  C16 UNL     1     -42.831  25.931 -15.901  1.00  0.00     0.131 A 
HETATM   29  N6  UNL     1     -43.426  26.914 -16.594  1.00  0.00    -0.200 N 
HETATM   30  C17 UNL     1     -42.490  27.830 -16.947  1.00  0.00     0.685 A 
ATOM     31  H6  UNL     1     -44.420  26.965 -16.818  1.00  0.00     0.183 HD
HETATM   32  N10 UNL     1     -41.311  27.438 -16.488  1.00  0.00    -0.194 N 
ATOM     33  H10 UNL     1     -40.424  27.929 -16.604  1.00  0.00     0.184 HD
BRANCH  30  34
HETATM   34  N7  UNL     1     -42.724  28.916 -17.635  1.00  0.00    -0.158 N 
HETATM   35  C18 UNL     1     -43.744  28.914 -18.605  1.00  0.00     0.262 C 
HETATM   36  O1  UNL     1     -43.712  28.014 -19.488  1.00  0.00    -0.271 OA
ATOM     37  H7  UNL     1     -42.172  29.758 -17.470  1.00  0.00     0.187 HD
BRANCH  35  38
HETATM   38  C19 UNL     1     -44.828  29.878 -18.653  1.00  0.00     0.339 C 
BRANCH  38  39
HETATM   39  N8  UNL     1     -44.500  31.194 -19.140  1.00  0.00    -0.065 N 
HETATM   40  C20 UNL     1     -44.339  32.070 -17.997  1.00  0.00     0.272 C 
HETATM   41  C21 UNL     1     -45.609  31.734 -19.926  1.00  0.00     0.272 C 
BRANCH  39  42
HETATM   42  C22 UNL     1     -43.323  31.257 -19.942  1.00  0.00     0.264 C 
BRANCH  42  43
HETATM   43  C23 UNL     1     -43.609  31.052 -21.422  1.00  0.00     0.257 C 
BRANCH  43  44
HETATM   44  N9  UNL     1     -42.738  29.967 -21.885  1.00  0.00    -0.078 N 
ATOM     45  H93 UNL     1     -42.509  29.298 -21.151  1.00  0.00     0.274 HD
ATOM     46  H92 UNL     1     -43.209  29.316 -22.513  1.00  0.00     0.274 HD
ATOM     47  H91 UNL     1     -41.914  30.400 -22.302  1.00  0.00     0.274 HD
ENDBRANCH  43  44
ENDBRANCH  42  43
ENDBRANCH  39  42
ENDBRANCH  38  39
ENDBRANCH  35  38
ENDBRANCH  30  34
ENDBRANCH  26  27
ENDBRANCH  25  26
ENDBRANCH   1  25
TORSDOF 20
ENDMDL
MODEL 2
REMARK VINA RESULT: -7.760780336      1.499      1.900
REMARK  20 active torsions:
REMARK  status: ('A' for Active; 'I' for Inactive)
REMARK    1  A    between atoms: C2_2  and  C3_3 
REMARK    2  A    between atoms: C3_3  and  C4_4 
REMARK    3  A    between atoms: C4_4  and  C5_5 
REMARK    4  A    between atoms: C5_5  and  C6_6 
REMARK    5  A    between atoms: C6_6  and  N1_7 
REMARK    6  A    between atoms: N1_7  and  C7_10 
REMARK    7  A    between atoms: C7_10  and  C8_11 
REMARK    8  A    between atoms: C8_11  and  C9_12 
REMARK    9  A    between atoms: C9_12  and  N2_13 
REMARK       I    between atoms: N2_13  and  C10_15 
REMARK       I    between atoms: C10_15  and  N5_22 
REMARK   10  A    between atoms: N3_16  and  C11_18 
REMARK   11  A    between atoms: N5_22  and  C12_24 
REMARK   12  A    between atoms: C12_24  and  C13_25 
REMARK   13  A    between atoms: C13_25  and  C14_26 
REMARK   14  A    between atoms: C14_26  and  C15_27 
REMARK   15  A    between atoms: C17_31  and  N7_32 
REMARK       I    between atoms: N7_32  and  C18_34 
REMARK   16  A    between atoms: C18_34  and  C19_36 
REMARK   17  A    between atoms: C19_36  and  N8_37 
REMARK   18  A    between atoms: N8_37  and  C22_40 
REMARK   19  A    between atoms: C22_40  and  C23_41 
REMARK   20  A    between atoms: C23_41  and  N9_42 
ROOT
HETATM    1  C12 UNL     1     -40.275  23.350 -13.196  1.00  0.00     0.138 C 
ENDROOT
BRANCH   1   2
HETATM    2  N5  UNL     1     -41.674  23.091 -13.165  1.00  0.00    -0.226 N 
HETATM    3  C10 UNL     1     -42.272  21.833 -13.428  1.00  0.00     0.674 C 
HETATM    4  N2  UNL     1     -43.287  21.706 -14.451  1.00  0.00    -0.226 N 
HETATM    5  N3  UNL     1     -41.931  20.805 -12.765  1.00  0.00    -0.189 N 
ATOM      6  H2  UNL     1     -43.031  21.315 -15.357  1.00  0.00     0.177 HD
ATOM      7  H3  UNL     1     -42.415  19.943 -13.014  1.00  0.00     0.184 HD
ATOM      8  H5  UNL     1     -42.292  23.869 -12.935  1.00  0.00     0.177 HD
BRANCH   4   9
HETATM    9  C9  UNL     1     -44.639  22.114 -14.226  1.00  0.00     0.139 C 
BRANCH   9  10
HETATM   10  C8  UNL     1     -44.997  21.988 -12.759  1.00  0.00     0.048 C 
BRANCH  10  11
HETATM   11  C7  UNL     1     -46.244  21.167 -12.589  1.00  0.00     0.234 C 
BRANCH  11  12
HETATM   12  N1  UNL     1     -46.000  19.774 -12.811  1.00  0.00    -0.075 N 
ATOM     13  H12 UNL     1     -45.721  19.605 -13.778  1.00  0.00     0.277 HD
ATOM     14  H11 UNL     1     -46.873  19.246 -12.792  1.00  0.00     0.277 HD
BRANCH  12  15
HETATM   15  C6  UNL     1     -45.041  19.208 -11.898  1.00  0.00     0.232 C 
BRANCH  15  16
HETATM   16  C5  UNL     1     -44.257  18.080 -12.534  1.00  0.00     0.027 C 
BRANCH  16  17
HETATM   17  C4  UNL     1     -43.161  17.562 -11.631  1.00  0.00     0.002 C 
BRANCH  17  18
HETATM   18  C3  UNL     1     -43.387  16.095 -11.292  1.00  0.00    -0.000 C 
BRANCH  18  19
HETATM   19  C2  UNL     1     -42.206  15.523 -10.574  1.00  0.00    -0.005 C 
HETATM   20  C1  UNL     1     -41.737  16.550  -9.547  1.00  0.00     0.005 C 
ENDBRANCH  18  19
ENDBRANCH  17  18
ENDBRANCH  16  17
ENDBRANCH  15  16
ENDBRANCH  12  15
ENDBRANCH  11  12
ENDBRANCH  10  11
ENDBRANCH   9  10
ENDBRANCH   4   9
BRANCH   5  21
HETATM   21  C11 UNL     1     -40.985  20.689 -11.739  1.00  0.00     0.191 C 
HETATM   22  N4  UNL     1     -41.378  20.780 -10.513  1.00  0.00    -0.395 N 
ATOM     23  H42 UNL     1     -42.366  20.934 -10.311  1.00  0.00     0.156 HD
ATOM     24  H41 UNL     1     -40.688  20.696  -9.766  1.00  0.00     0.156 HD
ENDBRANCH   5  21
ENDBRANCH   1   2
BRANCH   1  25
HETATM   25  C13 UNL     1     -39.928  24.601 -14.000  1.00  0.00     0.026 C 
BRANCH  25  26
HETATM   26  C14 UNL     1     -40.722  24.518 -15.272  1.00  0.00     0.060 C 
BRANCH  26  27
HETATM   27  C15 UNL     1     -41.330  25.865 -15.529  1.00  0.00     0.042 A 
HETATM   28  C16 UNL     1     -40.671  27.070 -15.545  1.00  0.00     0.131 A 
HETATM   29  N6  UNL     1     -41.601  27.999 -15.812  1.00  0.00    -0.200 N 
HETATM   30  C17 UNL     1     -42.803  27.387 -15.960  1.00  0.00     0.685 A 
ATOM     31  H6  UNL     1     -41.433  29.002 -15.892  1.00  0.00     0.183 HD
HETATM   32  N10 UNL     1     -42.645  26.083 -15.788  1.00  0.00    -0.194 N 
ATOM     33  H10 UNL     1     -43.376  25.374 -15.840  1.00  0.00     0.184 HD
BRANCH  30  34
HETATM   34  N7  UNL     1     -43.929  27.996 -16.223  1.00  0.00    -0.158 N 
HETATM   35  C18 UNL     1     -44.046  29.374 -15.965  1.00  0.00     0.262 C 
HETATM   36  O1  UNL     1     -43.762  29.780 -14.805  1.00  0.00    -0.271 OA
ATOM     37  H7  UNL     1     -44.716  27.476 -16.612  1.00  0.00     0.187 HD
BRANCH  35  38
HETATM   38  C19 UNL     1     -44.471  30.355 -16.946  1.00  0.00     0.339 C 
BRANCH  38  39
HETATM   39  N8  UNL     1     -43.801  30.326 -18.221  1.00  0.00    -0.065 N 
HETATM   40  C20 UNL     1     -44.238  31.476 -18.986  1.00  0.00     0.272 C 
HETATM   41  C21 UNL     1     -44.205  29.143 -18.979  1.00  0.00     0.272 C 
BRANCH  39  42
HETATM   42  C22 UNL     1     -42.377  30.333 -18.147  1.00  0.00     0.264 C 
BRANCH  42  43
HETATM   43  C23 UNL     1     -41.736  29.310 -19.073  1.00  0.00     0.257 C 
BRANCH  43  44
HETATM   44  N9  UNL     1     -40.295  29.325 -18.802  1.00  0.00    -0.078 N 
ATOM     45  H93 UNL     1     -39.774  29.921 -19.446  1.00  0.00     0.274 HD
ATOM     46  H92 UNL     1     -40.054  29.819 -17.943  1.00  0.00     0.274 HD
ATOM     47  H91 UNL     1     -39.977  28.356 -18.809  1.00  0.00     0.274 HD
ENDBRANCH  43  44
ENDBRANCH  42  43
ENDBRANCH  39  42
ENDBRANCH  38  39
ENDBRANCH  35  38
ENDBRANCH  30  34
ENDBRANCH  26  27
ENDBRANCH  25  26
ENDBRANCH   1  25
TORSDOF 20
ENDMDL
MODEL 3
REMARK VINA RESULT: -7.705569682      3.205     13.005
REMARK  20 active torsions:
REMARK  status: ('A' for Active; 'I' for Inactive)
REMARK    1  A    between atoms: C2_2  and  C3_3 
REMARK    2  A    between atoms: C3_3  and  C4_4 
REMARK    3  A    between atoms: C4_4  and  C5_5 
REMARK    4  A    between atoms: C5_5  and  C6_6 
REMARK    5  A    between atoms: C6_6  and  N1_7 
REMARK    6  A    between atoms: N1_7  and  C7_10 
REMARK    7  A    between atoms: C7_10  and  C8_11 
REMARK    8  A    between atoms: C8_11  and  C9_12 
REMARK    9  A    between atoms: C9_12  and  N2_13 
REMARK       I    between atoms: N2_13  and  C10_15 
REMARK       I    between atoms: C10_15  and  N5_22 
REMARK   10  A    between atoms: N3_16  and  C11_18 
REMARK   11  A    between atoms: N5_22  and  C12_24 
REMARK   12  A    between atoms: C12_24  and  C13_25 
REMARK   13  A    between atoms: C13_25  and  C14_26 
REMARK   14  A    between atoms: C14_26  and  C15_27 
REMARK   15  A    between atoms: C17_31  and  N7_32 
REMARK       I    between atoms: N7_32  and  C18_34 
REMARK   16  A    between atoms: C18_34  and  C19_36 
REMARK   17  A    between atoms: C19_36  and  N8_37 
REMARK   18  A    between atoms: N8_37  and  C22_40 
REMARK   19  A    between atoms: C22_40  and  C23_41 
REMARK   20  A    between atoms: C23_41  and  N9_42 
ROOT
HETATM    1  C12 UNL     1     -41.087  28.159 -15.852  1.00  0.00     0.138 C 
ENDROOT
BRANCH   1   2
HETATM    2  N5  UNL     1     -41.426  28.919 -17.006  1.00  0.00    -0.226 N 
HETATM    3  C10 UNL     1     -42.676  28.868 -17.672  1.00  0.00     0.674 C 
HETATM    4  N2  UNL     1     -42.739  28.563 -19.085  1.00  0.00    -0.226 N 
HETATM    5  N3  UNL     1     -43.754  29.096 -17.040  1.00  0.00    -0.189 N 
ATOM      6  H2  UNL     1     -43.007  27.623 -19.378  1.00  0.00     0.177 HD
ATOM      7  H3  UNL     1     -44.607  29.044 -17.596  1.00  0.00     0.184 HD
ATOM      8  H5  UNL     1     -40.717  29.549 -17.382  1.00  0.00     0.177 HD
BRANCH   4   9
HETATM    9  C9  UNL     1     -42.438  29.544 -20.081  1.00  0.00     0.139 C 
BRANCH   9  10
HETATM   10  C8  UNL     1     -43.637  29.778 -20.978  1.00  0.00     0.048 C 
BRANCH  10  11
HETATM   11  C7  UNL     1     -43.202  30.332 -22.306  1.00  0.00     0.234 C 
BRANCH  11  12
HETATM   12  N1  UNL     1     -43.903  29.719 -23.394  1.00  0.00    -0.075 N 
ATOM     13  H12 UNL     1     -44.905  29.894 -23.323  1.00  0.00     0.277 HD
ATOM     14  H11 UNL     1     -43.901  28.703 -23.298  1.00  0.00     0.277 HD
BRANCH  12  15
HETATM   15  C6  UNL     1     -43.406  30.110 -24.687  1.00  0.00     0.232 C 
BRANCH  15  16
HETATM   16  C5  UNL     1     -43.559  31.598 -24.921  1.00  0.00     0.027 C 
BRANCH  16  17
HETATM   17  C4  UNL     1     -43.781  31.930 -26.378  1.00  0.00     0.002 C 
BRANCH  17  18
HETATM   18  C3  UNL     1     -42.478  32.360 -27.040  1.00  0.00    -0.000 C 
BRANCH  18  19
HETATM   19  C2  UNL     1     -42.703  32.748 -28.467  1.00  0.00    -0.005 C 
HETATM   20  C1  UNL     1     -41.353  33.126 -29.070  1.00  0.00     0.005 C 
ENDBRANCH  18  19
ENDBRANCH  17  18
ENDBRANCH  16  17
ENDBRANCH  15  16
ENDBRANCH  12  15
ENDBRANCH  11  12
ENDBRANCH  10  11
ENDBRANCH   9  10
ENDBRANCH   4   9
BRANCH   5  21
HETATM   21  C11 UNL     1     -43.936  29.409 -15.688  1.00  0.00     0.191 C 
HETATM   22  N4  UNL     1     -44.994  30.056 -15.333  1.00  0.00    -0.395 N 
ATOM     23  H42 UNL     1     -45.678  30.328 -16.040  1.00  0.00     0.156 HD
ATOM     24  H41 UNL     1     -45.127  30.284 -14.348  1.00  0.00     0.156 HD
ENDBRANCH   5  21
ENDBRANCH   1   2
BRANCH   1  25
HETATM   25  C13 UNL     1     -40.787  26.697 -16.179  1.00  0.00     0.026 C 
BRANCH  25  26
HETATM   26  C14 UNL     1     -41.999  25.916 -15.758  1.00  0.00     0.060 C 
BRANCH  26  27
HETATM   27  C15 UNL     1     -41.566  24.899 -14.744  1.00  0.00     0.042 A 
HETATM   28  C16 UNL     1     -40.276  24.632 -14.353  1.00  0.00     0.131 A 
HETATM   29  N6  UNL     1     -40.360  23.657 -13.435  1.00  0.00    -0.200 N 
HETATM   30  C17 UNL     1     -41.665  23.329 -13.262  1.00  0.00     0.685 A 
ATOM     31  H6  UNL     1     -39.572  23.231 -12.947  1.00  0.00     0.183 HD
HETATM   32  N10 UNL     1     -42.407  24.083 -14.059  1.00  0.00    -0.194 N 
ATOM     33  H10 UNL     1     -43.424  24.056 -14.142  1.00  0.00     0.184 HD
BRANCH  30  34
HETATM   34  N7  UNL     1     -42.107  22.411 -12.443  1.00  0.00    -0.158 N 
HETATM   35  C18 UNL     1     -42.506  21.163 -12.955  1.00  0.00     0.262 C 
HETATM   36  O1  UNL     1     -43.358  21.155 -13.884  1.00  0.00    -0.271 OA
ATOM     37  H7  UNL     1     -42.161  22.598 -11.442  1.00  0.00     0.187 HD
BRANCH  35  38
HETATM   38  C19 UNL     1     -41.999  19.887 -12.483  1.00  0.00     0.339 C 
BRANCH  38  39
HETATM   39  N8  UNL     1     -42.956  18.998 -11.874  1.00  0.00    -0.065 N 
HETATM   40  C20 UNL     1     -42.311  18.342 -10.754  1.00  0.00     0.272 C 
HETATM   41  C21 UNL     1     -43.336  17.943 -12.812  1.00  0.00     0.272 C 
BRANCH  39  42
HETATM   42  C22 UNL     1     -44.150  19.629 -11.416  1.00  0.00     0.264 C 
BRANCH  42  43
HETATM   43  C23 UNL     1     -45.404  19.021 -12.025  1.00  0.00     0.257 C 
BRANCH  43  44
HETATM   44  N9  UNL     1     -46.090  20.089 -12.759  1.00  0.00    -0.078 N 
ATOM     45  H93 UNL     1     -45.491  20.892 -12.948  1.00  0.00     0.274 HD
ATOM     46  H92 UNL     1     -46.290  19.844 -13.729  1.00  0.00     0.274 HD
ATOM     47  H91 UNL     1     -46.926  20.331 -12.228  1.00  0.00     0.274 HD
ENDBRANCH  43  44
ENDBRANCH  42  43
ENDBRANCH  39  42
ENDBRANCH  38  39
ENDBRANCH  35  38
ENDBRANCH  30  34
ENDBRANCH  26  27
ENDBRANCH  25  26
ENDBRANCH   1  25
TORSDOF 20
ENDMDL
MODEL 4
REMARK VINA RESULT: -7.695851479      0.939      1.594
REMARK  20 active torsions:
REMARK  status: ('A' for Active; 'I' for Inactive)
REMARK    1  A    between atoms: C2_2  and  C3_3 
REMARK    2  A    between atoms: C3_3  and  C4_4 
REMARK    3  A    between atoms: C4_4  and  C5_5 
REMARK    4  A    between atoms: C5_5  and  C6_6 
REMARK    5  A    between atoms: C6_6  and  N1_7 
REMARK    6  A    between atoms: N1_7  and  C7_10 
REMARK    7  A    between atoms: C7_10  and  C8_11 
REMARK    8  A    between atoms: C8_11  and  C9_12 
REMARK    9  A    between atoms: C9_12  and  N2_13 
REMARK       I    between atoms: N2_13  and  C10_15 
REMARK       I    between atoms: C10_15  and  N5_22 
REMARK   10  A    between atoms: N3_16  and  C11_18 
REMARK   11  A    between atoms: N5_22  and  C12_24 
REMARK   12  A    between atoms: C12_24  and  C13_25 
REMARK   13  A    between atoms: C13_25  and  C14_26 
REMARK   14  A    between atoms: C14_26  and  C15_27 
REMARK   15  A    between atoms: C17_31  and  N7_32 
REMARK       I    between atoms: N7_32  and  C18_34 
REMARK   16  A    between atoms: C18_34  and  C19_36 
REMARK   17  A    between atoms: C19_36  and  N8_37 
REMARK   18  A    between atoms: N8_37  and  C22_40 
REMARK   19  A    between atoms: C22_40  and  C23_41 
REMARK   20  A    between atoms: C23_41  and  N9_42 
ROOT
HETATM    1  C12 UNL     1     -41.177  23.869 -13.195  1.00  0.00     0.138 C 
ENDROOT
BRANCH   1   2
HETATM    2  N5  UNL     1     -42.478  23.312 -13.046  1.00  0.00    -0.226 N 
HETATM    3  C10 UNL     1     -42.842  21.992 -13.417  1.00  0.00     0.674 C 
HETATM    4  N2  UNL     1     -43.942  21.767 -14.329  1.00  0.00    -0.226 N 
HETATM    5  N3  UNL     1     -42.214  20.994 -12.947  1.00  0.00    -0.189 N 
ATOM      6  H2  UNL     1     -43.739  21.547 -15.304  1.00  0.00     0.177 HD
ATOM      7  H3  UNL     1     -42.545  20.082 -13.261  1.00  0.00     0.184 HD
ATOM      8  H5  UNL     1     -43.202  23.905 -12.642  1.00  0.00     0.177 HD
BRANCH   4   9
HETATM    9  C9  UNL     1     -45.304  21.844 -13.901  1.00  0.00     0.139 C 
BRANCH   9  10
HETATM   10  C8  UNL     1     -45.381  22.017 -12.398  1.00  0.00     0.048 C 
BRANCH  10  11
HETATM   11  C7  UNL     1     -45.964  20.789 -11.755  1.00  0.00     0.234 C 
BRANCH  11  12
HETATM   12  N1  UNL     1     -45.837  19.637 -12.595  1.00  0.00    -0.075 N 
ATOM     13  H12 UNL     1     -45.387  19.880 -13.477  1.00  0.00     0.277 HD
ATOM     14  H11 UNL     1     -46.749  19.343 -12.945  1.00  0.00     0.277 HD
BRANCH  12  15
HETATM   15  C6  UNL     1     -45.156  18.539 -11.960  1.00  0.00     0.232 C 
BRANCH  15  16
HETATM   16  C5  UNL     1     -43.973  18.065 -12.776  1.00  0.00     0.027 C 
BRANCH  16  17
HETATM   17  C4  UNL     1     -42.873  17.489 -11.913  1.00  0.00     0.002 C 
BRANCH  17  18
HETATM   18  C3  UNL     1     -43.293  16.148 -11.326  1.00  0.00    -0.000 C 
BRANCH  18  19
HETATM   19  C2  UNL     1     -42.176  15.533 -10.543  1.00  0.00    -0.005 C 
HETATM   20  C1  UNL     1     -41.688  16.564  -9.530  1.00  0.00     0.005 C 
ENDBRANCH  18  19
ENDBRANCH  17  18
ENDBRANCH  16  17
ENDBRANCH  15  16
ENDBRANCH  12  15
ENDBRANCH  11  12
ENDBRANCH  10  11
ENDBRANCH   9  10
ENDBRANCH   4   9
BRANCH   5  21
HETATM   21  C11 UNL     1     -41.132  20.969 -12.059  1.00  0.00     0.191 C 
HETATM   22  N4  UNL     1     -41.364  20.859 -10.794  1.00  0.00    -0.395 N 
ATOM     23  H42 UNL     1     -42.327  20.793 -10.463  1.00  0.00     0.156 HD
ATOM     24  H41 UNL     1     -40.576  20.841 -10.147  1.00  0.00     0.156 HD
ENDBRANCH   5  21
ENDBRANCH   1   2
BRANCH   1  25
HETATM   25  C13 UNL     1     -40.713  23.896 -14.650  1.00  0.00     0.026 C 
BRANCH  25  26
HETATM   26  C14 UNL     1     -40.307  25.313 -14.936  1.00  0.00     0.060 C 
BRANCH  26  27
HETATM   27  C15 UNL     1     -41.456  25.998 -15.615  1.00  0.00     0.042 A 
HETATM   28  C16 UNL     1     -42.731  25.507 -15.758  1.00  0.00     0.131 A 
HETATM   29  N6  UNL     1     -43.418  26.448 -16.425  1.00  0.00    -0.200 N 
HETATM   30  C17 UNL     1     -42.593  27.492 -16.686  1.00  0.00     0.685 A 
ATOM     31  H6  UNL     1     -44.401  26.388 -16.692  1.00  0.00     0.183 HD
HETATM   32  N10 UNL     1     -41.392  27.224 -16.195  1.00  0.00    -0.194 N 
ATOM     33  H10 UNL     1     -40.571  27.827 -16.244  1.00  0.00     0.184 HD
BRANCH  30  34
HETATM   34  N7  UNL     1     -42.935  28.579 -17.326  1.00  0.00    -0.158 N 
HETATM   35  C18 UNL     1     -42.246  28.936 -18.499  1.00  0.00     0.262 C 
HETATM   36  O1  UNL     1     -40.990  29.020 -18.440  1.00  0.00    -0.271 OA
ATOM     37  H7  UNL     1     -43.696  29.162 -16.977  1.00  0.00     0.187 HD
BRANCH  35  38
HETATM   38  C19 UNL     1     -42.889  29.212 -19.772  1.00  0.00     0.339 C 
BRANCH  38  39
HETATM   39  N8  UNL     1     -43.548  30.486 -19.899  1.00  0.00    -0.065 N 
HETATM   40  C20 UNL     1     -44.942  30.309 -19.543  1.00  0.00     0.272 C 
HETATM   41  C21 UNL     1     -43.527  30.931 -21.292  1.00  0.00     0.272 C 
BRANCH  39  42
HETATM   42  C22 UNL     1     -42.995  31.527 -19.097  1.00  0.00     0.264 C 
BRANCH  42  43
HETATM   43  C23 UNL     1     -44.023  32.169 -18.178  1.00  0.00     0.257 C 
BRANCH  43  44
HETATM   44  N9  UNL     1     -43.420  32.248 -16.843  1.00  0.00    -0.078 N 
ATOM     45  H93 UNL     1     -43.068  31.351 -16.511  1.00  0.00     0.274 HD
ATOM     46  H92 UNL     1     -42.532  32.750 -16.834  1.00  0.00     0.274 HD
ATOM     47  H91 UNL     1     -44.118  32.658 -16.222  1.00  0.00     0.274 HD
ENDBRANCH  43  44
ENDBRANCH  42  43
ENDBRANCH  39  42
ENDBRANCH  38  39
ENDBRANCH  35  38
ENDBRANCH  30  34
ENDBRANCH  26  27
ENDBRANCH  25  26
ENDBRANCH   1  25
TORSDOF 20
ENDMDL
MODEL 5
REMARK VINA RESULT: -7.666320570      3.644     13.316
REMARK  20 active torsions:
REMARK  status: ('A' for Active; 'I' for Inactive)
REMARK    1  A    between atoms: C2_2  and  C3_3 
REMARK    2  A    between atoms: C3_3  and  C4_4 
REMARK    3  A    between atoms: C4_4  and  C5_5 
REMARK    4  A    between atoms: C5_5  and  C6_6 
REMARK    5  A    between atoms: C6_6  and  N1_7 
REMARK    6  A    between atoms: N1_7  and  C7_10 
REMARK    7  A    between atoms: C7_10  and  C8_11 
REMARK    8  A    between atoms: C8_11  and  C9_12 
REMARK    9  A    between atoms: C9_12  and  N2_13 
REMARK       I    between atoms: N2_13  and  C10_15 
REMARK       I    between atoms: C10_15  and  N5_22 
REMARK   10  A    between atoms: N3_16  and  C11_18 
REMARK   11  A    between atoms: N5_22  and  C12_24 
REMARK   12  A    between atoms: C12_24  and  C13_25 
REMARK   13  A    between atoms: C13_25  and  C14_26 
REMARK   14  A    between atoms: C14_26  and  C15_27 
REMARK   15  A    between atoms: C17_31  and  N7_32 
REMARK       I    between atoms: N7_32  and  C18_34 
REMARK   16  A    between atoms: C18_34  and  C19_36 
REMARK   17  A    between atoms: C19_36  and  N8_37 
REMARK   18  A    between atoms: N8_37  and  C22_40 
REMARK   19  A    between atoms: C22_40  and  C23_41 
REMARK   20  A    between atoms: C23_41  and  N9_42 
ROOT
HETATM    1  C12 UNL     1     -40.539  29.259 -17.803  1.00  0.00     0.138 C 
ENDROOT
BRANCH   1   2
HETATM    2  N5  UNL     1     -41.337  29.877 -18.806  1.00  0.00    -0.226 N 
HETATM    3  C10 UNL     1     -42.751  29.802 -18.878  1.00  0.00     0.674 C 
HETATM    4  N2  UNL     1     -43.398  29.318 -20.077  1.00  0.00    -0.226 N 
HETATM    5  N3  UNL     1     -43.466  30.168 -17.894  1.00  0.00    -0.189 N 
ATOM      6  H2  UNL     1     -43.756  28.363 -20.096  1.00  0.00     0.177 HD
ATOM      7  H3  UNL     1     -44.474  30.087 -18.031  1.00  0.00     0.184 HD
ATOM      8  H5  UNL     1     -40.856  30.413 -19.528  1.00  0.00     0.177 HD
BRANCH   4   9
HETATM    9  C9  UNL     1     -43.550  30.141 -21.236  1.00  0.00     0.139 C 
BRANCH   9  10
HETATM   10  C8  UNL     1     -42.745  29.585 -22.394  1.00  0.00     0.048 C 
BRANCH  10  11
HETATM   11  C7  UNL     1     -43.085  30.307 -23.667  1.00  0.00     0.234 C 
BRANCH  11  12
HETATM   12  N1  UNL     1     -43.193  29.408 -24.777  1.00  0.00    -0.075 N 
ATOM     13  H12 UNL     1     -44.161  29.333 -25.088  1.00  0.00     0.277 HD
ATOM     14  H11 UNL     1     -43.036  28.445 -24.478  1.00  0.00     0.277 HD
BRANCH  12  15
HETATM   15  C6  UNL     1     -42.329  29.749 -25.875  1.00  0.00     0.232 C 
BRANCH  15  16
HETATM   16  C5  UNL     1     -43.045  30.583 -26.916  1.00  0.00     0.027 C 
BRANCH  16  17
HETATM   17  C4  UNL     1     -42.407  31.941 -27.101  1.00  0.00     0.002 C 
BRANCH  17  18
HETATM   18  C3  UNL     1     -43.084  32.708 -28.230  1.00  0.00    -0.000 C 
BRANCH  18  19
HETATM   19  C2  UNL     1     -42.304  32.591 -29.501  1.00  0.00    -0.005 C 
HETATM   20  C1  UNL     1     -41.082  33.499 -29.387  1.00  0.00     0.005 C 
ENDBRANCH  18  19
ENDBRANCH  17  18
ENDBRANCH  16  17
ENDBRANCH  15  16
ENDBRANCH  12  15
ENDBRANCH  11  12
ENDBRANCH  10  11
ENDBRANCH   9  10
ENDBRANCH   4   9
BRANCH   5  21
HETATM   21  C11 UNL     1     -43.067  30.665 -16.648  1.00  0.00     0.191 C 
HETATM   22  N4  UNL     1     -43.214  31.923 -16.401  1.00  0.00    -0.395 N 
ATOM     23  H42 UNL     1     -43.617  32.532 -17.113  1.00  0.00     0.156 HD
ATOM     24  H41 UNL     1     -42.923  32.286 -15.493  1.00  0.00     0.156 HD
ENDBRANCH   5  21
ENDBRANCH   1   2
BRANCH   1  25
HETATM   25  C13 UNL     1     -40.969  27.822 -17.514  1.00  0.00     0.026 C 
BRANCH  25  26
HETATM   26  C14 UNL     1     -40.733  27.599 -16.047  1.00  0.00     0.060 C 
BRANCH  26  27
HETATM   27  C15 UNL     1     -41.375  26.299 -15.666  1.00  0.00     0.042 A 
HETATM   28  C16 UNL     1     -42.692  25.952 -15.847  1.00  0.00     0.131 A 
HETATM   29  N6  UNL     1     -42.819  24.707 -15.361  1.00  0.00    -0.200 N 
HETATM   30  C17 UNL     1     -41.614  24.294 -14.895  1.00  0.00     0.685 A 
ATOM     31  H6  UNL     1     -43.680  24.161 -15.346  1.00  0.00     0.183 HD
HETATM   32  N10 UNL     1     -40.727  25.261 -15.077  1.00  0.00    -0.194 N 
ATOM     33  H10 UNL     1     -39.740  25.231 -14.821  1.00  0.00     0.184 HD
BRANCH  30  34
HETATM   34  N7  UNL     1     -41.379  23.130 -14.349  1.00  0.00    -0.158 N 
HETATM   35  C18 UNL     1     -42.341  22.560 -13.494  1.00  0.00     0.262 C 
HETATM   36  O1  UNL     1     -42.751  23.256 -12.526  1.00  0.00    -0.271 OA
ATOM     37  H7  UNL     1     -40.506  22.638 -14.541  1.00  0.00     0.187 HD
BRANCH  35  38
HETATM   38  C19 UNL     1     -42.892  21.227 -13.657  1.00  0.00     0.339 C 
BRANCH  38  39
HETATM   39  N8  UNL     1     -42.524  20.250 -12.664  1.00  0.00    -0.065 N 
HETATM   40  C20 UNL     1     -41.209  20.593 -12.162  1.00  0.00     0.272 C 
HETATM   41  C21 UNL     1     -42.406  18.927 -13.274  1.00  0.00     0.272 C 
BRANCH  39  42
HETATM   42  C22 UNL     1     -43.427  20.148 -11.565  1.00  0.00     0.264 C 
BRANCH  42  43
HETATM   43  C23 UNL     1     -42.983  19.119 -10.536  1.00  0.00     0.257 C 
BRANCH  43  44
HETATM   44  N9  UNL     1     -43.157  19.728  -9.213  1.00  0.00    -0.078 N 
ATOM     45  H93 UNL     1     -43.694  20.594  -9.239  1.00  0.00     0.274 HD
ATOM     46  H92 UNL     1     -43.789  19.201  -8.610  1.00  0.00     0.274 HD
ATOM     47  H91 UNL     1     -42.227  19.846  -8.811  1.00  0.00     0.274 HD
ENDBRANCH  43  44
ENDBRANCH  42  43
ENDBRANCH  39  42
ENDBRANCH  38  39
ENDBRANCH  35  38
ENDBRANCH  30  34
ENDBRANCH  26  27
ENDBRANCH  25  26
ENDBRANCH   1  25
TORSDOF 20
ENDMDL
