MODEL 1
REMARK VINA RESULT: -8.213789784      0.000      0.000
REMARK  17 active torsions:
REMARK  status: ('A' for Active; 'I' for Inactive)
REMARK    1  A    between atoms: C2_2  and  C3_3 
REMARK    2  A    between atoms: C3_3  and  C4_4 
REMARK    3  A    between atoms: C4_4  and  C5_5 
REMARK    4  A    between atoms: C5_5  and  C6_6 
REMARK    5  A    between atoms: C6_6  and  C7_7 
REMARK    6  A    between atoms: C7_7  and  N1_8 
REMARK    7  A    between atoms: N2_12  and  N3_14 
REMARK    8  A    between atoms: C11_19  and  N5_20 
REMARK       I    between atoms: C12_22  and  N6_23 
REMARK       I    between atoms: C12_22  and  N7_26 
REMARK    9  A    between atoms: N7_26  and  C14_28 
REMARK   10  A    between atoms: C14_28  and  C15_29 
REMARK   11  A    between atoms: C15_29  and  C16_30 
REMARK   12  A    between atoms: C16_30  and  N8_31 
REMARK   13  A    between atoms: N8_31  and  C17_34 
REMARK   14  A    between atoms: C17_34  and  C18_35 
REMARK   15  A    between atoms: C18_35  and  C19_36 
REMARK   16  A    between atoms: C19_36  and  N9_37 
REMARK       I    between atoms: N9_37  and  C20_39 
REMARK       I    between atoms: C20_39  and  N11_43 
REMARK   17  A    between atoms: N11_43  and  C22_45 
ROOT
HETATM    1  N5  UNL     1     -44.757  20.461 -11.723  1.00  0.00    -0.199 N 
ATOM      2  H5  UNL     1     -45.538  20.726 -11.124  1.00  0.00     0.180 HD
HETATM    3  C12 UNL     1     -44.744  21.156 -12.760  1.00  0.00     0.675 C 
HETATM    4  N6  UNL     1     -45.781  22.135 -12.893  1.00  0.00    -0.231 N 
ATOM      5  H6  UNL     1     -45.967  22.571 -13.797  1.00  0.00     0.177 HD
HETATM    6  C13 UNL     1     -46.561  22.497 -11.732  1.00  0.00     0.165 C 
HETATM    7  N7  UNL     1     -43.803  21.005 -13.805  1.00  0.00    -0.203 N 
ATOM      8  H7  UNL     1     -44.000  20.217 -14.421  1.00  0.00     0.183 HD
ENDROOT
BRANCH   1   9
HETATM    9  C11 UNL     1     -44.016  19.424 -11.137  1.00  0.00     0.253 C 
HETATM   10  N1  UNL     1     -44.173  18.178 -11.763  1.00  0.00    -0.346 N 
HETATM   11  C8  UNL     1     -43.110  17.888 -12.641  1.00  0.00     0.071 C 
HETATM   12  C9  UNL     1     -41.967  18.819 -12.273  1.00  0.00     0.103 C 
HETATM   13  C10 UNL     1     -42.560  19.774 -11.303  1.00  0.00     0.052 C 
HETATM   14  N2  UNL     1     -41.936  20.715 -10.721  1.00  0.00    -0.291 N 
ATOM     15  H2  UNL     1     -42.434  21.320 -10.068  1.00  0.00     0.188 HD
BRANCH  10  16
HETATM   16  C7  UNL     1     -44.918  17.156 -11.188  1.00  0.00     0.065 C 
BRANCH  16  17
HETATM   17  C6  UNL     1     -45.056  17.041  -9.724  1.00  0.00     0.045 C 
BRANCH  17  18
HETATM   18  C5  UNL     1     -44.103  16.117  -9.031  1.00  0.00     0.005 C 
BRANCH  18  19
HETATM   19  C4  UNL     1     -42.800  16.836  -8.740  1.00  0.00     0.000 C 
BRANCH  19  20
HETATM   20  C3  UNL     1     -41.639  16.326  -9.534  1.00  0.00    -0.000 C 
BRANCH  20  21
HETATM   21  C2  UNL     1     -41.572  14.841  -9.669  1.00  0.00    -0.005 C 
HETATM   22  C1  UNL     1     -41.647  14.525 -11.163  1.00  0.00     0.005 C 
ENDBRANCH  20  21
ENDBRANCH  19  20
ENDBRANCH  18  19
ENDBRANCH  17  18
ENDBRANCH  16  17
ENDBRANCH  10  16
BRANCH  14  23
HETATM   23  N3  UNL     1     -40.578  20.933 -10.964  1.00  0.00    -0.249 N 
HETATM   24  N4  UNL     1     -40.214  21.826 -11.775  1.00  0.00    -0.331 N 
ATOM     25  H42 UNL     1     -40.926  22.382 -12.247  1.00  0.00     0.178 HD
ATOM     26  H41 UNL     1     -39.223  21.985 -11.952  1.00  0.00     0.178 HD
ATOM     27  H3  UNL     1     -39.878  20.368 -10.482  1.00  0.00     0.207 HD
ENDBRANCH  14  23
ENDBRANCH   1   9
BRANCH   7  28
HETATM   28  C14 UNL     1     -42.652  21.725 -14.161  1.00  0.00     0.103 C 
BRANCH  28  29
HETATM   29  C15 UNL     1     -42.452  23.137 -13.875  1.00  0.00     0.018 C 
BRANCH  29  30
HETATM   30  C16 UNL     1     -42.101  24.138 -14.891  1.00  0.00     0.261 C 
BRANCH  30  31
HETATM   31  N8  UNL     1     -43.229  24.836 -15.483  1.00  0.00    -0.072 N 
ATOM     32  H82 UNL     1     -43.703  24.268 -16.186  1.00  0.00     0.277 HD
ATOM     33  H81 UNL     1     -44.004  24.937 -14.827  1.00  0.00     0.277 HD
BRANCH  31  34
HETATM   34  C17 UNL     1     -42.801  26.115 -16.018  1.00  0.00     0.234 C 
BRANCH  34  35
HETATM   35  C18 UNL     1     -41.504  26.602 -15.474  1.00  0.00     0.048 C 
BRANCH  35  36
HETATM   36  C19 UNL     1     -40.617  27.018 -16.620  1.00  0.00     0.139 C 
BRANCH  36  37
HETATM   37  N9  UNL     1     -40.803  28.403 -16.926  1.00  0.00    -0.227 N 
HETATM   38  C20 UNL     1     -41.758  28.902 -17.832  1.00  0.00     0.669 C 
HETATM   39  N10 UNL     1     -41.550  28.828 -19.096  1.00  0.00    -0.231 N 
HETATM   40  N11 UNL     1     -42.992  29.514 -17.424  1.00  0.00    -0.227 N 
HETATM   41  C21 UNL     1     -42.490  29.325 -20.090  1.00  0.00     0.165 C 
ATOM     42  H10 UNL     1     -40.683  28.400 -19.421  1.00  0.00     0.177 HD
ATOM     43  H11 UNL     1     -43.866  28.993 -17.492  1.00  0.00     0.177 HD
ATOM     44  H9  UNL     1     -40.201  29.076 -16.454  1.00  0.00     0.177 HD
BRANCH  40  45
HETATM   45  C22 UNL     1     -42.994  30.865 -16.920  1.00  0.00     0.133 C 
HETATM   46  C23 UNL     1     -43.583  30.959 -15.545  1.00  0.00     0.027 C 
ENDBRANCH  40  45
ENDBRANCH  36  37
ENDBRANCH  35  36
ENDBRANCH  34  35
ENDBRANCH  31  34
ENDBRANCH  30  31
ENDBRANCH  29  30
ENDBRANCH  28  29
ENDBRANCH   7  28
TORSDOF 17
ENDMDL
MODEL 2
REMARK VINA RESULT: -7.888774897      2.915     11.980
REMARK  17 active torsions:
REMARK  status: ('A' for Active; 'I' for Inactive)
REMARK    1  A    between atoms: C2_2  and  C3_3 
REMARK    2  A    between atoms: C3_3  and  C4_4 
REMARK    3  A    between atoms: C4_4  and  C5_5 
REMARK    4  A    between atoms: C5_5  and  C6_6 
REMARK    5  A    between atoms: C6_6  and  C7_7 
REMARK    6  A    between atoms: C7_7  and  N1_8 
REMARK    7  A    between atoms: N2_12  and  N3_14 
REMARK    8  A    between atoms: C11_19  and  N5_20 
REMARK       I    between atoms: C12_22  and  N6_23 
REMARK       I    between atoms: C12_22  and  N7_26 
REMARK    9  A    between atoms: N7_26  and  C14_28 
REMARK   10  A    between atoms: C14_28  and  C15_29 
REMARK   11  A    between atoms: C15_29  and  C16_30 
REMARK   12  A    between atoms: C16_30  and  N8_31 
REMARK   13  A    between atoms: N8_31  and  C17_34 
REMARK   14  A    between atoms: C17_34  and  C18_35 
REMARK   15  A    between atoms: C18_35  and  C19_36 
REMARK   16  A    between atoms: C19_36  and  N9_37 
REMARK       I    between atoms: N9_37  and  C20_39 
REMARK       I    between atoms: C20_39  and  N11_43 
REMARK   17  A    between atoms: N11_43  and  C22_45 
ROOT
HETATM    1  N5  UNL     1     -44.053  30.377 -19.330  1.00  0.00    -0.199 N 
ATOM      2  H5  UNL     1     -44.548  30.949 -20.014  1.00  0.00     0.180 HD
HETATM    3  C12 UNL     1     -43.084  29.797 -19.864  1.00  0.00     0.675 C 
HETATM    4  N6  UNL     1     -42.877  30.038 -21.260  1.00  0.00    -0.231 N 
ATOM      5  H6  UNL     1     -42.261  29.433 -21.803  1.00  0.00     0.177 HD
HETATM    6  C13 UNL     1     -43.553  31.149 -21.891  1.00  0.00     0.165 C 
HETATM    7  N7  UNL     1     -42.223  28.904 -19.185  1.00  0.00    -0.203 N 
ATOM      8  H7  UNL     1     -42.618  27.973 -19.057  1.00  0.00     0.183 HD
ENDROOT
BRANCH   1   9
HETATM    9  C11 UNL     1     -44.662  30.476 -18.071  1.00  0.00     0.253 C 
HETATM   10  N1  UNL     1     -44.112  31.463 -17.240  1.00  0.00    -0.346 N 
HETATM   11  C8  UNL     1     -44.874  32.648 -17.247  1.00  0.00     0.071 C 
HETATM   12  C9  UNL     1     -46.242  32.290 -17.803  1.00  0.00     0.103 C 
HETATM   13  C10 UNL     1     -46.089  30.900 -18.304  1.00  0.00     0.052 C 
HETATM   14  N2  UNL     1     -47.010  30.202 -18.832  1.00  0.00    -0.291 N 
ATOM     15  H2  UNL     1     -46.805  29.254 -19.145  1.00  0.00     0.188 HD
BRANCH  10  16
HETATM   16  C7  UNL     1     -43.306  31.144 -16.154  1.00  0.00     0.065 C 
BRANCH  16  17
HETATM   17  C6  UNL     1     -43.750  30.182 -15.129  1.00  0.00     0.045 C 
BRANCH  17  18
HETATM   18  C5  UNL     1     -44.514  30.742 -13.970  1.00  0.00     0.005 C 
BRANCH  18  19
HETATM   19  C4  UNL     1     -43.835  31.996 -13.455  1.00  0.00     0.000 C 
BRANCH  19  20
HETATM   20  C3  UNL     1     -43.223  31.837 -12.098  1.00  0.00    -0.000 C 
BRANCH  20  21
HETATM   21  C2  UNL     1     -44.200  31.790 -10.970  1.00  0.00    -0.005 C 
HETATM   22  C1  UNL     1     -43.564  30.945  -9.866  1.00  0.00     0.005 C 
ENDBRANCH  20  21
ENDBRANCH  19  20
ENDBRANCH  18  19
ENDBRANCH  17  18
ENDBRANCH  16  17
ENDBRANCH  10  16
BRANCH  14  23
HETATM   23  N3  UNL     1     -48.299  30.717 -18.989  1.00  0.00    -0.249 N 
HETATM   24  N4  UNL     1     -49.212  30.397 -18.182  1.00  0.00    -0.331 N 
ATOM     25  H42 UNL     1     -48.992  29.759 -17.417  1.00  0.00     0.178 HD
ATOM     26  H41 UNL     1     -50.153  30.772 -18.297  1.00  0.00     0.178 HD
ATOM     27  H3  UNL     1     -48.502  31.353 -19.760  1.00  0.00     0.207 HD
ENDBRANCH  14  23
ENDBRANCH   1   9
BRANCH   7  28
HETATM   28  C14 UNL     1     -40.932  29.045 -18.653  1.00  0.00     0.103 C 
BRANCH  28  29
HETATM   29  C15 UNL     1     -40.541  28.588 -17.328  1.00  0.00     0.018 C 
BRANCH  29  30
HETATM   30  C16 UNL     1     -40.769  27.225 -16.831  1.00  0.00     0.261 C 
BRANCH  30  31
HETATM   31  N8  UNL     1     -41.267  27.141 -15.469  1.00  0.00    -0.072 N 
ATOM     32  H82 UNL     1     -40.752  27.753 -14.836  1.00  0.00     0.277 HD
ATOM     33  H81 UNL     1     -42.188  27.569 -15.372  1.00  0.00     0.277 HD
BRANCH  31  34
HETATM   34  C17 UNL     1     -41.258  25.762 -15.018  1.00  0.00     0.234 C 
BRANCH  34  35
HETATM   35  C18 UNL     1     -42.474  24.989 -15.388  1.00  0.00     0.048 C 
BRANCH  35  36
HETATM   36  C19 UNL     1     -42.310  23.565 -14.925  1.00  0.00     0.139 C 
BRANCH  36  37
HETATM   37  N9  UNL     1     -43.584  22.931 -14.778  1.00  0.00    -0.227 N 
HETATM   38  C20 UNL     1     -43.914  22.023 -13.754  1.00  0.00     0.669 C 
HETATM   39  N10 UNL     1     -43.508  20.806 -13.813  1.00  0.00    -0.231 N 
HETATM   40  N11 UNL     1     -44.704  22.375 -12.607  1.00  0.00    -0.227 N 
HETATM   41  C21 UNL     1     -43.812  19.813 -12.794  1.00  0.00     0.165 C 
ATOM     42  H10 UNL     1     -42.945  20.521 -14.614  1.00  0.00     0.177 HD
ATOM     43  H11 UNL     1     -44.254  22.529 -11.706  1.00  0.00     0.177 HD
ATOM     44  H9  UNL     1     -44.304  23.152 -15.464  1.00  0.00     0.177 HD
BRANCH  40  45
HETATM   45  C22 UNL     1     -46.135  22.511 -12.733  1.00  0.00     0.133 C 
HETATM   46  C23 UNL     1     -46.856  22.127 -11.477  1.00  0.00     0.027 C 
ENDBRANCH  40  45
ENDBRANCH  36  37
ENDBRANCH  35  36
ENDBRANCH  34  35
ENDBRANCH  31  34
ENDBRANCH  30  31
ENDBRANCH  29  30
ENDBRANCH  28  29
ENDBRANCH   7  28
TORSDOF 17
ENDMDL
MODEL 3
REMARK VINA RESULT: -7.879254224      0.554      1.410
REMARK  17 active torsions:
REMARK  status: ('A' for Active; 'I' for Inactive)
REMARK    1  A    between atoms: C2_2  and  C3_3 
REMARK    2  A    between atoms: C3_3  and  C4_4 
REMARK    3  A    between atoms: C4_4  and  C5_5 
REMARK    4  A    between atoms: C5_5  and  C6_6 
REMARK    5  A    between atoms: C6_6  and  C7_7 
REMARK    6  A    between atoms: C7_7  and  N1_8 
REMARK    7  A    between atoms: N2_12  and  N3_14 
REMARK    8  A    between atoms: C11_19  and  N5_20 
REMARK       I    between atoms: C12_22  and  N6_23 
REMARK       I    between atoms: C12_22  and  N7_26 
REMARK    9  A    between atoms: N7_26  and  C14_28 
REMARK   10  A    between atoms: C14_28  and  C15_29 
REMARK   11  A    between atoms: C15_29  and  C16_30 
REMARK   12  A    between atoms: C16_30  and  N8_31 
REMARK   13  A    between atoms: N8_31  and  C17_34 
REMARK   14  A    between atoms: C17_34  and  C18_35 
REMARK   15  A    between atoms: C18_35  and  C19_36 
REMARK   16  A    between atoms: C19_36  and  N9_37 
REMARK       I    between atoms: N9_37  and  C20_39 
REMARK       I    between atoms: C20_39  and  N11_43 
REMARK   17  A    between atoms: N11_43  and  C22_45 
ROOT
HETATM    1  N5  UNL     1     -44.763  20.440 -11.680  1.00  0.00    -0.199 N 
ATOM      2  H5  UNL     1     -45.553  20.737 -11.108  1.00  0.00     0.180 HD
HETATM    3  C12 UNL     1     -44.712  21.104 -12.736  1.00  0.00     0.675 C 
HETATM    4  N6  UNL     1     -45.725  22.098 -12.922  1.00  0.00    -0.231 N 
ATOM      5  H6  UNL     1     -45.881  22.511 -13.842  1.00  0.00     0.177 HD
HETATM    6  C13 UNL     1     -46.525  22.509 -11.791  1.00  0.00     0.165 C 
HETATM    7  N7  UNL     1     -43.750  20.904 -13.752  1.00  0.00    -0.203 N 
ATOM      8  H7  UNL     1     -43.947  20.103 -14.350  1.00  0.00     0.183 HD
ENDROOT
BRANCH   1   9
HETATM    9  C11 UNL     1     -44.057  19.406 -11.046  1.00  0.00     0.253 C 
HETATM   10  N1  UNL     1     -44.246  18.141 -11.622  1.00  0.00    -0.346 N 
HETATM   11  C8  UNL     1     -43.186  17.785 -12.479  1.00  0.00     0.071 C 
HETATM   12  C9  UNL     1     -42.019  18.696 -12.140  1.00  0.00     0.103 C 
HETATM   13  C10 UNL     1     -42.590  19.707 -11.214  1.00  0.00     0.052 C 
HETATM   14  N2  UNL     1     -41.943  20.653 -10.666  1.00  0.00    -0.291 N 
ATOM     15  H2  UNL     1     -42.427  21.298 -10.043  1.00  0.00     0.188 HD
BRANCH  10  16
HETATM   16  C7  UNL     1     -45.024  17.166 -11.012  1.00  0.00     0.065 C 
BRANCH  16  17
HETATM   17  C6  UNL     1     -45.041  17.006  -9.546  1.00  0.00     0.045 C 
BRANCH  17  18
HETATM   18  C5  UNL     1     -44.039  16.060  -8.963  1.00  0.00     0.005 C 
BRANCH  18  19
HETATM   19  C4  UNL     1     -42.713  16.767  -8.757  1.00  0.00     0.000 C 
BRANCH  19  20
HETATM   20  C3  UNL     1     -41.567  16.122  -9.472  1.00  0.00    -0.000 C 
BRANCH  20  21
HETATM   21  C2  UNL     1     -41.745  14.669  -9.762  1.00  0.00    -0.005 C 
HETATM   22  C1  UNL     1     -41.710  14.511 -11.283  1.00  0.00     0.005 C 
ENDBRANCH  20  21
ENDBRANCH  19  20
ENDBRANCH  18  19
ENDBRANCH  17  18
ENDBRANCH  16  17
ENDBRANCH  10  16
BRANCH  14  23
HETATM   23  N3  UNL     1     -40.577  20.821 -10.907  1.00  0.00    -0.249 N 
HETATM   24  N4  UNL     1     -40.177  21.731 -11.680  1.00  0.00    -0.331 N 
ATOM     25  H42 UNL     1     -40.866  22.338 -12.125  1.00  0.00     0.178 HD
ATOM     26  H41 UNL     1     -39.180  21.854 -11.856  1.00  0.00     0.178 HD
ATOM     27  H3  UNL     1     -39.902  20.205 -10.454  1.00  0.00     0.207 HD
ENDBRANCH  14  23
ENDBRANCH   1   9
BRANCH   7  28
HETATM   28  C14 UNL     1     -42.577  21.591 -14.101  1.00  0.00     0.103 C 
BRANCH  28  29
HETATM   29  C15 UNL     1     -42.396  23.027 -13.948  1.00  0.00     0.018 C 
BRANCH  29  30
HETATM   30  C16 UNL     1     -42.108  23.940 -15.062  1.00  0.00     0.261 C 
BRANCH  30  31
HETATM   31  N8  UNL     1     -43.144  24.921 -15.338  1.00  0.00    -0.072 N 
ATOM     32  H82 UNL     1     -43.959  24.500 -15.784  1.00  0.00     0.277 HD
ATOM     33  H81 UNL     1     -43.595  25.250 -14.484  1.00  0.00     0.277 HD
BRANCH  31  34
HETATM   34  C17 UNL     1     -42.600  26.015 -16.121  1.00  0.00     0.234 C 
BRANCH  34  35
HETATM   35  C18 UNL     1     -41.355  26.608 -15.563  1.00  0.00     0.048 C 
BRANCH  35  36
HETATM   36  C19 UNL     1     -40.910  27.741 -16.452  1.00  0.00     0.139 C 
BRANCH  36  37
HETATM   37  N9  UNL     1     -41.971  28.149 -17.320  1.00  0.00    -0.227 N 
HETATM   38  C20 UNL     1     -42.227  29.480 -17.702  1.00  0.00     0.669 C 
HETATM   39  N10 UNL     1     -42.814  30.283 -16.890  1.00  0.00    -0.231 N 
HETATM   40  N11 UNL     1     -41.867  30.020 -18.983  1.00  0.00    -0.227 N 
HETATM   41  C21 UNL     1     -43.112  31.670 -17.216  1.00  0.00     0.165 C 
ATOM     42  H10 UNL     1     -43.083  29.933 -15.971  1.00  0.00     0.177 HD
ATOM     43  H11 UNL     1     -41.054  30.629 -19.069  1.00  0.00     0.177 HD
ATOM     44  H9  UNL     1     -42.586  27.425 -17.689  1.00  0.00     0.177 HD
BRANCH  40  45
HETATM   45  C22 UNL     1     -42.656  29.699 -20.147  1.00  0.00     0.133 C 
HETATM   46  C23 UNL     1     -43.498  30.853 -20.599  1.00  0.00     0.027 C 
ENDBRANCH  40  45
ENDBRANCH  36  37
ENDBRANCH  35  36
ENDBRANCH  34  35
ENDBRANCH  31  34
ENDBRANCH  30  31
ENDBRANCH  29  30
ENDBRANCH  28  29
ENDBRANCH   7  28
TORSDOF 17
ENDMDL
MODEL 4
REMARK VINA RESULT: -7.703165867      2.626     11.967
REMARK  17 active torsions:
REMARK  status: ('A' for Active; 'I' for Inactive)
REMARK    1  A    between atoms: C2_2  and  C3_3 
REMARK    2  A    between atoms: C3_3  and  C4_4 
REMARK    3  A    between atoms: C4_4  and  C5_5 
REMARK    4  A    between atoms: C5_5  and  C6_6 
REMARK    5  A    between atoms: C6_6  and  C7_7 
REMARK    6  A    between atoms: C7_7  and  N1_8 
REMARK    7  A    between atoms: N2_12  and  N3_14 
REMARK    8  A    between atoms: C11_19  and  N5_20 
REMARK       I    between atoms: C12_22  and  N6_23 
REMARK       I    between atoms: C12_22  and  N7_26 
REMARK    9  A    between atoms: N7_26  and  C14_28 
REMARK   10  A    between atoms: C14_28  and  C15_29 
REMARK   11  A    between atoms: C15_29  and  C16_30 
REMARK   12  A    between atoms: C16_30  and  N8_31 
REMARK   13  A    between atoms: N8_31  and  C17_34 
REMARK   14  A    between atoms: C17_34  and  C18_35 
REMARK   15  A    between atoms: C18_35  and  C19_36 
REMARK   16  A    between atoms: C19_36  and  N9_37 
REMARK       I    between atoms: N9_37  and  C20_39 
REMARK       I    between atoms: C20_39  and  N11_43 
REMARK   17  A    between atoms: N11_43  and  C22_45 
ROOT
HETATM    1  N5  UNL     1     -43.750  30.029 -19.199  1.00  0.00    -0.199 N 
ATOM      2  H5  UNL     1     -44.157  30.486 -20.015  1.00  0.00     0.180 HD
HETATM    3  C12 UNL     1     -42.782  29.315 -19.534  1.00  0.00     0.675 C 
HETATM    4  N6  UNL     1     -42.457  29.282 -20.928  1.00  0.00    -0.231 N 
ATOM      5  H6  UNL     1     -41.840  28.558 -21.298  1.00  0.00     0.177 HD
HETATM    6  C13 UNL     1     -43.014  30.286 -21.805  1.00  0.00     0.165 C 
HETATM    7  N7  UNL     1     -42.031  28.524 -18.635  1.00  0.00    -0.203 N 
ATOM      8  H7  UNL     1     -42.492  27.653 -18.373  1.00  0.00     0.183 HD
ENDROOT
BRANCH   1   9
HETATM    9  C11 UNL     1     -44.445  30.389 -18.035  1.00  0.00     0.253 C 
HETATM   10  N1  UNL     1     -43.916  31.505 -17.370  1.00  0.00    -0.346 N 
HETATM   11  C8  UNL     1     -44.626  32.685 -17.666  1.00  0.00     0.071 C 
HETATM   12  C9  UNL     1     -45.964  32.261 -18.249  1.00  0.00     0.103 C 
HETATM   13  C10 UNL     1     -45.832  30.796 -18.458  1.00  0.00     0.052 C 
HETATM   14  N2  UNL     1     -46.741  30.033 -18.912  1.00  0.00    -0.291 N 
ATOM     15  H2  UNL     1     -46.553  29.037 -19.019  1.00  0.00     0.188 HD
BRANCH  10  16
HETATM   16  C7  UNL     1     -43.205  31.383 -16.183  1.00  0.00     0.065 C 
BRANCH  16  17
HETATM   17  C6  UNL     1     -43.664  30.488 -15.105  1.00  0.00     0.045 C 
BRANCH  17  18
HETATM   18  C5  UNL     1     -44.997  30.797 -14.498  1.00  0.00     0.005 C 
BRANCH  18  19
HETATM   19  C4  UNL     1     -44.883  30.854 -12.988  1.00  0.00     0.000 C 
BRANCH  19  20
HETATM   20  C3  UNL     1     -43.707  31.642 -12.500  1.00  0.00    -0.000 C 
BRANCH  20  21
HETATM   21  C2  UNL     1     -43.484  31.590 -11.025  1.00  0.00    -0.005 C 
HETATM   22  C1  UNL     1     -44.581  30.701 -10.440  1.00  0.00     0.005 C 
ENDBRANCH  20  21
ENDBRANCH  19  20
ENDBRANCH  18  19
ENDBRANCH  17  18
ENDBRANCH  16  17
ENDBRANCH  10  16
BRANCH  14  23
HETATM   23  N3  UNL     1     -47.993  30.541 -19.268  1.00  0.00    -0.249 N 
HETATM   24  N4  UNL     1     -48.984  30.369 -18.511  1.00  0.00    -0.331 N 
ATOM     25  H42 UNL     1     -48.856  29.856 -17.638  1.00  0.00     0.178 HD
ATOM     26  H41 UNL     1     -49.898  30.740 -18.770  1.00  0.00     0.178 HD
ATOM     27  H3  UNL     1     -48.104  31.051 -20.144  1.00  0.00     0.207 HD
ENDBRANCH  14  23
ENDBRANCH   1   9
BRANCH   7  28
HETATM   28  C14 UNL     1     -40.777  28.701 -18.029  1.00  0.00     0.103 C 
BRANCH  28  29
HETATM   29  C15 UNL     1     -40.543  28.608 -16.596  1.00  0.00     0.018 C 
BRANCH  29  30
HETATM   30  C16 UNL     1     -40.938  27.457 -15.774  1.00  0.00     0.261 C 
BRANCH  30  31
HETATM   31  N8  UNL     1     -40.363  26.185 -16.179  1.00  0.00    -0.072 N 
ATOM     32  H82 UNL     1     -40.724  25.873 -17.080  1.00  0.00     0.277 HD
ATOM     33  H81 UNL     1     -39.380  26.274 -16.435  1.00  0.00     0.277 HD
BRANCH  31  34
HETATM   34  C17 UNL     1     -40.566  25.192 -15.140  1.00  0.00     0.234 C 
BRANCH  34  35
HETATM   35  C18 UNL     1     -41.989  24.995 -14.752  1.00  0.00     0.048 C 
BRANCH  35  36
HETATM   36  C19 UNL     1     -42.381  23.567 -15.036  1.00  0.00     0.139 C 
BRANCH  36  37
HETATM   37  N9  UNL     1     -42.463  22.814 -13.822  1.00  0.00    -0.227 N 
HETATM   38  C20 UNL     1     -43.576  22.046 -13.429  1.00  0.00     0.669 C 
HETATM   39  N10 UNL     1     -44.617  22.619 -12.943  1.00  0.00    -0.231 N 
HETATM   40  N11 UNL     1     -43.628  20.615 -13.537  1.00  0.00    -0.227 N 
HETATM   41  C21 UNL     1     -45.801  21.890 -12.515  1.00  0.00     0.165 C 
ATOM     42  H10 UNL     1     -44.614  23.635 -12.852  1.00  0.00     0.177 HD
ATOM     43  H11 UNL     1     -44.163  20.179 -14.288  1.00  0.00     0.177 HD
ATOM     44  H9  UNL     1     -41.659  22.836 -13.197  1.00  0.00     0.177 HD
BRANCH  40  45
HETATM   45  C22 UNL     1     -42.923  19.795 -12.583  1.00  0.00     0.133 C 
HETATM   46  C23 UNL     1     -42.519  18.472 -13.157  1.00  0.00     0.027 C 
ENDBRANCH  40  45
ENDBRANCH  36  37
ENDBRANCH  35  36
ENDBRANCH  34  35
ENDBRANCH  31  34
ENDBRANCH  30  31
ENDBRANCH  29  30
ENDBRANCH  28  29
ENDBRANCH   7  28
TORSDOF 17
ENDMDL
MODEL 5
REMARK VINA RESULT: -7.615646664      2.963     12.954
REMARK  17 active torsions:
REMARK  status: ('A' for Active; 'I' for Inactive)
REMARK    1  A    between atoms: C2_2  and  C3_3 
REMARK    2  A    between atoms: C3_3  and  C4_4 
REMARK    3  A    between atoms: C4_4  and  C5_5 
REMARK    4  A    between atoms: C5_5  and  C6_6 
REMARK    5  A    between atoms: C6_6  and  C7_7 
REMARK    6  A    between atoms: C7_7  and  N1_8 
REMARK    7  A    between atoms: N2_12  and  N3_14 
REMARK    8  A    between atoms: C11_19  and  N5_20 
REMARK       I    between atoms: C12_22  and  N6_23 
REMARK       I    between atoms: C12_22  and  N7_26 
REMARK    9  A    between atoms: N7_26  and  C14_28 
REMARK   10  A    between atoms: C14_28  and  C15_29 
REMARK   11  A    between atoms: C15_29  and  C16_30 
REMARK   12  A    between atoms: C16_30  and  N8_31 
REMARK   13  A    between atoms: N8_31  and  C17_34 
REMARK   14  A    between atoms: C17_34  and  C18_35 
REMARK   15  A    between atoms: C18_35  and  C19_36 
REMARK   16  A    between atoms: C19_36  and  N9_37 
REMARK       I    between atoms: N9_37  and  C20_39 
REMARK       I    between atoms: C20_39  and  N11_43 
REMARK   17  A    between atoms: N11_43  and  C22_45 
ROOT
HETATM    1  N5  UNL     1     -44.583  30.800 -16.511  1.00  0.00    -0.199 N 
ATOM      2  H5  UNL     1     -45.423  31.256 -16.154  1.00  0.00     0.180 HD
HETATM    3  C12 UNL     1     -43.964  30.236 -15.585  1.00  0.00     0.675 C 
HETATM    4  N6  UNL     1     -44.529  30.342 -14.273  1.00  0.00    -0.231 N 
ATOM      5  H6  UNL     1     -43.972  30.109 -13.451  1.00  0.00     0.177 HD
HETATM    6  C13 UNL     1     -45.898  30.781 -14.130  1.00  0.00     0.165 C 
HETATM    7  N7  UNL     1     -42.741  29.547 -15.753  1.00  0.00    -0.203 N 
ATOM      8  H7  UNL     1     -41.932  30.163 -15.824  1.00  0.00     0.183 HD
ENDROOT
BRANCH   1   9
HETATM    9  C11 UNL     1     -44.468  30.993 -17.896  1.00  0.00     0.253 C 
HETATM   10  N1  UNL     1     -44.912  29.909 -18.668  1.00  0.00    -0.346 N 
HETATM   11  C8  UNL     1     -46.216  30.109 -19.163  1.00  0.00     0.071 C 
HETATM   12  C9  UNL     1     -46.508  31.596 -19.050  1.00  0.00     0.103 C 
HETATM   13  C10 UNL     1     -45.375  32.140 -18.258  1.00  0.00     0.052 C 
HETATM   14  N2  UNL     1     -45.213  33.361 -17.949  1.00  0.00    -0.291 N 
ATOM     15  H2  UNL     1     -44.399  33.637 -17.401  1.00  0.00     0.188 HD
BRANCH  10  16
HETATM   16  C7  UNL     1     -44.026  29.062 -19.322  1.00  0.00     0.065 C 
BRANCH  16  17
HETATM   17  C6  UNL     1     -42.979  29.592 -20.214  1.00  0.00     0.045 C 
BRANCH  17  18
HETATM   18  C5  UNL     1     -43.409  29.988 -21.592  1.00  0.00     0.005 C 
BRANCH  18  19
HETATM   19  C4  UNL     1     -43.586  31.492 -21.671  1.00  0.00     0.000 C 
BRANCH  19  20
HETATM   20  C3  UNL     1     -43.570  32.030 -23.068  1.00  0.00    -0.000 C 
BRANCH  20  21
HETATM   21  C2  UNL     1     -43.594  30.993 -24.141  1.00  0.00    -0.005 C 
HETATM   22  C1  UNL     1     -43.567  31.734 -25.477  1.00  0.00     0.005 C 
ENDBRANCH  20  21
ENDBRANCH  19  20
ENDBRANCH  18  19
ENDBRANCH  17  18
ENDBRANCH  16  17
ENDBRANCH  10  16
BRANCH  14  23
HETATM   23  N3  UNL     1     -46.133  34.332 -18.352  1.00  0.00    -0.249 N 
HETATM   24  N4  UNL     1     -46.090  35.490 -17.859  1.00  0.00    -0.331 N 
ATOM     25  H42 UNL     1     -45.373  35.703 -17.164  1.00  0.00     0.178 HD
ATOM     26  H41 UNL     1     -46.761  36.199 -18.152  1.00  0.00     0.178 HD
ATOM     27  H3  UNL     1     -46.843  34.102 -19.047  1.00  0.00     0.207 HD
ENDBRANCH  14  23
ENDBRANCH   1   9
BRANCH   7  28
HETATM   28  C14 UNL     1     -42.420  28.184 -15.842  1.00  0.00     0.103 C 
BRANCH  28  29
HETATM   29  C15 UNL     1     -41.072  27.652 -15.707  1.00  0.00     0.018 C 
BRANCH  29  30
HETATM   30  C16 UNL     1     -40.694  26.277 -16.057  1.00  0.00     0.261 C 
BRANCH  30  31
HETATM   31  N8  UNL     1     -41.256  25.247 -15.199  1.00  0.00    -0.072 N 
ATOM     32  H82 UNL     1     -41.804  25.643 -14.435  1.00  0.00     0.277 HD
ATOM     33  H81 UNL     1     -42.001  24.728 -15.663  1.00  0.00     0.277 HD
BRANCH  31  34
HETATM   34  C17 UNL     1     -40.205  24.371 -14.716  1.00  0.00     0.234 C 
BRANCH  34  35
HETATM   35  C18 UNL     1     -40.617  23.479 -13.599  1.00  0.00     0.048 C 
BRANCH  35  36
HETATM   36  C19 UNL     1     -42.092  23.656 -13.349  1.00  0.00     0.139 C 
BRANCH  36  37
HETATM   37  N9  UNL     1     -42.612  22.560 -12.590  1.00  0.00    -0.227 N 
HETATM   38  C20 UNL     1     -43.833  21.912 -12.851  1.00  0.00     0.669 C 
HETATM   39  N10 UNL     1     -44.942  22.456 -12.501  1.00  0.00    -0.231 N 
HETATM   40  N11 UNL     1     -43.929  20.636 -13.505  1.00  0.00    -0.227 N 
HETATM   41  C21 UNL     1     -46.241  21.844 -12.737  1.00  0.00     0.165 C 
ATOM     42  H10 UNL     1     -44.911  23.362 -12.034  1.00  0.00     0.177 HD
ATOM     43  H11 UNL     1     -44.211  20.584 -14.483  1.00  0.00     0.177 HD
ATOM     44  H9  UNL     1     -42.057  22.225 -11.803  1.00  0.00     0.177 HD
BRANCH  40  45
HETATM   45  C22 UNL     1     -43.624  19.429 -12.775  1.00  0.00     0.133 C 
HETATM   46  C23 UNL     1     -42.265  18.892 -13.106  1.00  0.00     0.027 C 
ENDBRANCH  40  45
ENDBRANCH  36  37
ENDBRANCH  35  36
ENDBRANCH  34  35
ENDBRANCH  31  34
ENDBRANCH  30  31
ENDBRANCH  29  30
ENDBRANCH  28  29
ENDBRANCH   7  28
TORSDOF 17
ENDMDL
