MODEL 1
REMARK VINA RESULT: -8.727947426      0.000      0.000
REMARK  18 active torsions:
REMARK  status: ('A' for Active; 'I' for Inactive)
REMARK    1  A    between atoms: C2_2  and  C3_3 
REMARK    2  A    between atoms: C3_3  and  C4_4 
REMARK    3  A    between atoms: C4_4  and  C5_5 
REMARK    4  A    between atoms: C5_5  and  C6_6 
REMARK    5  A    between atoms: C6_6  and  C7_7 
REMARK    6  A    between atoms: C7_7  and  N1_8 
REMARK       I    between atoms: N1_8  and  C8_10 
REMARK    7  A    between atoms: C8_10  and  C9_12 
REMARK    8  A    between atoms: C17_20  and  C18_21 
REMARK    9  A    between atoms: C18_21  and  N2_22 
REMARK   10  A    between atoms: C18_21  and  N3_26 
REMARK   11  A    between atoms: N3_26  and  C19_29 
REMARK   12  A    between atoms: C19_29  and  C20_30 
REMARK   13  A    between atoms: C20_30  and  C21_31 
REMARK   14  A    between atoms: C21_31  and  C22_32 
REMARK   15  A    between atoms: C22_32  and  N4_33 
REMARK       I    between atoms: N4_33  and  C23_35 
REMARK   16  A    between atoms: C23_35  and  C24_37 
REMARK   17  A    between atoms: C24_37  and  N5_38 
REMARK   18  A    between atoms: N5_38  and  N6_40 
ROOT
HETATM    1  C18 UNL     1     -41.157  28.509 -17.948  1.00  0.00     0.385 C 
ENDROOT
BRANCH   1   2
HETATM    2  C17 UNL     1     -41.868  29.797 -18.176  1.00  0.00     0.053 C 
HETATM    3  C12 UNL     1     -42.681  30.278 -17.028  1.00  0.00    -0.006 C 
HETATM    4  C11 UNL     1     -43.282  31.634 -17.398  1.00  0.00     0.011 C 
HETATM    5  C13 UNL     1     -43.976  29.494 -16.829  1.00  0.00     0.010 C 
HETATM    6  C10 UNL     1     -44.214  31.190 -18.542  1.00  0.00     0.003 C 
HETATM    7  C9  UNL     1     -43.286  31.042 -19.729  1.00  0.00     0.087 C 
HETATM    8  C14 UNL     1     -44.666  29.814 -18.164  1.00  0.00    -0.009 C 
HETATM    9  C16 UNL     1     -42.707  29.656 -19.431  1.00  0.00     0.007 C 
HETATM   10  C15 UNL     1     -43.969  28.872 -19.154  1.00  0.00     0.011 C 
BRANCH   7  11
HETATM   11  C8  UNL     1     -43.949  31.108 -21.034  1.00  0.00     0.222 C 
HETATM   12  N1  UNL     1     -43.287  30.606 -22.175  1.00  0.00    -0.361 N 
ATOM     13  H1  UNL     1     -42.358  30.204 -22.055  1.00  0.00     0.162 HD
HETATM   14  O1  UNL     1     -45.085  31.602 -21.140  1.00  0.00    -0.273 OA
BRANCH  12  15
HETATM   15  C7  UNL     1     -43.849  30.629 -23.493  1.00  0.00     0.122 C 
BRANCH  15  16
HETATM   16  C6  UNL     1     -43.462  31.866 -24.223  1.00  0.00     0.020 C 
BRANCH  16  17
HETATM   17  C5  UNL     1     -43.863  31.772 -25.667  1.00  0.00     0.002 C 
BRANCH  17  18
HETATM   18  C4  UNL     1     -42.676  31.525 -26.544  1.00  0.00     0.000 C 
BRANCH  18  19
HETATM   19  C3  UNL     1     -42.566  32.606 -27.572  1.00  0.00    -0.000 C 
BRANCH  19  20
HETATM   20  C2  UNL     1     -41.607  32.237 -28.690  1.00  0.00    -0.005 C 
HETATM   21  C1  UNL     1     -41.115  33.444 -29.431  1.00  0.00     0.005 C 
ENDBRANCH  19  20
ENDBRANCH  18  19
ENDBRANCH  17  18
ENDBRANCH  16  17
ENDBRANCH  15  16
ENDBRANCH  12  15
ENDBRANCH   7  11
ENDBRANCH   1   2
BRANCH   1  22
HETATM   22  N2  UNL     1     -39.789  28.653 -18.465  1.00  0.00    -0.050 N 
ATOM     23  H23 UNL     1     -39.579  27.997 -19.217  1.00  0.00     0.276 HD
ATOM     24  H22 UNL     1     -39.655  29.513 -18.997  1.00  0.00     0.276 HD
ATOM     25  H21 UNL     1     -39.147  28.570 -17.676  1.00  0.00     0.276 HD
ENDBRANCH   1  22
BRANCH   1  26
HETATM   26  N3  UNL     1     -41.152  28.057 -16.582  1.00  0.00    -0.046 N 
ATOM     27  H32 UNL     1     -40.224  28.149 -16.168  1.00  0.00     0.279 HD
ATOM     28  H31 UNL     1     -41.664  28.700 -15.979  1.00  0.00     0.279 HD
BRANCH  26  29
HETATM   29  C19 UNL     1     -41.653  26.702 -16.448  1.00  0.00     0.235 C 
BRANCH  29  30
HETATM   30  C20 UNL     1     -41.339  26.161 -15.073  1.00  0.00     0.029 C 
BRANCH  30  31
HETATM   31  C21 UNL     1     -40.207  25.158 -15.113  1.00  0.00     0.021 C 
BRANCH  31  32
HETATM   32  C22 UNL     1     -40.314  24.150 -13.997  1.00  0.00     0.122 C 
BRANCH  32  33
HETATM   33  N4  UNL     1     -41.193  23.054 -14.355  1.00  0.00    -0.360 N 
HETATM   34  C23 UNL     1     -42.307  22.683 -13.554  1.00  0.00     0.236 C 
HETATM   35  O2  UNL     1     -42.514  23.346 -12.501  1.00  0.00    -0.272 OA
ATOM     36  H4  UNL     1     -41.007  22.532 -15.211  1.00  0.00     0.162 HD
BRANCH  34  37
HETATM   37  C24 UNL     1     -43.146  21.555 -13.999  1.00  0.00     0.243 C 
BRANCH  37  38
HETATM   38  N5  UNL     1     -44.405  21.974 -14.529  1.00  0.00    -0.314 N 
ATOM     39  H5  UNL     1     -44.592  21.813 -15.518  1.00  0.00     0.182 HD
BRANCH  38  40
HETATM   40  N6  UNL     1     -45.398  22.596 -13.753  1.00  0.00    -0.253 N 
HETATM   41  N7  UNL     1     -45.495  22.478 -12.507  1.00  0.00    -0.331 N 
ATOM     42  H72 UNL     1     -44.801  21.890 -12.044  1.00  0.00     0.178 HD
ATOM     43  H71 UNL     1     -46.215  22.929 -11.944  1.00  0.00     0.178 HD
ATOM     44  H6  UNL     1     -46.083  23.180 -14.234  1.00  0.00     0.207 HD
ENDBRANCH  38  40
ENDBRANCH  37  38
ENDBRANCH  34  37
ENDBRANCH  32  33
ENDBRANCH  31  32
ENDBRANCH  30  31
ENDBRANCH  29  30
ENDBRANCH  26  29
ENDBRANCH   1  26
TORSDOF 18
ENDMDL
MODEL 2
REMARK VINA RESULT: -8.671707544      1.347      1.518
REMARK  18 active torsions:
REMARK  status: ('A' for Active; 'I' for Inactive)
REMARK    1  A    between atoms: C2_2  and  C3_3 
REMARK    2  A    between atoms: C3_3  and  C4_4 
REMARK    3  A    between atoms: C4_4  and  C5_5 
REMARK    4  A    between atoms: C5_5  and  C6_6 
REMARK    5  A    between atoms: C6_6  and  C7_7 
REMARK    6  A    between atoms: C7_7  and  N1_8 
REMARK       I    between atoms: N1_8  and  C8_10 
REMARK    7  A    between atoms: C8_10  and  C9_12 
REMARK    8  A    between atoms: C17_20  and  C18_21 
REMARK    9  A    between atoms: C18_21  and  N2_22 
REMARK   10  A    between atoms: C18_21  and  N3_26 
REMARK   11  A    between atoms: N3_26  and  C19_29 
REMARK   12  A    between atoms: C19_29  and  C20_30 
REMARK   13  A    between atoms: C20_30  and  C21_31 
REMARK   14  A    between atoms: C21_31  and  C22_32 
REMARK   15  A    between atoms: C22_32  and  N4_33 
REMARK       I    between atoms: N4_33  and  C23_35 
REMARK   16  A    between atoms: C23_35  and  C24_37 
REMARK   17  A    between atoms: C24_37  and  N5_38 
REMARK   18  A    between atoms: N5_38  and  N6_40 
ROOT
HETATM    1  C18 UNL     1     -40.998  28.491 -17.539  1.00  0.00     0.385 C 
ENDROOT
BRANCH   1   2
HETATM    2  C17 UNL     1     -41.742  29.702 -17.983  1.00  0.00     0.053 C 
HETATM    3  C12 UNL     1     -42.571  30.350 -16.932  1.00  0.00    -0.006 C 
HETATM    4  C11 UNL     1     -43.207  31.606 -17.528  1.00  0.00     0.011 C 
HETATM    5  C13 UNL     1     -43.845  29.577 -16.601  1.00  0.00     0.010 C 
HETATM    6  C10 UNL     1     -44.123  30.949 -18.578  1.00  0.00     0.003 C 
HETATM    7  C9  UNL     1     -43.187  30.626 -19.724  1.00  0.00     0.087 C 
HETATM    8  C14 UNL     1     -44.539  29.646 -17.970  1.00  0.00    -0.009 C 
HETATM    9  C16 UNL     1     -42.572  29.327 -19.194  1.00  0.00     0.007 C 
HETATM   10  C15 UNL     1     -43.815  28.568 -18.786  1.00  0.00     0.011 C 
BRANCH   7  11
HETATM   11  C8  UNL     1     -43.847  30.452 -21.020  1.00  0.00     0.222 C 
HETATM   12  N1  UNL     1     -43.173  29.770 -22.056  1.00  0.00    -0.361 N 
ATOM     13  H1  UNL     1     -42.237  29.412 -21.867  1.00  0.00     0.162 HD
HETATM   14  O1  UNL     1     -44.991  30.899 -21.210  1.00  0.00    -0.273 OA
BRANCH  12  15
HETATM   15  C7  UNL     1     -43.731  29.552 -23.358  1.00  0.00     0.122 C 
BRANCH  15  16
HETATM   16  C6  UNL     1     -42.980  30.303 -24.400  1.00  0.00     0.020 C 
BRANCH  16  17
HETATM   17  C5  UNL     1     -43.681  31.589 -24.729  1.00  0.00     0.002 C 
BRANCH  17  18
HETATM   18  C4  UNL     1     -43.868  31.740 -26.205  1.00  0.00     0.000 C 
BRANCH  18  19
HETATM   19  C3  UNL     1     -42.599  32.219 -26.835  1.00  0.00    -0.000 C 
BRANCH  19  20
HETATM   20  C2  UNL     1     -42.806  32.669 -28.271  1.00  0.00    -0.005 C 
HETATM   21  C1  UNL     1     -41.511  32.990 -28.954  1.00  0.00     0.005 C 
ENDBRANCH  19  20
ENDBRANCH  18  19
ENDBRANCH  17  18
ENDBRANCH  16  17
ENDBRANCH  15  16
ENDBRANCH  12  15
ENDBRANCH   7  11
ENDBRANCH   1   2
BRANCH   1  22
HETATM   22  N2  UNL     1     -39.872  28.291 -18.463  1.00  0.00    -0.050 N 
ATOM     23  H23 UNL     1     -39.510  29.167 -18.839  1.00  0.00     0.276 HD
ATOM     24  H22 UNL     1     -39.022  27.986 -17.991  1.00  0.00     0.276 HD
ATOM     25  H21 UNL     1     -40.177  27.643 -19.189  1.00  0.00     0.276 HD
ENDBRANCH   1  22
BRANCH   1  26
HETATM   26  N3  UNL     1     -40.549  28.525 -16.172  1.00  0.00    -0.046 N 
ATOM     27  H32 UNL     1     -39.558  28.756 -16.116  1.00  0.00     0.279 HD
ATOM     28  H31 UNL     1     -40.932  29.332 -15.679  1.00  0.00     0.279 HD
BRANCH  26  29
HETATM   29  C19 UNL     1     -40.841  27.293 -15.465  1.00  0.00     0.235 C 
BRANCH  29  30
HETATM   30  C20 UNL     1     -41.749  26.416 -16.296  1.00  0.00     0.029 C 
BRANCH  30  31
HETATM   31  C21 UNL     1     -42.519  25.438 -15.435  1.00  0.00     0.021 C 
BRANCH  31  32
HETATM   32  C22 UNL     1     -41.691  24.228 -15.087  1.00  0.00     0.122 C 
BRANCH  32  33
HETATM   33  N4  UNL     1     -42.525  23.067 -14.842  1.00  0.00    -0.360 N 
HETATM   34  C23 UNL     1     -42.893  22.661 -13.530  1.00  0.00     0.236 C 
HETATM   35  O2  UNL     1     -42.465  23.352 -12.565  1.00  0.00    -0.272 OA
ATOM     36  H4  UNL     1     -42.860  22.524 -15.637  1.00  0.00     0.162 HD
BRANCH  34  37
HETATM   37  C24 UNL     1     -43.745  21.468 -13.378  1.00  0.00     0.243 C 
BRANCH  37  38
HETATM   38  N5  UNL     1     -43.468  20.736 -12.183  1.00  0.00    -0.314 N 
ATOM     39  H5  UNL     1     -44.254  20.380 -11.640  1.00  0.00     0.182 HD
BRANCH  38  40
HETATM   40  N6  UNL     1     -42.166  20.483 -11.720  1.00  0.00    -0.253 N 
HETATM   41  N7  UNL     1     -41.729  20.861 -10.605  1.00  0.00    -0.331 N 
ATOM     42  H72 UNL     1     -42.373  21.384 -10.011  1.00  0.00     0.178 HD
ATOM     43  H71 UNL     1     -40.785  20.678 -10.268  1.00  0.00     0.178 HD
ATOM     44  H6  UNL     1     -41.536  19.959 -12.327  1.00  0.00     0.207 HD
ENDBRANCH  38  40
ENDBRANCH  37  38
ENDBRANCH  34  37
ENDBRANCH  32  33
ENDBRANCH  31  32
ENDBRANCH  30  31
ENDBRANCH  29  30
ENDBRANCH  26  29
ENDBRANCH   1  26
TORSDOF 18
ENDMDL
MODEL 3
REMARK VINA RESULT: -8.617347669      3.974      6.031
REMARK  18 active torsions:
REMARK  status: ('A' for Active; 'I' for Inactive)
REMARK    1  A    between atoms: C2_2  and  C3_3 
REMARK    2  A    between atoms: C3_3  and  C4_4 
REMARK    3  A    between atoms: C4_4  and  C5_5 
REMARK    4  A    between atoms: C5_5  and  C6_6 
REMARK    5  A    between atoms: C6_6  and  C7_7 
REMARK    6  A    between atoms: C7_7  and  N1_8 
REMARK       I    between atoms: N1_8  and  C8_10 
REMARK    7  A    between atoms: C8_10  and  C9_12 
REMARK    8  A    between atoms: C17_20  and  C18_21 
REMARK    9  A    between atoms: C18_21  and  N2_22 
REMARK   10  A    between atoms: C18_21  and  N3_26 
REMARK   11  A    between atoms: N3_26  and  C19_29 
REMARK   12  A    between atoms: C19_29  and  C20_30 
REMARK   13  A    between atoms: C20_30  and  C21_31 
REMARK   14  A    between atoms: C21_31  and  C22_32 
REMARK   15  A    between atoms: C22_32  and  N4_33 
REMARK       I    between atoms: N4_33  and  C23_35 
REMARK   16  A    between atoms: C23_35  and  C24_37 
REMARK   17  A    between atoms: C24_37  and  N5_38 
REMARK   18  A    between atoms: N5_38  and  N6_40 
ROOT
HETATM    1  C18 UNL     1     -42.144  25.517 -15.076  1.00  0.00     0.385 C 
ENDROOT
BRANCH   1   2
HETATM    2  C17 UNL     1     -41.732  26.290 -16.280  1.00  0.00     0.053 C 
HETATM    3  C12 UNL     1     -40.474  27.068 -16.127  1.00  0.00    -0.006 C 
HETATM    4  C11 UNL     1     -40.159  27.740 -17.463  1.00  0.00     0.011 C 
HETATM    5  C13 UNL     1     -40.634  28.319 -15.267  1.00  0.00     0.010 C 
HETATM    6  C10 UNL     1     -41.357  28.705 -17.547  1.00  0.00     0.003 C 
HETATM    7  C9  UNL     1     -42.497  27.828 -18.019  1.00  0.00     0.087 C 
HETATM    8  C14 UNL     1     -41.652  29.083 -16.129  1.00  0.00    -0.009 C 
HETATM    9  C16 UNL     1     -42.890  27.179 -16.688  1.00  0.00     0.007 C 
HETATM   10  C15 UNL     1     -42.982  28.395 -15.794  1.00  0.00     0.011 C 
BRANCH   7  11
HETATM   11  C8  UNL     1     -43.606  28.553 -18.644  1.00  0.00     0.222 C 
HETATM   12  N1  UNL     1     -43.428  29.901 -19.021  1.00  0.00    -0.361 N 
ATOM     13  H1  UNL     1     -42.521  30.334 -18.848  1.00  0.00     0.162 HD
HETATM   14  O1  UNL     1     -44.697  27.989 -18.842  1.00  0.00    -0.273 OA
BRANCH  12  15
HETATM   15  C7  UNL     1     -44.451  30.696 -19.633  1.00  0.00     0.122 C 
BRANCH  15  16
HETATM   16  C6  UNL     1     -45.077  31.622 -18.651  1.00  0.00     0.020 C 
BRANCH  16  17
HETATM   17  C5  UNL     1     -44.023  32.311 -17.834  1.00  0.00     0.002 C 
BRANCH  17  18
HETATM   18  C4  UNL     1     -44.088  31.889 -16.400  1.00  0.00     0.000 C 
BRANCH  18  19
HETATM   19  C3  UNL     1     -45.395  31.216 -16.124  1.00  0.00    -0.000 C 
BRANCH  19  20
HETATM   20  C2  UNL     1     -45.530  30.802 -14.669  1.00  0.00    -0.005 C 
HETATM   21  C1  UNL     1     -44.342  31.216 -13.852  1.00  0.00     0.005 C 
ENDBRANCH  19  20
ENDBRANCH  18  19
ENDBRANCH  17  18
ENDBRANCH  16  17
ENDBRANCH  15  16
ENDBRANCH  12  15
ENDBRANCH   7  11
ENDBRANCH   1   2
BRANCH   1  22
HETATM   22  N2  UNL     1     -43.184  24.564 -15.488  1.00  0.00    -0.050 N 
ATOM     23  H23 UNL     1     -43.810  24.944 -16.198  1.00  0.00     0.276 HD
ATOM     24  H22 UNL     1     -42.815  23.787 -16.036  1.00  0.00     0.276 HD
ATOM     25  H21 UNL     1     -43.677  24.258 -14.648  1.00  0.00     0.276 HD
ENDBRANCH   1  22
BRANCH   1  26
HETATM   26  N3  UNL     1     -41.070  24.851 -14.390  1.00  0.00    -0.046 N 
ATOM     27  H32 UNL     1     -40.225  25.422 -14.386  1.00  0.00     0.279 HD
ATOM     28  H31 UNL     1     -41.243  24.810 -13.386  1.00  0.00     0.279 HD
BRANCH  26  29
HETATM   29  C19 UNL     1     -40.807  23.530 -14.929  1.00  0.00     0.235 C 
BRANCH  29  30
HETATM   30  C20 UNL     1     -40.169  22.653 -13.878  1.00  0.00     0.029 C 
BRANCH  30  31
HETATM   31  C21 UNL     1     -41.080  22.456 -12.687  1.00  0.00     0.021 C 
BRANCH  31  32
HETATM   32  C22 UNL     1     -41.891  21.191 -12.806  1.00  0.00     0.122 C 
BRANCH  32  33
HETATM   33  N4  UNL     1     -43.257  21.392 -12.361  1.00  0.00    -0.360 N 
HETATM   34  C23 UNL     1     -44.293  21.792 -13.247  1.00  0.00     0.236 C 
HETATM   35  O2  UNL     1     -43.986  21.972 -14.458  1.00  0.00    -0.272 OA
ATOM     36  H4  UNL     1     -43.481  21.241 -11.378  1.00  0.00     0.162 HD
BRANCH  34  37
HETATM   37  C24 UNL     1     -45.651  21.972 -12.704  1.00  0.00     0.243 C 
BRANCH  37  38
HETATM   38  N5  UNL     1     -46.493  20.839 -12.927  1.00  0.00    -0.314 N 
ATOM     39  H5  UNL     1     -47.441  20.999 -13.265  1.00  0.00     0.182 HD
BRANCH  38  40
HETATM   40  N6  UNL     1     -46.078  19.515 -12.702  1.00  0.00    -0.253 N 
HETATM   41  N7  UNL     1     -45.924  19.009 -11.563  1.00  0.00    -0.331 N 
ATOM     42  H72 UNL     1     -46.117  19.611 -10.762  1.00  0.00     0.178 HD
ATOM     43  H71 UNL     1     -45.623  18.049 -11.400  1.00  0.00     0.178 HD
ATOM     44  H6  UNL     1     -45.890  18.929 -13.515  1.00  0.00     0.207 HD
ENDBRANCH  38  40
ENDBRANCH  37  38
ENDBRANCH  34  37
ENDBRANCH  32  33
ENDBRANCH  31  32
ENDBRANCH  30  31
ENDBRANCH  29  30
ENDBRANCH  26  29
ENDBRANCH   1  26
TORSDOF 18
ENDMDL
MODEL 4
REMARK VINA RESULT: -8.501745228      4.024      6.130
REMARK  18 active torsions:
REMARK  status: ('A' for Active; 'I' for Inactive)
REMARK    1  A    between atoms: C2_2  and  C3_3 
REMARK    2  A    between atoms: C3_3  and  C4_4 
REMARK    3  A    between atoms: C4_4  and  C5_5 
REMARK    4  A    between atoms: C5_5  and  C6_6 
REMARK    5  A    between atoms: C6_6  and  C7_7 
REMARK    6  A    between atoms: C7_7  and  N1_8 
REMARK       I    between atoms: N1_8  and  C8_10 
REMARK    7  A    between atoms: C8_10  and  C9_12 
REMARK    8  A    between atoms: C17_20  and  C18_21 
REMARK    9  A    between atoms: C18_21  and  N2_22 
REMARK   10  A    between atoms: C18_21  and  N3_26 
REMARK   11  A    between atoms: N3_26  and  C19_29 
REMARK   12  A    between atoms: C19_29  and  C20_30 
REMARK   13  A    between atoms: C20_30  and  C21_31 
REMARK   14  A    between atoms: C21_31  and  C22_32 
REMARK   15  A    between atoms: C22_32  and  N4_33 
REMARK       I    between atoms: N4_33  and  C23_35 
REMARK   16  A    between atoms: C23_35  and  C24_37 
REMARK   17  A    between atoms: C24_37  and  N5_38 
REMARK   18  A    between atoms: N5_38  and  N6_40 
ROOT
HETATM    1  C18 UNL     1     -42.235  25.421 -15.103  1.00  0.00     0.385 C 
ENDROOT
BRANCH   1   2
HETATM    2  C17 UNL     1     -41.826  26.193 -16.309  1.00  0.00     0.053 C 
HETATM    3  C12 UNL     1     -40.517  26.889 -16.196  1.00  0.00    -0.006 C 
HETATM    4  C11 UNL     1     -40.217  27.570 -17.531  1.00  0.00     0.011 C 
HETATM    5  C13 UNL     1     -40.563  28.129 -15.306  1.00  0.00     0.010 C 
HETATM    6  C10 UNL     1     -41.355  28.608 -17.544  1.00  0.00     0.003 C 
HETATM    7  C9  UNL     1     -42.566  27.813 -17.984  1.00  0.00     0.087 C 
HETATM    8  C14 UNL     1     -41.566  28.972 -16.108  1.00  0.00    -0.009 C 
HETATM    9  C16 UNL     1     -42.943  27.161 -16.650  1.00  0.00     0.007 C 
HETATM   10  C15 UNL     1     -42.921  28.360 -15.729  1.00  0.00     0.011 C 
BRANCH   7  11
HETATM   11  C8  UNL     1     -43.653  28.618 -18.546  1.00  0.00     0.222 C 
HETATM   12  N1  UNL     1     -43.402  29.955 -18.924  1.00  0.00    -0.361 N 
ATOM     13  H1  UNL     1     -42.460  30.323 -18.795  1.00  0.00     0.162 HD
HETATM   14  O1  UNL     1     -44.788  28.132 -18.691  1.00  0.00    -0.273 OA
BRANCH  12  15
HETATM   15  C7  UNL     1     -44.398  30.823 -19.478  1.00  0.00     0.122 C 
BRANCH  15  16
HETATM   16  C6  UNL     1     -44.930  31.760 -18.452  1.00  0.00     0.020 C 
BRANCH  16  17
HETATM   17  C5  UNL     1     -43.819  32.270 -17.580  1.00  0.00     0.002 C 
BRANCH  17  18
HETATM   18  C4  UNL     1     -44.014  31.854 -16.157  1.00  0.00     0.000 C 
BRANCH  18  19
HETATM   19  C3  UNL     1     -45.345  31.191 -15.995  1.00  0.00    -0.000 C 
BRANCH  19  20
HETATM   20  C2  UNL     1     -45.587  30.733 -14.567  1.00  0.00    -0.005 C 
HETATM   21  C1  UNL     1     -44.402  30.986 -13.685  1.00  0.00     0.005 C 
ENDBRANCH  19  20
ENDBRANCH  18  19
ENDBRANCH  17  18
ENDBRANCH  16  17
ENDBRANCH  15  16
ENDBRANCH  12  15
ENDBRANCH   7  11
ENDBRANCH   1   2
BRANCH   1  22
HETATM   22  N2  UNL     1     -43.183  24.384 -15.534  1.00  0.00    -0.050 N 
ATOM     23  H23 UNL     1     -44.127  24.743 -15.670  1.00  0.00     0.276 HD
ATOM     24  H22 UNL     1     -43.019  24.071 -16.491  1.00  0.00     0.276 HD
ATOM     25  H21 UNL     1     -43.141  23.623 -14.856  1.00  0.00     0.276 HD
ENDBRANCH   1  22
BRANCH   1  26
HETATM   26  N3  UNL     1     -41.147  24.853 -14.353  1.00  0.00    -0.046 N 
ATOM     27  H32 UNL     1     -40.248  25.080 -14.779  1.00  0.00     0.279 HD
ATOM     28  H31 UNL     1     -41.028  25.329 -13.459  1.00  0.00     0.279 HD
BRANCH  26  29
HETATM   29  C19 UNL     1     -41.293  23.422 -14.170  1.00  0.00     0.235 C 
BRANCH  29  30
HETATM   30  C20 UNL     1     -40.397  22.944 -13.051  1.00  0.00     0.029 C 
BRANCH  30  31
HETATM   31  C21 UNL     1     -40.377  21.434 -12.958  1.00  0.00     0.021 C 
BRANCH  31  32
HETATM   32  C22 UNL     1     -41.101  20.940 -11.732  1.00  0.00     0.122 C 
BRANCH  32  33
HETATM   33  N4  UNL     1     -42.066  19.910 -12.066  1.00  0.00    -0.360 N 
HETATM   34  C23 UNL     1     -43.422  20.210 -12.368  1.00  0.00     0.236 C 
HETATM   35  O2  UNL     1     -43.771  21.422 -12.338  1.00  0.00    -0.272 OA
ATOM     36  H4  UNL     1     -41.762  18.937 -12.084  1.00  0.00     0.162 HD
BRANCH  34  37
HETATM   37  C24 UNL     1     -44.331  19.097 -12.696  1.00  0.00     0.243 C 
BRANCH  37  38
HETATM   38  N5  UNL     1     -45.705  19.416 -12.470  1.00  0.00    -0.314 N 
ATOM     39  H5  UNL     1     -46.234  18.842 -11.814  1.00  0.00     0.182 HD
BRANCH  38  40
HETATM   40  N6  UNL     1     -46.362  20.483 -13.106  1.00  0.00    -0.253 N 
HETATM   41  N7  UNL     1     -46.775  21.510 -12.513  1.00  0.00    -0.331 N 
ATOM     42  H72 UNL     1     -46.615  21.557 -11.507  1.00  0.00     0.178 HD
ATOM     43  H71 UNL     1     -47.252  22.284 -12.975  1.00  0.00     0.178 HD
ATOM     44  H6  UNL     1     -46.514  20.418 -14.113  1.00  0.00     0.207 HD
ENDBRANCH  38  40
ENDBRANCH  37  38
ENDBRANCH  34  37
ENDBRANCH  32  33
ENDBRANCH  31  32
ENDBRANCH  30  31
ENDBRANCH  29  30
ENDBRANCH  26  29
ENDBRANCH   1  26
TORSDOF 18
ENDMDL
MODEL 5
REMARK VINA RESULT: -8.413591927      1.973      2.622
REMARK  18 active torsions:
REMARK  status: ('A' for Active; 'I' for Inactive)
REMARK    1  A    between atoms: C2_2  and  C3_3 
REMARK    2  A    between atoms: C3_3  and  C4_4 
REMARK    3  A    between atoms: C4_4  and  C5_5 
REMARK    4  A    between atoms: C5_5  and  C6_6 
REMARK    5  A    between atoms: C6_6  and  C7_7 
REMARK    6  A    between atoms: C7_7  and  N1_8 
REMARK       I    between atoms: N1_8  and  C8_10 
REMARK    7  A    between atoms: C8_10  and  C9_12 
REMARK    8  A    between atoms: C17_20  and  C18_21 
REMARK    9  A    between atoms: C18_21  and  N2_22 
REMARK   10  A    between atoms: C18_21  and  N3_26 
REMARK   11  A    between atoms: N3_26  and  C19_29 
REMARK   12  A    between atoms: C19_29  and  C20_30 
REMARK   13  A    between atoms: C20_30  and  C21_31 
REMARK   14  A    between atoms: C21_31  and  C22_32 
REMARK   15  A    between atoms: C22_32  and  N4_33 
REMARK       I    between atoms: N4_33  and  C23_35 
REMARK   16  A    between atoms: C23_35  and  C24_37 
REMARK   17  A    between atoms: C24_37  and  N5_38 
REMARK   18  A    between atoms: N5_38  and  N6_40 
ROOT
HETATM    1  C18 UNL     1     -40.997  28.528 -17.452  1.00  0.00     0.385 C 
ENDROOT
BRANCH   1   2
HETATM    2  C17 UNL     1     -41.738  29.793 -17.713  1.00  0.00     0.053 C 
HETATM    3  C12 UNL     1     -42.704  30.185 -16.653  1.00  0.00    -0.006 C 
HETATM    4  C11 UNL     1     -43.322  31.529 -17.039  1.00  0.00     0.011 C 
HETATM    5  C13 UNL     1     -43.974  29.338 -16.644  1.00  0.00     0.010 C 
HETATM    6  C10 UNL     1     -44.089  31.098 -18.304  1.00  0.00     0.003 C 
HETATM    7  C9  UNL     1     -43.020  31.044 -19.375  1.00  0.00     0.087 C 
HETATM    8  C14 UNL     1     -44.515  29.688 -18.039  1.00  0.00    -0.009 C 
HETATM    9  C16 UNL     1     -42.413  29.673 -19.065  1.00  0.00     0.007 C 
HETATM   10  C15 UNL     1     -43.660  28.823 -18.975  1.00  0.00     0.011 C 
BRANCH   7  11
HETATM   11  C8  UNL     1     -43.526  31.142 -20.747  1.00  0.00     0.222 C 
HETATM   12  N1  UNL     1     -42.717  30.702 -21.817  1.00  0.00    -0.361 N 
ATOM     13  H1  UNL     1     -41.796  30.322 -21.600  1.00  0.00     0.162 HD
HETATM   14  O1  UNL     1     -44.656  31.607 -20.971  1.00  0.00    -0.273 OA
BRANCH  12  15
HETATM   15  C7  UNL     1     -43.119  30.759 -23.192  1.00  0.00     0.122 C 
BRANCH  15  16
HETATM   16  C6  UNL     1     -43.294  29.395 -23.760  1.00  0.00     0.020 C 
BRANCH  16  17
HETATM   17  C5  UNL     1     -42.448  29.225 -24.989  1.00  0.00     0.002 C 
BRANCH  17  18
HETATM   18  C4  UNL     1     -43.292  29.136 -26.220  1.00  0.00     0.000 C 
BRANCH  18  19
HETATM   19  C3  UNL     1     -43.488  27.704 -26.604  1.00  0.00    -0.000 C 
BRANCH  19  20
HETATM   20  C2  UNL     1     -44.955  27.311 -26.625  1.00  0.00    -0.005 C 
HETATM   21  C1  UNL     1     -45.849  28.450 -26.238  1.00  0.00     0.005 C 
ENDBRANCH  19  20
ENDBRANCH  18  19
ENDBRANCH  17  18
ENDBRANCH  16  17
ENDBRANCH  15  16
ENDBRANCH  12  15
ENDBRANCH   7  11
ENDBRANCH   1   2
BRANCH   1  22
HETATM   22  N2  UNL     1     -39.910  28.433 -18.436  1.00  0.00    -0.050 N 
ATOM     23  H23 UNL     1     -39.456  27.519 -18.438  1.00  0.00     0.276 HD
ATOM     24  H22 UNL     1     -40.247  28.417 -19.399  1.00  0.00     0.276 HD
ATOM     25  H21 UNL     1     -39.259  29.198 -18.256  1.00  0.00     0.276 HD
ENDBRANCH   1  22
BRANCH   1  26
HETATM   26  N3  UNL     1     -40.499  28.387 -16.110  1.00  0.00    -0.046 N 
ATOM     27  H32 UNL     1     -39.535  28.714 -16.039  1.00  0.00     0.279 HD
ATOM     28  H31 UNL     1     -40.943  29.053 -15.480  1.00  0.00     0.279 HD
BRANCH  26  29
HETATM   29  C19 UNL     1     -40.629  27.030 -15.614  1.00  0.00     0.235 C 
BRANCH  29  30
HETATM   30  C20 UNL     1     -41.861  26.376 -16.196  1.00  0.00     0.029 C 
BRANCH  30  31
HETATM   31  C21 UNL     1     -42.310  25.194 -15.365  1.00  0.00     0.021 C 
BRANCH  31  32
HETATM   32  C22 UNL     1     -41.139  24.412 -14.827  1.00  0.00     0.122 C 
BRANCH  32  33
HETATM   33  N4  UNL     1     -41.494  23.028 -14.580  1.00  0.00    -0.360 N 
HETATM   34  C23 UNL     1     -41.988  22.585 -13.323  1.00  0.00     0.236 C 
HETATM   35  O2  UNL     1     -42.110  23.446 -12.408  1.00  0.00    -0.272 OA
ATOM     36  H4  UNL     1     -41.387  22.349 -15.333  1.00  0.00     0.162 HD
BRANCH  34  37
HETATM   37  C24 UNL     1     -42.323  21.158 -13.164  1.00  0.00     0.243 C 
BRANCH  37  38
HETATM   38  N5  UNL     1     -42.681  20.817 -11.824  1.00  0.00    -0.314 N 
ATOM     39  H5  UNL     1     -43.662  20.631 -11.616  1.00  0.00     0.182 HD
BRANCH  38  40
HETATM   40  N6  UNL     1     -41.748  20.726 -10.778  1.00  0.00    -0.253 N 
HETATM   41  N7  UNL     1     -40.518  20.940 -10.911  1.00  0.00    -0.331 N 
ATOM     42  H72 UNL     1     -40.192  21.195 -11.844  1.00  0.00     0.178 HD
ATOM     43  H71 UNL     1     -39.840  20.874 -10.152  1.00  0.00     0.178 HD
ATOM     44  H6  UNL     1     -42.091  20.470  -9.852  1.00  0.00     0.207 HD
ENDBRANCH  38  40
ENDBRANCH  37  38
ENDBRANCH  34  37
ENDBRANCH  32  33
ENDBRANCH  31  32
ENDBRANCH  30  31
ENDBRANCH  29  30
ENDBRANCH  26  29
ENDBRANCH   1  26
TORSDOF 18
ENDMDL
