MODEL 1
REMARK VINA RESULT: -7.587374021      0.000      0.000
REMARK  18 active torsions:
REMARK  status: ('A' for Active; 'I' for Inactive)
REMARK    1  A    between atoms: N1_2  and  C4_5 
REMARK    2  A    between atoms: C4_5  and  C5_6 
REMARK    3  A    between atoms: C5_6  and  C6_7 
REMARK    4  A    between atoms: C6_7  and  C7_8 
REMARK    5  A    between atoms: C7_8  and  C8_9 
REMARK    6  A    between atoms: C8_9  and  N2_10 
REMARK    7  A    between atoms: N3_13  and  C11_14 
REMARK    8  A    between atoms: C11_14  and  C12_15 
REMARK    9  A    between atoms: C12_15  and  C13_16 
REMARK   10  A    between atoms: C13_16  and  C14_17 
REMARK   11  A    between atoms: C14_17  and  N4_18 
REMARK       I    between atoms: N4_18  and  C15_20 
REMARK       I    between atoms: C15_20  and  N5_22 
REMARK   12  A    between atoms: N5_22  and  C16_24 
REMARK   13  A    between atoms: C16_24  and  C17_25 
REMARK   14  A    between atoms: C17_25  and  C18_26 
REMARK   15  A    between atoms: C18_26  and  N6_27 
REMARK   16  A    between atoms: N6_27  and  C19_29 
REMARK   17  A    between atoms: C19_29  and  C20_30 
REMARK   18  A    between atoms: C23_37  and  O2_38 
ROOT
HETATM    1  C12 UNL     1      26.526   3.512  14.114  1.00  0.00     0.030 C 
ENDROOT
BRANCH   1   2
HETATM    2  C11 UNL     1      25.352   3.462  15.030  1.00  0.00     0.243 C 
BRANCH   2   3
HETATM    3  N3  UNL     1      24.116   3.520  14.331  1.00  0.00    -0.011 N 
HETATM    4  C10 UNL     1      24.028   4.515  13.300  1.00  0.00     0.270 C 
HETATM    5  C9  UNL     1      22.843   4.005  12.466  1.00  0.00     0.270 C 
HETATM    6  N2  UNL     1      22.474   2.767  13.082  1.00  0.00    -0.011 N 
HETATM    7  C22 UNL     1      21.814   3.046  14.315  1.00  0.00     0.270 C 
HETATM    8  C23 UNL     1      23.786   2.308  13.581  1.00  0.00     0.531 C 
HETATM    9  C21 UNL     1      22.947   3.617  15.176  1.00  0.00     0.270 C 
BRANCH   6  10
HETATM   10  C8  UNL     1      21.858   1.802  12.246  1.00  0.00     0.243 C 
BRANCH  10  11
HETATM   11  C7  UNL     1      21.453   2.337  10.912  1.00  0.00     0.028 C 
BRANCH  11  12
HETATM   12  C6  UNL     1      20.080   1.776  10.581  1.00  0.00     0.003 C 
BRANCH  12  13
HETATM   13  C5  UNL     1      19.552   0.860  11.662  1.00  0.00     0.028 C 
BRANCH  13  14
HETATM   14  C4  UNL     1      18.084   0.586  11.501  1.00  0.00     0.236 C 
BRANCH  14  15
HETATM   15  N1  UNL     1      17.306   0.907  12.653  1.00  0.00    -0.079 N 
HETATM   16  C1  UNL     1      17.965   1.748  13.604  1.00  0.00     0.271 C 
HETATM   17  C2  UNL     1      16.809  -0.261  13.354  1.00  0.00     0.271 C 
HETATM   18  C3  UNL     1      16.124   1.642  12.179  1.00  0.00     0.271 C 
ENDBRANCH  14  15
ENDBRANCH  13  14
ENDBRANCH  12  13
ENDBRANCH  11  12
ENDBRANCH  10  11
ENDBRANCH   6  10
BRANCH   8  19
HETATM   19  O2  UNL     1      23.624   1.208  14.419  1.00  0.00    -0.348 OA
ATOM     20  H2  UNL     1      24.042   0.443  14.042  1.00  0.00     0.214 HD
ENDBRANCH   8  19
ENDBRANCH   2   3
ENDBRANCH   1   2
BRANCH   1  21
HETATM   21  C13 UNL     1      27.724   2.800  14.761  1.00  0.00     0.021 C 
BRANCH  21  22
HETATM   22  C14 UNL     1      28.983   3.588  14.528  1.00  0.00     0.124 C 
BRANCH  22  23
HETATM   23  N4  UNL     1      29.469   4.314  15.651  1.00  0.00    -0.343 N 
HETATM   24  C15 UNL     1      29.175   5.687  15.824  1.00  0.00     0.316 C 
HETATM   25  O1  UNL     1      28.478   6.350  15.016  1.00  0.00    -0.247 OA
HETATM   26  N5  UNL     1      29.682   6.391  16.969  1.00  0.00    -0.343 N 
ATOM     27  H5  UNL     1      30.261   5.891  17.645  1.00  0.00     0.164 HD
ATOM     28  H4  UNL     1      30.042   3.835  16.346  1.00  0.00     0.164 HD
BRANCH  26  29
HETATM   29  C16 UNL     1      29.396   7.780  17.185  1.00  0.00     0.129 C 
BRANCH  29  30
HETATM   30  C17 UNL     1      30.726   8.549  17.358  1.00  0.00     0.064 C 
BRANCH  30  31
HETATM   31  C18 UNL     1      31.834   7.565  17.486  1.00  0.00     0.062 C 
BRANCH  31  32
HETATM   32  N6  UNL     1      32.922   7.774  16.633  1.00  0.00    -0.376 N 
ATOM     33  H6  UNL     1      33.869   7.518  16.914  1.00  0.00     0.164 HD
BRANCH  32  34
HETATM   34  C19 UNL     1      32.671   8.344  15.391  1.00  0.00     0.132 C 
BRANCH  34  35
HETATM   35  C20 UNL     1      32.200   7.482  14.285  1.00  0.00     0.125 C 
HETATM   36  N7  UNL     1      32.695   6.338  14.132  1.00  0.00    -0.387 N 
ATOM     37  H72 UNL     1      33.393   6.004  14.796  1.00  0.00     0.157 HD
ATOM     38  H71 UNL     1      32.370   5.744  13.370  1.00  0.00     0.157 HD
HETATM   39  N8  UNL     1      31.219   7.951  13.353  1.00  0.00    -0.082 NA
ENDBRANCH  34  35
ENDBRANCH  32  34
ENDBRANCH  31  32
ENDBRANCH  30  31
ENDBRANCH  29  30
ENDBRANCH  26  29
ENDBRANCH  22  23
ENDBRANCH  21  22
ENDBRANCH   1  21
TORSDOF 18
ENDMDL
MODEL 2
REMARK VINA RESULT: -7.554157176      1.564      2.589
REMARK  18 active torsions:
REMARK  status: ('A' for Active; 'I' for Inactive)
REMARK    1  A    between atoms: N1_2  and  C4_5 
REMARK    2  A    between atoms: C4_5  and  C5_6 
REMARK    3  A    between atoms: C5_6  and  C6_7 
REMARK    4  A    between atoms: C6_7  and  C7_8 
REMARK    5  A    between atoms: C7_8  and  C8_9 
REMARK    6  A    between atoms: C8_9  and  N2_10 
REMARK    7  A    between atoms: N3_13  and  C11_14 
REMARK    8  A    between atoms: C11_14  and  C12_15 
REMARK    9  A    between atoms: C12_15  and  C13_16 
REMARK   10  A    between atoms: C13_16  and  C14_17 
REMARK   11  A    between atoms: C14_17  and  N4_18 
REMARK       I    between atoms: N4_18  and  C15_20 
REMARK       I    between atoms: C15_20  and  N5_22 
REMARK   12  A    between atoms: N5_22  and  C16_24 
REMARK   13  A    between atoms: C16_24  and  C17_25 
REMARK   14  A    between atoms: C17_25  and  C18_26 
REMARK   15  A    between atoms: C18_26  and  N6_27 
REMARK   16  A    between atoms: N6_27  and  C19_29 
REMARK   17  A    between atoms: C19_29  and  C20_30 
REMARK   18  A    between atoms: C23_37  and  O2_38 
ROOT
HETATM    1  C12 UNL     1      27.751   2.816  14.743  1.00  0.00     0.030 C 
ENDROOT
BRANCH   1   2
HETATM    2  C11 UNL     1      26.760   3.042  13.653  1.00  0.00     0.243 C 
BRANCH   2   3
HETATM    3  N3  UNL     1      25.420   2.874  14.096  1.00  0.00    -0.011 N 
HETATM    4  C10 UNL     1      25.242   2.747  15.514  1.00  0.00     0.270 C 
HETATM    5  C9  UNL     1      23.750   3.074  15.679  1.00  0.00     0.270 C 
HETATM    6  N2  UNL     1      23.308   3.413  14.361  1.00  0.00    -0.011 N 
HETATM    7  C22 UNL     1      23.222   2.221  13.584  1.00  0.00     0.270 C 
HETATM    8  C23 UNL     1      24.540   4.007  13.803  1.00  0.00     0.531 C 
HETATM    9  C21 UNL     1      24.692   1.814  13.435  1.00  0.00     0.270 C 
BRANCH   6  10
HETATM   10  C8  UNL     1      22.205   4.300  14.272  1.00  0.00     0.243 C 
BRANCH  10  11
HETATM   11  C7  UNL     1      21.341   4.306  15.490  1.00  0.00     0.028 C 
BRANCH  11  12
HETATM   12  C6  UNL     1      19.970   3.784  15.092  1.00  0.00     0.003 C 
BRANCH  12  13
HETATM   13  C5  UNL     1      19.796   3.697  13.593  1.00  0.00     0.028 C 
BRANCH  13  14
HETATM   14  C4  UNL     1      19.314   2.341  13.160  1.00  0.00     0.236 C 
BRANCH  14  15
HETATM   15  N1  UNL     1      19.228   2.184  11.745  1.00  0.00    -0.079 N 
HETATM   16  C1  UNL     1      18.992   0.843  11.306  1.00  0.00     0.271 C 
HETATM   17  C2  UNL     1      20.388   2.691  11.038  1.00  0.00     0.271 C 
HETATM   18  C3  UNL     1      18.082   2.988  11.295  1.00  0.00     0.271 C 
ENDBRANCH  14  15
ENDBRANCH  13  14
ENDBRANCH  12  13
ENDBRANCH  11  12
ENDBRANCH  10  11
ENDBRANCH   6  10
BRANCH   8  19
HETATM   19  O2  UNL     1      24.397   4.211  12.433  1.00  0.00    -0.348 OA
ATOM     20  H2  UNL     1      25.231   4.456  12.049  1.00  0.00     0.214 HD
ENDBRANCH   8  19
ENDBRANCH   2   3
ENDBRANCH   1   2
BRANCH   1  21
HETATM   21  C13 UNL     1      28.816   3.924  14.718  1.00  0.00     0.021 C 
BRANCH  21  22
HETATM   22  C14 UNL     1      28.170   5.259  14.473  1.00  0.00     0.124 C 
BRANCH  22  23
HETATM   23  N4  UNL     1      29.027   6.388  14.600  1.00  0.00    -0.343 N 
HETATM   24  C15 UNL     1      29.396   6.893  15.870  1.00  0.00     0.316 C 
HETATM   25  O1  UNL     1      29.003   6.391  16.952  1.00  0.00    -0.247 OA
HETATM   26  N5  UNL     1      30.263   8.035  15.963  1.00  0.00    -0.343 N 
ATOM     27  H5  UNL     1      30.597   8.478  15.107  1.00  0.00     0.164 HD
ATOM     28  H4  UNL     1      29.382   6.842  13.760  1.00  0.00     0.164 HD
BRANCH  26  29
HETATM   29  C16 UNL     1      30.669   8.568  17.231  1.00  0.00     0.129 C 
BRANCH  29  30
HETATM   30  C17 UNL     1      32.095   8.066  17.557  1.00  0.00     0.064 C 
BRANCH  30  31
HETATM   31  C18 UNL     1      33.079   8.935  16.856  1.00  0.00     0.062 C 
BRANCH  31  32
HETATM   32  N6  UNL     1      33.900   8.285  15.930  1.00  0.00    -0.376 N 
ATOM     33  H6  UNL     1      34.665   7.683  16.236  1.00  0.00     0.164 HD
BRANCH  32  34
HETATM   34  C19 UNL     1      33.638   8.485  14.580  1.00  0.00     0.132 C 
BRANCH  34  35
HETATM   35  C20 UNL     1      32.688   7.586  13.889  1.00  0.00     0.125 C 
HETATM   36  N7  UNL     1      32.932   6.356  13.819  1.00  0.00    -0.387 N 
ATOM     37  H72 UNL     1      33.768   5.987  14.272  1.00  0.00     0.157 HD
ATOM     38  H71 UNL     1      32.277   5.737  13.343  1.00  0.00     0.157 HD
HETATM   39  N8  UNL     1      31.514   8.105  13.254  1.00  0.00    -0.082 NA
ENDBRANCH  34  35
ENDBRANCH  32  34
ENDBRANCH  31  32
ENDBRANCH  30  31
ENDBRANCH  29  30
ENDBRANCH  26  29
ENDBRANCH  22  23
ENDBRANCH  21  22
ENDBRANCH   1  21
TORSDOF 18
ENDMDL
MODEL 3
REMARK VINA RESULT: -7.545823985      3.569      4.981
REMARK  18 active torsions:
REMARK  status: ('A' for Active; 'I' for Inactive)
REMARK    1  A    between atoms: N1_2  and  C4_5 
REMARK    2  A    between atoms: C4_5  and  C5_6 
REMARK    3  A    between atoms: C5_6  and  C6_7 
REMARK    4  A    between atoms: C6_7  and  C7_8 
REMARK    5  A    between atoms: C7_8  and  C8_9 
REMARK    6  A    between atoms: C8_9  and  N2_10 
REMARK    7  A    between atoms: N3_13  and  C11_14 
REMARK    8  A    between atoms: C11_14  and  C12_15 
REMARK    9  A    between atoms: C12_15  and  C13_16 
REMARK   10  A    between atoms: C13_16  and  C14_17 
REMARK   11  A    between atoms: C14_17  and  N4_18 
REMARK       I    between atoms: N4_18  and  C15_20 
REMARK       I    between atoms: C15_20  and  N5_22 
REMARK   12  A    between atoms: N5_22  and  C16_24 
REMARK   13  A    between atoms: C16_24  and  C17_25 
REMARK   14  A    between atoms: C17_25  and  C18_26 
REMARK   15  A    between atoms: C18_26  and  N6_27 
REMARK   16  A    between atoms: N6_27  and  C19_29 
REMARK   17  A    between atoms: C19_29  and  C20_30 
REMARK   18  A    between atoms: C23_37  and  O2_38 
ROOT
HETATM    1  C12 UNL     1      23.435   1.916  14.099  1.00  0.00     0.030 C 
ENDROOT
BRANCH   1   2
HETATM    2  C11 UNL     1      23.322   2.907  12.991  1.00  0.00     0.243 C 
BRANCH   2   3
HETATM    3  N3  UNL     1      22.320   3.884  13.238  1.00  0.00    -0.011 N 
HETATM    4  C10 UNL     1      21.542   3.694  14.429  1.00  0.00     0.270 C 
HETATM    5  C9  UNL     1      20.945   5.093  14.647  1.00  0.00     0.270 C 
HETATM    6  N2  UNL     1      21.518   5.895  13.609  1.00  0.00    -0.011 N 
HETATM    7  C22 UNL     1      20.906   5.548  12.369  1.00  0.00     0.270 C 
HETATM    8  C23 UNL     1      22.832   5.238  13.450  1.00  0.00     0.531 C 
HETATM    9  C21 UNL     1      21.425   4.126  12.128  1.00  0.00     0.270 C 
BRANCH   6  10
HETATM   10  C8  UNL     1      21.648   7.281  13.879  1.00  0.00     0.243 C 
BRANCH  10  11
HETATM   11  C7  UNL     1      21.413   7.637  15.310  1.00  0.00     0.028 C 
BRANCH  11  12
HETATM   12  C6  UNL     1      20.654   8.953  15.344  1.00  0.00     0.003 C 
BRANCH  12  13
HETATM   13  C5  UNL     1      19.766   9.078  16.562  1.00  0.00     0.028 C 
BRANCH  13  14
HETATM   14  C4  UNL     1      18.721   8.000  16.609  1.00  0.00     0.236 C 
BRANCH  14  15
HETATM   15  N1  UNL     1      18.589   7.379  17.887  1.00  0.00    -0.079 N 
HETATM   16  C1  UNL     1      17.247   7.292  18.374  1.00  0.00     0.271 C 
HETATM   17  C2  UNL     1      19.402   8.000  18.914  1.00  0.00     0.271 C 
HETATM   18  C3  UNL     1      19.081   6.000  17.744  1.00  0.00     0.271 C 
ENDBRANCH  14  15
ENDBRANCH  13  14
ENDBRANCH  12  13
ENDBRANCH  11  12
ENDBRANCH  10  11
ENDBRANCH   6  10
BRANCH   8  19
HETATM   19  O2  UNL     1      23.481   5.730  12.320  1.00  0.00    -0.348 OA
ATOM     20  H2  UNL     1      24.422   5.652  12.422  1.00  0.00     0.214 HD
ENDBRANCH   8  19
ENDBRANCH   2   3
ENDBRANCH   1   2
BRANCH   1  21
HETATM   21  C13 UNL     1      24.812   2.038  14.771  1.00  0.00     0.021 C 
BRANCH  21  22
HETATM   22  C14 UNL     1      25.853   2.415  13.754  1.00  0.00     0.124 C 
BRANCH  22  23
HETATM   23  N4  UNL     1      27.186   2.504  14.246  1.00  0.00    -0.343 N 
HETATM   24  C15 UNL     1      27.916   3.714  14.180  1.00  0.00     0.316 C 
HETATM   25  O1  UNL     1      27.450   4.775  13.694  1.00  0.00    -0.247 OA
HETATM   26  N5  UNL     1      29.260   3.770  14.685  1.00  0.00    -0.343 N 
ATOM     27  H5  UNL     1      29.679   2.927  15.080  1.00  0.00     0.164 HD
ATOM     28  H4  UNL     1      27.623   1.679  14.654  1.00  0.00     0.164 HD
BRANCH  26  29
HETATM   29  C16 UNL     1      30.027   4.981  14.647  1.00  0.00     0.129 C 
BRANCH  29  30
HETATM   30  C17 UNL     1      30.119   5.567  16.075  1.00  0.00     0.064 C 
BRANCH  30  31
HETATM   31  C18 UNL     1      31.531   5.951  16.344  1.00  0.00     0.062 C 
BRANCH  31  32
HETATM   32  N6  UNL     1      31.798   7.323  16.295  1.00  0.00    -0.376 N 
ATOM     33  H6  UNL     1      31.277   7.982  16.874  1.00  0.00     0.164 HD
BRANCH  32  34
HETATM   34  C19 UNL     1      32.796   7.758  15.431  1.00  0.00     0.132 C 
BRANCH  34  35
HETATM   35  C20 UNL     1      32.628   7.551  13.976  1.00  0.00     0.125 C 
HETATM   36  N7  UNL     1      33.505   6.926  13.330  1.00  0.00    -0.387 N 
ATOM     37  H72 UNL     1      34.307   6.536  13.826  1.00  0.00     0.157 HD
ATOM     38  H71 UNL     1      33.390   6.784  12.327  1.00  0.00     0.157 HD
HETATM   39  N8  UNL     1      31.503   8.098  13.280  1.00  0.00    -0.082 NA
ENDBRANCH  34  35
ENDBRANCH  32  34
ENDBRANCH  31  32
ENDBRANCH  30  31
ENDBRANCH  29  30
ENDBRANCH  26  29
ENDBRANCH  22  23
ENDBRANCH  21  22
ENDBRANCH   1  21
TORSDOF 18
ENDMDL
MODEL 4
REMARK VINA RESULT: -7.543770519      3.430     12.028
REMARK  18 active torsions:
REMARK  status: ('A' for Active; 'I' for Inactive)
REMARK    1  A    between atoms: N1_2  and  C4_5 
REMARK    2  A    between atoms: C4_5  and  C5_6 
REMARK    3  A    between atoms: C5_6  and  C6_7 
REMARK    4  A    between atoms: C6_7  and  C7_8 
REMARK    5  A    between atoms: C7_8  and  C8_9 
REMARK    6  A    between atoms: C8_9  and  N2_10 
REMARK    7  A    between atoms: N3_13  and  C11_14 
REMARK    8  A    between atoms: C11_14  and  C12_15 
REMARK    9  A    between atoms: C12_15  and  C13_16 
REMARK   10  A    between atoms: C13_16  and  C14_17 
REMARK   11  A    between atoms: C14_17  and  N4_18 
REMARK       I    between atoms: N4_18  and  C15_20 
REMARK       I    between atoms: C15_20  and  N5_22 
REMARK   12  A    between atoms: N5_22  and  C16_24 
REMARK   13  A    between atoms: C16_24  and  C17_25 
REMARK   14  A    between atoms: C17_25  and  C18_26 
REMARK   15  A    between atoms: C18_26  and  N6_27 
REMARK   16  A    between atoms: N6_27  and  C19_29 
REMARK   17  A    between atoms: C19_29  and  C20_30 
REMARK   18  A    between atoms: C23_37  and  O2_38 
ROOT
HETATM    1  C12 UNL     1      28.881   3.817  14.462  1.00  0.00     0.030 C 
ENDROOT
BRANCH   1   2
HETATM    2  C11 UNL     1      29.584   4.117  15.741  1.00  0.00     0.243 C 
BRANCH   2   3
HETATM    3  N3  UNL     1      30.071   5.452  15.792  1.00  0.00    -0.011 N 
HETATM    4  C10 UNL     1      29.571   6.258  16.868  1.00  0.00     0.270 C 
HETATM    5  C9  UNL     1      30.608   7.390  16.927  1.00  0.00     0.270 C 
HETATM    6  N2  UNL     1      31.585   7.036  15.943  1.00  0.00    -0.011 N 
HETATM    7  C22 UNL     1      31.035   7.263  14.647  1.00  0.00     0.270 C 
HETATM    8  C23 UNL     1      31.515   5.561  16.006  1.00  0.00     0.531 C 
HETATM    9  C21 UNL     1      29.945   6.189  14.555  1.00  0.00     0.270 C 
BRANCH   6  10
HETATM   10  C8  UNL     1      32.902   7.513  16.158  1.00  0.00     0.243 C 
BRANCH  10  11
HETATM   11  C7  UNL     1      32.972   8.680  17.087  1.00  0.00     0.028 C 
BRANCH  11  12
HETATM   12  C6  UNL     1      33.828   9.750  16.429  1.00  0.00     0.003 C 
BRANCH  12  13
HETATM   13  C5  UNL     1      34.548   9.242  15.200  1.00  0.00     0.028 C 
BRANCH  13  14
HETATM   14  C4  UNL     1      34.419  10.187  14.040  1.00  0.00     0.236 C 
BRANCH  14  15
HETATM   15  N1  UNL     1      35.395   9.986  13.019  1.00  0.00    -0.079 N 
HETATM   16  C1  UNL     1      36.743   9.906  13.488  1.00  0.00     0.271 C 
HETATM   17  C2  UNL     1      35.342  10.984  11.969  1.00  0.00     0.271 C 
HETATM   18  C3  UNL     1      35.086   8.696  12.383  1.00  0.00     0.271 C 
ENDBRANCH  14  15
ENDBRANCH  13  14
ENDBRANCH  12  13
ENDBRANCH  11  12
ENDBRANCH  10  11
ENDBRANCH   6  10
BRANCH   8  19
HETATM   19  O2  UNL     1      32.239   5.000  14.957  1.00  0.00    -0.348 OA
ATOM     20  H2  UNL     1      33.081   5.432  14.871  1.00  0.00     0.214 HD
ENDBRANCH   8  19
ENDBRANCH   2   3
ENDBRANCH   1   2
BRANCH   1  21
HETATM   21  C13 UNL     1      27.402   3.508  14.739  1.00  0.00     0.021 C 
BRANCH  21  22
HETATM   22  C14 UNL     1      26.699   3.147  13.459  1.00  0.00     0.124 C 
BRANCH  22  23
HETATM   23  N4  UNL     1      25.944   4.194  12.858  1.00  0.00    -0.343 N 
HETATM   24  C15 UNL     1      24.579   4.391  13.171  1.00  0.00     0.316 C 
HETATM   25  O1  UNL     1      23.948   3.673  13.986  1.00  0.00    -0.247 OA
HETATM   26  N5  UNL     1      23.846   5.456  12.545  1.00  0.00    -0.343 N 
ATOM     27  H5  UNL     1      24.319   6.057  11.870  1.00  0.00     0.164 HD
ATOM     28  H4  UNL     1      26.397   4.814  12.187  1.00  0.00     0.164 HD
BRANCH  26  29
HETATM   29  C16 UNL     1      22.464   5.695  12.847  1.00  0.00     0.129 C 
BRANCH  29  30
HETATM   30  C17 UNL     1      22.320   7.098  13.481  1.00  0.00     0.064 C 
BRANCH  30  31
HETATM   31  C18 UNL     1      21.208   7.064  14.469  1.00  0.00     0.062 C 
BRANCH  31  32
HETATM   32  N6  UNL     1      21.599   7.040  15.811  1.00  0.00    -0.376 N 
ATOM     33  H6  UNL     1      22.269   7.716  16.177  1.00  0.00     0.164 HD
BRANCH  32  34
HETATM   34  C19 UNL     1      21.044   6.063  16.630  1.00  0.00     0.132 C 
BRANCH  34  35
HETATM   35  C20 UNL     1      21.259   4.638  16.297  1.00  0.00     0.125 C 
HETATM   36  N7  UNL     1      22.402   4.133  16.427  1.00  0.00    -0.387 N 
ATOM     37  H72 UNL     1      23.161   4.706  16.795  1.00  0.00     0.157 HD
ATOM     38  H71 UNL     1      22.550   3.150  16.197  1.00  0.00     0.157 HD
HETATM   39  N8  UNL     1      20.192   3.834  15.780  1.00  0.00    -0.082 NA
ENDBRANCH  34  35
ENDBRANCH  32  34
ENDBRANCH  31  32
ENDBRANCH  30  31
ENDBRANCH  29  30
ENDBRANCH  26  29
ENDBRANCH  22  23
ENDBRANCH  21  22
ENDBRANCH   1  21
TORSDOF 18
ENDMDL
MODEL 5
REMARK VINA RESULT: -7.523847308      2.619      3.759
REMARK  18 active torsions:
REMARK  status: ('A' for Active; 'I' for Inactive)
REMARK    1  A    between atoms: N1_2  and  C4_5 
REMARK    2  A    between atoms: C4_5  and  C5_6 
REMARK    3  A    between atoms: C5_6  and  C6_7 
REMARK    4  A    between atoms: C6_7  and  C7_8 
REMARK    5  A    between atoms: C7_8  and  C8_9 
REMARK    6  A    between atoms: C8_9  and  N2_10 
REMARK    7  A    between atoms: N3_13  and  C11_14 
REMARK    8  A    between atoms: C11_14  and  C12_15 
REMARK    9  A    between atoms: C12_15  and  C13_16 
REMARK   10  A    between atoms: C13_16  and  C14_17 
REMARK   11  A    between atoms: C14_17  and  N4_18 
REMARK       I    between atoms: N4_18  and  C15_20 
REMARK       I    between atoms: C15_20  and  N5_22 
REMARK   12  A    between atoms: N5_22  and  C16_24 
REMARK   13  A    between atoms: C16_24  and  C17_25 
REMARK   14  A    between atoms: C17_25  and  C18_26 
REMARK   15  A    between atoms: C18_26  and  N6_27 
REMARK   16  A    between atoms: N6_27  and  C19_29 
REMARK   17  A    between atoms: C19_29  and  C20_30 
REMARK   18  A    between atoms: C23_37  and  O2_38 
ROOT
HETATM    1  C12 UNL     1      27.446   2.974  14.784  1.00  0.00     0.030 C 
ENDROOT
BRANCH   1   2
HETATM    2  C11 UNL     1      26.255   3.795  15.141  1.00  0.00     0.243 C 
BRANCH   2   3
HETATM    3  N3  UNL     1      25.034   3.175  14.759  1.00  0.00    -0.011 N 
HETATM    4  C10 UNL     1      24.044   3.058  15.792  1.00  0.00     0.270 C 
HETATM    5  C9  UNL     1      22.761   2.829  14.978  1.00  0.00     0.270 C 
HETATM    6  N2  UNL     1      23.178   2.925  13.613  1.00  0.00    -0.011 N 
HETATM    7  C22 UNL     1      23.907   1.748  13.271  1.00  0.00     0.270 C 
HETATM    8  C23 UNL     1      24.284   3.897  13.731  1.00  0.00     0.531 C 
HETATM    9  C21 UNL     1      25.184   1.894  14.106  1.00  0.00     0.270 C 
BRANCH   6  10
HETATM   10  C8  UNL     1      22.198   3.348  12.679  1.00  0.00     0.243 C 
BRANCH  10  11
HETATM   11  C7  UNL     1      21.054   4.078  13.301  1.00  0.00     0.028 C 
BRANCH  11  12
HETATM   12  C6  UNL     1      20.961   5.446  12.645  1.00  0.00     0.003 C 
BRANCH  12  13
HETATM   13  C5  UNL     1      21.028   6.576  13.647  1.00  0.00     0.028 C 
BRANCH  13  14
HETATM   14  C4  UNL     1      19.883   6.534  14.619  1.00  0.00     0.236 C 
BRANCH  14  15
HETATM   15  N1  UNL     1      20.178   7.123  15.885  1.00  0.00    -0.079 N 
HETATM   16  C1  UNL     1      19.033   7.424  16.686  1.00  0.00     0.271 C 
HETATM   17  C2  UNL     1      20.986   8.323  15.785  1.00  0.00     0.271 C 
HETATM   18  C3  UNL     1      20.978   6.144  16.635  1.00  0.00     0.271 C 
ENDBRANCH  14  15
ENDBRANCH  13  14
ENDBRANCH  12  13
ENDBRANCH  11  12
ENDBRANCH  10  11
ENDBRANCH   6  10
BRANCH   8  19
HETATM   19  O2  UNL     1      24.988   3.973  12.532  1.00  0.00    -0.348 OA
ATOM     20  H2  UNL     1      25.907   3.779  12.678  1.00  0.00     0.214 HD
ENDBRANCH   8  19
ENDBRANCH   2   3
ENDBRANCH   1   2
BRANCH   1  21
HETATM   21  C13 UNL     1      28.609   3.891  14.374  1.00  0.00     0.021 C 
BRANCH  21  22
HETATM   22  C14 UNL     1      28.119   5.301  14.195  1.00  0.00     0.124 C 
BRANCH  22  23
HETATM   23  N4  UNL     1      29.099   6.317  14.374  1.00  0.00    -0.343 N 
HETATM   24  C15 UNL     1      29.337   6.896  15.643  1.00  0.00     0.316 C 
HETATM   25  O1  UNL     1      28.715   6.561  16.681  1.00  0.00    -0.247 OA
HETATM   26  N5  UNL     1      30.333   7.921  15.788  1.00  0.00    -0.343 N 
ATOM     27  H5  UNL     1      30.855   8.229  14.967  1.00  0.00     0.164 HD
ATOM     28  H4  UNL     1      29.640   6.635  13.570  1.00  0.00     0.164 HD
BRANCH  26  29
HETATM   29  C16 UNL     1      30.611   8.523  17.060  1.00  0.00     0.129 C 
BRANCH  29  30
HETATM   30  C17 UNL     1      31.978   8.012  17.573  1.00  0.00     0.064 C 
BRANCH  30  31
HETATM   31  C18 UNL     1      33.059   8.793  16.912  1.00  0.00     0.062 C 
BRANCH  31  32
HETATM   32  N6  UNL     1      33.815   8.091  15.969  1.00  0.00    -0.376 N 
ATOM     33  H6  UNL     1      34.340   7.256  16.231  1.00  0.00     0.164 HD
BRANCH  32  34
HETATM   34  C19 UNL     1      33.828   8.569  14.664  1.00  0.00     0.132 C 
BRANCH  34  35
HETATM   35  C20 UNL     1      33.152   7.789  13.605  1.00  0.00     0.125 C 
HETATM   36  N7  UNL     1      33.797   6.929  12.956  1.00  0.00    -0.387 N 
ATOM     37  H72 UNL     1      34.774   6.755  13.193  1.00  0.00     0.157 HD
ATOM     38  H71 UNL     1      33.331   6.391  12.226  1.00  0.00     0.157 HD
HETATM   39  N8  UNL     1      31.781   8.034  13.273  1.00  0.00    -0.082 NA
ENDBRANCH  34  35
ENDBRANCH  32  34
ENDBRANCH  31  32
ENDBRANCH  30  31
ENDBRANCH  29  30
ENDBRANCH  26  29
ENDBRANCH  22  23
ENDBRANCH  21  22
ENDBRANCH   1  21
TORSDOF 18
ENDMDL
