MODEL 1
REMARK VINA RESULT: -7.509272777      0.000      0.000
REMARK  18 active torsions:
REMARK  status: ('A' for Active; 'I' for Inactive)
REMARK    1  A    between atoms: C2_2  and  C3_3 
REMARK    2  A    between atoms: C3_3  and  C4_4 
REMARK    3  A    between atoms: C4_4  and  C5_5 
REMARK       I    between atoms: C5_5  and  N1_7 
REMARK    4  A    between atoms: N1_7  and  C6_9 
REMARK    5  A    between atoms: C6_9  and  C7_10 
REMARK    6  A    between atoms: C7_10  and  C8_11 
REMARK    7  A    between atoms: C8_11  and  N2_12 
REMARK       I    between atoms: N2_12  and  C9_14 
REMARK       I    between atoms: C9_14  and  N3_16 
REMARK    8  A    between atoms: N3_16  and  C10_18 
REMARK    9  A    between atoms: C10_18  and  C11_19 
REMARK   10  A    between atoms: C11_19  and  N4_22 
REMARK   11  A    between atoms: N4_22  and  C14_25 
REMARK   12  A    between atoms: C14_25  and  C15_26 
REMARK   13  A    between atoms: C15_26  and  N5_27 
REMARK   14  A    between atoms: N5_27  and  C18_30 
REMARK   15  A    between atoms: C18_30  and  C19_31 
REMARK   16  A    between atoms: C19_31  and  C20_32 
REMARK   17  A    between atoms: C20_32  and  N6_33 
REMARK       I    between atoms: N6_33  and  C21_35 
REMARK   18  A    between atoms: C21_35  and  C22_37 
ROOT
HETATM    1  C11 UNL     1      24.843   2.810  14.447  1.00  0.00     0.150 C 
HETATM    2  C12 UNL     1      24.085   1.690  13.635  1.00  0.00     0.052 C 
HETATM    3  C13 UNL     1      24.356   2.644  15.828  1.00  0.00     0.052 C 
ENDROOT
BRANCH   1   4
HETATM    4  C10 UNL     1      26.269   2.495  14.161  1.00  0.00     0.103 C 
BRANCH   4   5
HETATM    5  N3  UNL     1      27.300   3.070  14.916  1.00  0.00    -0.320 N 
HETATM    6  C9  UNL     1      27.752   4.386  15.036  1.00  0.00     0.319 C 
HETATM    7  N2  UNL     1      28.868   4.718  15.874  1.00  0.00    -0.343 N 
HETATM    8  O2  UNL     1      27.214   5.319  14.431  1.00  0.00    -0.247 OA
ATOM      9  H2  UNL     1      29.341   3.969  16.379  1.00  0.00     0.164 HD
ATOM     10  H3  UNL     1      27.818   2.401  15.487  1.00  0.00     0.169 HD
BRANCH   7  11
HETATM   11  C8  UNL     1      29.348   6.072  16.030  1.00  0.00     0.126 C 
BRANCH  11  12
HETATM   12  C7  UNL     1      30.860   6.170  16.008  1.00  0.00     0.039 C 
BRANCH  12  13
HETATM   13  C6  UNL     1      31.428   5.763  14.681  1.00  0.00     0.124 C 
BRANCH  13  14
HETATM   14  N1  UNL     1      32.633   6.528  14.436  1.00  0.00    -0.361 N 
HETATM   15  C5  UNL     1      32.527   7.744  13.683  1.00  0.00     0.217 C 
HETATM   16  O1  UNL     1      31.399   8.076  13.282  1.00  0.00    -0.274 OA
ATOM     17  H1  UNL     1      33.535   6.210  14.790  1.00  0.00     0.162 HD
BRANCH  15  18
HETATM   18  C4  UNL     1      33.766   8.510  13.442  1.00  0.00     0.103 C 
BRANCH  18  19
HETATM   19  C3  UNL     1      33.892   9.715  14.320  1.00  0.00     0.009 C 
BRANCH  19  20
HETATM   20  C2  UNL     1      34.599   9.452  15.623  1.00  0.00    -0.004 C 
HETATM   21  C1  UNL     1      33.535   9.465  16.727  1.00  0.00     0.005 C 
ENDBRANCH  19  20
ENDBRANCH  18  19
ENDBRANCH  15  18
ENDBRANCH  13  14
ENDBRANCH  12  13
ENDBRANCH  11  12
ENDBRANCH   7  11
ENDBRANCH   4   5
ENDBRANCH   1   4
BRANCH   1  22
HETATM   22  N4  UNL     1      24.389   4.023  13.854  1.00  0.00    -0.061 N 
ATOM     23  H42 UNL     1      24.977   4.807  14.138  1.00  0.00     0.278 HD
ATOM     24  H41 UNL     1      24.575   4.027  12.851  1.00  0.00     0.278 HD
BRANCH  22  25
HETATM   25  C14 UNL     1      23.023   4.300  14.113  1.00  0.00     0.261 C 
BRANCH  25  26
HETATM   26  C15 UNL     1      22.294   4.851  12.897  1.00  0.00     0.264 C 
BRANCH  26  27
HETATM   27  N5  UNL     1      20.845   4.654  13.131  1.00  0.00    -0.073 N 
HETATM   28  C16 UNL     1      20.716   3.770  14.325  1.00  0.00     0.272 C 
HETATM   29  C17 UNL     1      20.355   5.938  13.536  1.00  0.00     0.272 C 
BRANCH  27  30
HETATM   30  C18 UNL     1      20.271   3.967  12.064  1.00  0.00     0.238 C 
BRANCH  30  31
HETATM   31  C19 UNL     1      21.050   3.141  11.137  1.00  0.00     0.047 C 
BRANCH  31  32
HETATM   32  C20 UNL     1      20.467   1.845  10.709  1.00  0.00     0.124 C 
BRANCH  32  33
HETATM   33  N6  UNL     1      19.867   1.195  11.889  1.00  0.00    -0.359 N 
HETATM   34  C21 UNL     1      18.675   0.443  11.783  1.00  0.00     0.250 C 
HETATM   35  O3  UNL     1      18.124   0.331  10.654  1.00  0.00    -0.271 OA
ATOM     36  H6  UNL     1      20.320   1.290  12.798  1.00  0.00     0.162 HD
BRANCH  34  37
HETATM   37  C22 UNL     1      18.081  -0.205  12.984  1.00  0.00     0.302 A 
HETATM   38  C23 UNL     1      17.263   0.537  13.924  1.00  0.00     0.276 A 
HETATM   39  N7  UNL     1      16.637  -0.365  12.980  1.00  0.00    -0.058 N 
ATOM     40  H72 UNL     1      15.903  -0.278  12.278  1.00  0.00     0.278 HD
ATOM     41  H71 UNL     1      15.998  -1.157  13.054  1.00  0.00     0.278 HD
ENDBRANCH  34  37
ENDBRANCH  32  33
ENDBRANCH  31  32
ENDBRANCH  30  31
ENDBRANCH  27  30
ENDBRANCH  26  27
ENDBRANCH  25  26
ENDBRANCH  22  25
ENDBRANCH   1  22
TORSDOF 18
ENDMDL
MODEL 2
REMARK VINA RESULT: -7.496983371      3.195     11.217
REMARK  18 active torsions:
REMARK  status: ('A' for Active; 'I' for Inactive)
REMARK    1  A    between atoms: C2_2  and  C3_3 
REMARK    2  A    between atoms: C3_3  and  C4_4 
REMARK    3  A    between atoms: C4_4  and  C5_5 
REMARK       I    between atoms: C5_5  and  N1_7 
REMARK    4  A    between atoms: N1_7  and  C6_9 
REMARK    5  A    between atoms: C6_9  and  C7_10 
REMARK    6  A    between atoms: C7_10  and  C8_11 
REMARK    7  A    between atoms: C8_11  and  N2_12 
REMARK       I    between atoms: N2_12  and  C9_14 
REMARK       I    between atoms: C9_14  and  N3_16 
REMARK    8  A    between atoms: N3_16  and  C10_18 
REMARK    9  A    between atoms: C10_18  and  C11_19 
REMARK   10  A    between atoms: C11_19  and  N4_22 
REMARK   11  A    between atoms: N4_22  and  C14_25 
REMARK   12  A    between atoms: C14_25  and  C15_26 
REMARK   13  A    between atoms: C15_26  and  N5_27 
REMARK   14  A    between atoms: N5_27  and  C18_30 
REMARK   15  A    between atoms: C18_30  and  C19_31 
REMARK   16  A    between atoms: C19_31  and  C20_32 
REMARK   17  A    between atoms: C20_32  and  N6_33 
REMARK       I    between atoms: N6_33  and  C21_35 
REMARK   18  A    between atoms: C21_35  and  C22_37 
ROOT
HETATM    1  C11 UNL     1      26.515   3.755  14.258  1.00  0.00     0.150 C 
HETATM    2  C12 UNL     1      25.492   3.110  15.271  1.00  0.00     0.052 C 
HETATM    3  C13 UNL     1      27.635   2.799  14.220  1.00  0.00     0.052 C 
ENDROOT
BRANCH   1   4
HETATM    4  C10 UNL     1      25.685   3.915  13.033  1.00  0.00     0.103 C 
BRANCH   4   5
HETATM    5  N3  UNL     1      24.899   5.059  12.838  1.00  0.00    -0.320 N 
HETATM    6  C9  UNL     1      23.554   5.327  13.101  1.00  0.00     0.319 C 
HETATM    7  N2  UNL     1      22.970   6.597  12.778  1.00  0.00    -0.343 N 
HETATM    8  O2  UNL     1      22.810   4.489  13.621  1.00  0.00    -0.247 OA
ATOM      9  H2  UNL     1      23.555   7.307  12.337  1.00  0.00     0.164 HD
ATOM     10  H3  UNL     1      25.405   5.844  12.428  1.00  0.00     0.169 HD
BRANCH   7  11
HETATM   11  C8  UNL     1      21.585   6.910  13.051  1.00  0.00     0.126 C 
BRANCH  11  12
HETATM   12  C7  UNL     1      21.374   7.503  14.429  1.00  0.00     0.039 C 
BRANCH  12  13
HETATM   13  C6  UNL     1      20.290   6.794  15.184  1.00  0.00     0.124 C 
BRANCH  13  14
HETATM   14  N1  UNL     1      20.424   5.369  14.965  1.00  0.00    -0.361 N 
HETATM   15  C5  UNL     1      19.290   4.646  14.466  1.00  0.00     0.217 C 
HETATM   16  O1  UNL     1      18.250   5.289  14.245  1.00  0.00    -0.274 OA
ATOM     17  H1  UNL     1      21.303   4.891  15.161  1.00  0.00     0.162 HD
BRANCH  15  18
HETATM   18  C4  UNL     1      19.445   3.195  14.249  1.00  0.00     0.103 C 
BRANCH  18  19
HETATM   19  C3  UNL     1      19.722   2.839  12.823  1.00  0.00     0.009 C 
BRANCH  19  20
HETATM   20  C2  UNL     1      20.761   1.762  12.651  1.00  0.00    -0.004 C 
HETATM   21  C1  UNL     1      21.536   2.081  11.366  1.00  0.00     0.005 C 
ENDBRANCH  19  20
ENDBRANCH  18  19
ENDBRANCH  15  18
ENDBRANCH  13  14
ENDBRANCH  12  13
ENDBRANCH  11  12
ENDBRANCH   7  11
ENDBRANCH   4   5
ENDBRANCH   1   4
BRANCH   1  22
HETATM   22  N4  UNL     1      26.873   4.987  14.879  1.00  0.00    -0.061 N 
ATOM     23  H42 UNL     1      26.582   5.778  14.305  1.00  0.00     0.278 HD
ATOM     24  H41 UNL     1      26.298   5.155  15.704  1.00  0.00     0.278 HD
BRANCH  22  25
HETATM   25  C14 UNL     1      28.251   5.076  15.199  1.00  0.00     0.261 C 
BRANCH  25  26
HETATM   26  C15 UNL     1      28.964   6.174  14.424  1.00  0.00     0.264 C 
BRANCH  26  27
HETATM   27  N5  UNL     1      30.241   6.442  15.123  1.00  0.00    -0.073 N 
HETATM   28  C16 UNL     1      31.129   5.270  14.866  1.00  0.00     0.272 C 
HETATM   29  C17 UNL     1      30.827   7.543  14.420  1.00  0.00     0.272 C 
BRANCH  27  30
HETATM   30  C18 UNL     1      30.040   6.491  16.501  1.00  0.00     0.238 C 
BRANCH  30  31
HETATM   31  C19 UNL     1      30.850   7.324  17.394  1.00  0.00     0.047 C 
BRANCH  31  32
HETATM   32  C20 UNL     1      30.141   8.126  18.424  1.00  0.00     0.124 C 
BRANCH  32  33
HETATM   33  N6  UNL     1      30.072   7.330  19.664  1.00  0.00    -0.359 N 
HETATM   34  C21 UNL     1      28.854   7.168  20.363  1.00  0.00     0.250 C 
HETATM   35  O3  UNL     1      27.814   7.718  19.908  1.00  0.00    -0.271 OA
ATOM     36  H6  UNL     1      30.918   6.888  20.023  1.00  0.00     0.162 HD
BRANCH  34  37
HETATM   37  C22 UNL     1      28.802   6.363  21.613  1.00  0.00     0.302 A 
HETATM   38  C23 UNL     1      28.205   6.882  22.829  1.00  0.00     0.276 A 
HETATM   39  N7  UNL     1      27.486   5.910  22.032  1.00  0.00    -0.058 N 
ATOM     40  H72 UNL     1      26.563   5.874  21.598  1.00  0.00     0.278 HD
ATOM     41  H71 UNL     1      27.059   5.002  22.213  1.00  0.00     0.278 HD
ENDBRANCH  34  37
ENDBRANCH  32  33
ENDBRANCH  31  32
ENDBRANCH  30  31
ENDBRANCH  27  30
ENDBRANCH  26  27
ENDBRANCH  25  26
ENDBRANCH  22  25
ENDBRANCH   1  22
TORSDOF 18
ENDMDL
MODEL 3
REMARK VINA RESULT: -7.496809762      2.486     12.499
REMARK  18 active torsions:
REMARK  status: ('A' for Active; 'I' for Inactive)
REMARK    1  A    between atoms: C2_2  and  C3_3 
REMARK    2  A    between atoms: C3_3  and  C4_4 
REMARK    3  A    between atoms: C4_4  and  C5_5 
REMARK       I    between atoms: C5_5  and  N1_7 
REMARK    4  A    between atoms: N1_7  and  C6_9 
REMARK    5  A    between atoms: C6_9  and  C7_10 
REMARK    6  A    between atoms: C7_10  and  C8_11 
REMARK    7  A    between atoms: C8_11  and  N2_12 
REMARK       I    between atoms: N2_12  and  C9_14 
REMARK       I    between atoms: C9_14  and  N3_16 
REMARK    8  A    between atoms: N3_16  and  C10_18 
REMARK    9  A    between atoms: C10_18  and  C11_19 
REMARK   10  A    between atoms: C11_19  and  N4_22 
REMARK   11  A    between atoms: N4_22  and  C14_25 
REMARK   12  A    between atoms: C14_25  and  C15_26 
REMARK   13  A    between atoms: C15_26  and  N5_27 
REMARK   14  A    between atoms: N5_27  and  C18_30 
REMARK   15  A    between atoms: C18_30  and  C19_31 
REMARK   16  A    between atoms: C19_31  and  C20_32 
REMARK   17  A    between atoms: C20_32  and  N6_33 
REMARK       I    between atoms: N6_33  and  C21_35 
REMARK   18  A    between atoms: C21_35  and  C22_37 
ROOT
HETATM    1  C11 UNL     1      26.829   3.915  14.345  1.00  0.00     0.150 C 
HETATM    2  C12 UNL     1      25.770   3.274  15.323  1.00  0.00     0.052 C 
HETATM    3  C13 UNL     1      27.755   2.810  14.041  1.00  0.00     0.052 C 
ENDROOT
BRANCH   1   4
HETATM    4  C10 UNL     1      25.968   4.434  13.247  1.00  0.00     0.103 C 
BRANCH   4   5
HETATM    5  N3  UNL     1      25.026   5.443  13.484  1.00  0.00    -0.320 N 
HETATM    6  C9  UNL     1      23.715   5.624  13.039  1.00  0.00     0.319 C 
HETATM    7  N2  UNL     1      22.954   6.782  13.412  1.00  0.00    -0.343 N 
HETATM    8  O2  UNL     1      23.152   4.801  12.310  1.00  0.00    -0.247 OA
ATOM      9  H2  UNL     1      23.393   7.486  14.005  1.00  0.00     0.164 HD
ATOM     10  H3  UNL     1      25.361   6.186  14.098  1.00  0.00     0.169 HD
BRANCH   7  11
HETATM   11  C8  UNL     1      21.590   6.990  12.981  1.00  0.00     0.126 C 
BRANCH  11  12
HETATM   12  C7  UNL     1      20.578   6.274  13.852  1.00  0.00     0.039 C 
BRANCH  12  13
HETATM   13  C6  UNL     1      19.615   5.460  13.040  1.00  0.00     0.124 C 
BRANCH  13  14
HETATM   14  N1  UNL     1      20.168   4.135  12.853  1.00  0.00    -0.361 N 
HETATM   15  C5  UNL     1      19.398   3.173  12.118  1.00  0.00     0.217 C 
HETATM   16  O1  UNL     1      18.293   3.535  11.679  1.00  0.00    -0.274 OA
ATOM     17  H1  UNL     1      21.082   3.891  13.234  1.00  0.00     0.162 HD
BRANCH  15  18
HETATM   18  C4  UNL     1      19.977   1.827  11.938  1.00  0.00     0.103 C 
BRANCH  18  19
HETATM   19  C3  UNL     1      21.473   1.821  11.967  1.00  0.00     0.009 C 
BRANCH  19  20
HETATM   20  C2  UNL     1      22.059   1.031  13.107  1.00  0.00    -0.004 C 
HETATM   21  C1  UNL     1      23.555   1.365  13.168  1.00  0.00     0.005 C 
ENDBRANCH  19  20
ENDBRANCH  18  19
ENDBRANCH  15  18
ENDBRANCH  13  14
ENDBRANCH  12  13
ENDBRANCH  11  12
ENDBRANCH   7  11
ENDBRANCH   4   5
ENDBRANCH   1   4
BRANCH   1  22
HETATM   22  N4  UNL     1      27.439   4.935  15.131  1.00  0.00    -0.061 N 
ATOM     23  H42 UNL     1      26.996   5.837  14.959  1.00  0.00     0.278 HD
ATOM     24  H41 UNL     1      27.209   4.818  16.117  1.00  0.00     0.278 HD
BRANCH  22  25
HETATM   25  C14 UNL     1      28.843   5.020  14.949  1.00  0.00     0.261 C 
BRANCH  25  26
HETATM   26  C15 UNL     1      29.280   6.358  14.369  1.00  0.00     0.264 C 
BRANCH  26  27
HETATM   27  N5  UNL     1      30.461   6.803  15.142  1.00  0.00    -0.073 N 
HETATM   28  C16 UNL     1      29.956   7.680  16.238  1.00  0.00     0.272 C 
HETATM   29  C17 UNL     1      30.956   5.620  15.781  1.00  0.00     0.272 C 
BRANCH  27  30
HETATM   30  C18 UNL     1      31.289   7.594  14.350  1.00  0.00     0.238 C 
BRANCH  30  31
HETATM   31  C19 UNL     1      32.645   7.189  13.964  1.00  0.00     0.047 C 
BRANCH  31  32
HETATM   32  C20 UNL     1      33.609   8.259  13.601  1.00  0.00     0.124 C 
BRANCH  32  33
HETATM   33  N6  UNL     1      34.432   7.778  12.475  1.00  0.00    -0.359 N 
HETATM   34  C21 UNL     1      35.095   8.682  11.615  1.00  0.00     0.250 C 
HETATM   35  O3  UNL     1      34.975   9.920  11.824  1.00  0.00    -0.271 OA
ATOM     36  H6  UNL     1      34.524   6.775  12.315  1.00  0.00     0.162 HD
BRANCH  34  37
HETATM   37  C22 UNL     1      35.921   8.181  10.483  1.00  0.00     0.302 A 
HETATM   38  C23 UNL     1      36.131   8.970   9.285  1.00  0.00     0.276 A 
HETATM   39  N7  UNL     1      37.191   8.854  10.265  1.00  0.00    -0.058 N 
ATOM     40  H72 UNL     1      37.758   9.514  10.797  1.00  0.00     0.278 HD
ATOM     41  H71 UNL     1      38.167   8.562  10.241  1.00  0.00     0.278 HD
ENDBRANCH  34  37
ENDBRANCH  32  33
ENDBRANCH  31  32
ENDBRANCH  30  31
ENDBRANCH  27  30
ENDBRANCH  26  27
ENDBRANCH  25  26
ENDBRANCH  22  25
ENDBRANCH   1  22
TORSDOF 18
ENDMDL
MODEL 4
REMARK VINA RESULT: -7.477287554      2.725      4.559
REMARK  18 active torsions:
REMARK  status: ('A' for Active; 'I' for Inactive)
REMARK    1  A    between atoms: C2_2  and  C3_3 
REMARK    2  A    between atoms: C3_3  and  C4_4 
REMARK    3  A    between atoms: C4_4  and  C5_5 
REMARK       I    between atoms: C5_5  and  N1_7 
REMARK    4  A    between atoms: N1_7  and  C6_9 
REMARK    5  A    between atoms: C6_9  and  C7_10 
REMARK    6  A    between atoms: C7_10  and  C8_11 
REMARK    7  A    between atoms: C8_11  and  N2_12 
REMARK       I    between atoms: N2_12  and  C9_14 
REMARK       I    between atoms: C9_14  and  N3_16 
REMARK    8  A    between atoms: N3_16  and  C10_18 
REMARK    9  A    between atoms: C10_18  and  C11_19 
REMARK   10  A    between atoms: C11_19  and  N4_22 
REMARK   11  A    between atoms: N4_22  and  C14_25 
REMARK   12  A    between atoms: C14_25  and  C15_26 
REMARK   13  A    between atoms: C15_26  and  N5_27 
REMARK   14  A    between atoms: N5_27  and  C18_30 
REMARK   15  A    between atoms: C18_30  and  C19_31 
REMARK   16  A    between atoms: C19_31  and  C20_32 
REMARK   17  A    between atoms: C20_32  and  N6_33 
REMARK       I    between atoms: N6_33  and  C21_35 
REMARK   18  A    between atoms: C21_35  and  C22_37 
ROOT
HETATM    1  C11 UNL     1      24.902   3.043  14.525  1.00  0.00     0.150 C 
HETATM    2  C12 UNL     1      24.174   1.993  13.600  1.00  0.00     0.052 C 
HETATM    3  C13 UNL     1      24.325   2.807  15.860  1.00  0.00     0.052 C 
ENDROOT
BRANCH   1   4
HETATM    4  C10 UNL     1      26.337   2.709  14.310  1.00  0.00     0.103 C 
BRANCH   4   5
HETATM    5  N3  UNL     1      27.341   3.316  15.076  1.00  0.00    -0.320 N 
HETATM    6  C9  UNL     1      27.854   4.615  15.088  1.00  0.00     0.319 C 
HETATM    7  N2  UNL     1      28.924   4.985  15.969  1.00  0.00    -0.343 N 
HETATM    8  O2  UNL     1      27.412   5.500  14.348  1.00  0.00    -0.247 OA
ATOM      9  H2  UNL     1      29.319   4.275  16.586  1.00  0.00     0.164 HD
ATOM     10  H3  UNL     1      27.780   2.691  15.752  1.00  0.00     0.169 HD
BRANCH   7  11
HETATM   11  C8  UNL     1      29.465   6.325  16.016  1.00  0.00     0.126 C 
BRANCH  11  12
HETATM   12  C7  UNL     1      30.979   6.351  16.017  1.00  0.00     0.039 C 
BRANCH  12  13
HETATM   13  C6  UNL     1      31.550   5.860  14.720  1.00  0.00     0.124 C 
BRANCH  13  14
HETATM   14  N1  UNL     1      32.774   6.582  14.445  1.00  0.00    -0.361 N 
HETATM   15  C5  UNL     1      32.701   7.764  13.637  1.00  0.00     0.217 C 
HETATM   16  O1  UNL     1      31.582   8.106  13.217  1.00  0.00    -0.274 OA
ATOM     17  H1  UNL     1      33.666   6.258  14.817  1.00  0.00     0.162 HD
BRANCH  15  18
HETATM   18  C4  UNL     1      33.959   8.487  13.367  1.00  0.00     0.103 C 
BRANCH  18  19
HETATM   19  C3  UNL     1      34.667   7.999  12.143  1.00  0.00     0.009 C 
BRANCH  19  20
HETATM   20  C2  UNL     1      35.238   9.098  11.287  1.00  0.00    -0.004 C 
HETATM   21  C1  UNL     1      36.167   8.438  10.260  1.00  0.00     0.005 C 
ENDBRANCH  19  20
ENDBRANCH  18  19
ENDBRANCH  15  18
ENDBRANCH  13  14
ENDBRANCH  12  13
ENDBRANCH  11  12
ENDBRANCH   7  11
ENDBRANCH   4   5
ENDBRANCH   1   4
BRANCH   1  22
HETATM   22  N4  UNL     1      24.513   4.301  13.979  1.00  0.00    -0.061 N 
ATOM     23  H42 UNL     1      24.080   4.886  14.694  1.00  0.00     0.278 HD
ATOM     24  H41 UNL     1      25.332   4.871  13.767  1.00  0.00     0.278 HD
BRANCH  22  25
HETATM   25  C14 UNL     1      23.672   4.186  12.844  1.00  0.00     0.261 C 
BRANCH  25  26
HETATM   26  C15 UNL     1      22.536   5.199  12.849  1.00  0.00     0.264 C 
BRANCH  26  27
HETATM   27  N5  UNL     1      21.270   4.434  12.790  1.00  0.00    -0.073 N 
HETATM   28  C16 UNL     1      20.170   5.431  12.645  1.00  0.00     0.272 C 
HETATM   29  C17 UNL     1      21.323   3.722  11.549  1.00  0.00     0.272 C 
BRANCH  27  30
HETATM   30  C18 UNL     1      21.048   3.769  13.993  1.00  0.00     0.238 C 
BRANCH  30  31
HETATM   31  C19 UNL     1      20.292   4.362  15.102  1.00  0.00     0.047 C 
BRANCH  31  32
HETATM   32  C20 UNL     1      21.050   5.128  16.123  1.00  0.00     0.124 C 
BRANCH  32  33
HETATM   33  N6  UNL     1      20.294   6.357  16.435  1.00  0.00    -0.359 N 
HETATM   34  C21 UNL     1      20.665   7.603  15.881  1.00  0.00     0.250 C 
HETATM   35  O3  UNL     1      21.660   7.654  15.108  1.00  0.00    -0.271 OA
ATOM     36  H6  UNL     1      19.490   6.305  17.060  1.00  0.00     0.162 HD
BRANCH  34  37
HETATM   37  C22 UNL     1      19.893   8.833  16.206  1.00  0.00     0.302 A 
HETATM   38  C23 UNL     1      20.530  10.133  16.289  1.00  0.00     0.276 A 
HETATM   39  N7  UNL     1      19.732   9.795  15.129  1.00  0.00    -0.058 N 
ATOM     40  H72 UNL     1      19.891   9.784  14.122  1.00  0.00     0.278 HD
ATOM     41  H71 UNL     1      18.936  10.219  14.653  1.00  0.00     0.278 HD
ENDBRANCH  34  37
ENDBRANCH  32  33
ENDBRANCH  31  32
ENDBRANCH  30  31
ENDBRANCH  27  30
ENDBRANCH  26  27
ENDBRANCH  25  26
ENDBRANCH  22  25
ENDBRANCH   1  22
TORSDOF 18
ENDMDL
MODEL 5
REMARK VINA RESULT: -7.475823308      2.005      2.856
REMARK  18 active torsions:
REMARK  status: ('A' for Active; 'I' for Inactive)
REMARK    1  A    between atoms: C2_2  and  C3_3 
REMARK    2  A    between atoms: C3_3  and  C4_4 
REMARK    3  A    between atoms: C4_4  and  C5_5 
REMARK       I    between atoms: C5_5  and  N1_7 
REMARK    4  A    between atoms: N1_7  and  C6_9 
REMARK    5  A    between atoms: C6_9  and  C7_10 
REMARK    6  A    between atoms: C7_10  and  C8_11 
REMARK    7  A    between atoms: C8_11  and  N2_12 
REMARK       I    between atoms: N2_12  and  C9_14 
REMARK       I    between atoms: C9_14  and  N3_16 
REMARK    8  A    between atoms: N3_16  and  C10_18 
REMARK    9  A    between atoms: C10_18  and  C11_19 
REMARK   10  A    between atoms: C11_19  and  N4_22 
REMARK   11  A    between atoms: N4_22  and  C14_25 
REMARK   12  A    between atoms: C14_25  and  C15_26 
REMARK   13  A    between atoms: C15_26  and  N5_27 
REMARK   14  A    between atoms: N5_27  and  C18_30 
REMARK   15  A    between atoms: C18_30  and  C19_31 
REMARK   16  A    between atoms: C19_31  and  C20_32 
REMARK   17  A    between atoms: C20_32  and  N6_33 
REMARK       I    between atoms: N6_33  and  C21_35 
REMARK   18  A    between atoms: C21_35  and  C22_37 
ROOT
HETATM    1  C11 UNL     1      26.692   3.736  14.604  1.00  0.00     0.150 C 
HETATM    2  C12 UNL     1      26.418   3.474  13.073  1.00  0.00     0.052 C 
HETATM    3  C13 UNL     1      27.421   2.535  15.050  1.00  0.00     0.052 C 
ENDROOT
BRANCH   1   4
HETATM    4  C10 UNL     1      27.423   5.032  14.576  1.00  0.00     0.103 C 
BRANCH   4   5
HETATM    5  N3  UNL     1      28.811   5.073  14.389  1.00  0.00    -0.320 N 
HETATM    6  C9  UNL     1      29.864   5.390  15.250  1.00  0.00     0.319 C 
HETATM    7  N2  UNL     1      31.225   5.383  14.797  1.00  0.00    -0.343 N 
HETATM    8  O2  UNL     1      29.673   5.688  16.434  1.00  0.00    -0.247 OA
ATOM      9  H2  UNL     1      31.416   5.152  13.823  1.00  0.00     0.164 HD
ATOM     10  H3  UNL     1      29.109   4.824  13.445  1.00  0.00     0.169 HD
BRANCH   7  11
HETATM   11  C8  UNL     1      32.337   5.691  15.669  1.00  0.00     0.126 C 
BRANCH  11  12
HETATM   12  C7  UNL     1      32.891   7.084  15.450  1.00  0.00     0.039 C 
BRANCH  12  13
HETATM   13  C6  UNL     1      32.695   7.550  14.038  1.00  0.00     0.124 C 
BRANCH  13  14
HETATM   14  N1  UNL     1      33.818   8.383  13.662  1.00  0.00    -0.361 N 
HETATM   15  C5  UNL     1      34.508   8.086  12.441  1.00  0.00     0.217 C 
HETATM   16  O1  UNL     1      34.099   7.125  11.768  1.00  0.00    -0.274 OA
ATOM     17  H1  UNL     1      34.111   9.162  14.251  1.00  0.00     0.162 HD
BRANCH  15  18
HETATM   18  C4  UNL     1      35.651   8.946  12.074  1.00  0.00     0.103 C 
BRANCH  18  19
HETATM   19  C3  UNL     1      36.099   8.757  10.659  1.00  0.00     0.009 C 
BRANCH  19  20
HETATM   20  C2  UNL     1      35.406   9.658   9.672  1.00  0.00    -0.004 C 
HETATM   21  C1  UNL     1      35.997   9.357   8.289  1.00  0.00     0.005 C 
ENDBRANCH  19  20
ENDBRANCH  18  19
ENDBRANCH  15  18
ENDBRANCH  13  14
ENDBRANCH  12  13
ENDBRANCH  11  12
ENDBRANCH   7  11
ENDBRANCH   4   5
ENDBRANCH   1   4
BRANCH   1  22
HETATM   22  N4  UNL     1      25.387   3.821  15.171  1.00  0.00    -0.061 N 
ATOM     23  H42 UNL     1      25.314   3.231  16.000  1.00  0.00     0.278 HD
ATOM     24  H41 UNL     1      25.238   4.734  15.599  1.00  0.00     0.278 HD
BRANCH  22  25
HETATM   25  C14 UNL     1      24.353   3.523  14.248  1.00  0.00     0.261 C 
BRANCH  25  26
HETATM   26  C15 UNL     1      23.026   3.222  14.930  1.00  0.00     0.264 C 
BRANCH  26  27
HETATM   27  N5  UNL     1      21.962   3.420  13.919  1.00  0.00    -0.073 N 
HETATM   28  C16 UNL     1      20.674   3.535  14.664  1.00  0.00     0.272 C 
HETATM   29  C17 UNL     1      22.213   4.716  13.363  1.00  0.00     0.272 C 
BRANCH  27  30
HETATM   30  C18 UNL     1      21.851   2.296  13.105  1.00  0.00     0.238 C 
BRANCH  30  31
HETATM   31  C19 UNL     1      21.654   2.380  11.654  1.00  0.00     0.047 C 
BRANCH  31  32
HETATM   32  C20 UNL     1      20.381   1.856  11.098  1.00  0.00     0.124 C 
BRANCH  32  33
HETATM   33  N6  UNL     1      19.654   1.163  12.179  1.00  0.00    -0.359 N 
HETATM   34  C21 UNL     1      18.508   0.382  11.906  1.00  0.00     0.250 C 
HETATM   35  O3  UNL     1      18.109   0.282  10.714  1.00  0.00    -0.271 OA
ATOM     36  H6  UNL     1      19.984   1.249  13.140  1.00  0.00     0.162 HD
BRANCH  34  37
HETATM   37  C22 UNL     1      17.785  -0.310  13.008  1.00  0.00     0.302 A 
HETATM   38  C23 UNL     1      17.011   0.425  13.990  1.00  0.00     0.276 A 
HETATM   39  N7  UNL     1      16.334  -0.297  12.933  1.00  0.00    -0.058 N 
ATOM     40  H72 UNL     1      15.650  -0.053  12.216  1.00  0.00     0.278 HD
ATOM     41  H71 UNL     1      15.607  -1.011  12.898  1.00  0.00     0.278 HD
ENDBRANCH  34  37
ENDBRANCH  32  33
ENDBRANCH  31  32
ENDBRANCH  30  31
ENDBRANCH  27  30
ENDBRANCH  26  27
ENDBRANCH  25  26
ENDBRANCH  22  25
ENDBRANCH   1  22
TORSDOF 18
ENDMDL
