MODEL 1
REMARK VINA RESULT: -6.573883680      0.000      0.000
REMARK  22 active torsions:
REMARK  status: ('A' for Active; 'I' for Inactive)
REMARK    1  A    between atoms: N1_2  and  C3_4 
REMARK    2  A    between atoms: N1_2  and  C9_15 
REMARK    3  A    between atoms: C3_4  and  C4_5 
REMARK    4  A    between atoms: C5_6  and  C6_7 
REMARK    5  A    between atoms: C7_8  and  C8_9 
REMARK    6  A    between atoms: C8_9  and  O1_13 
REMARK    7  A    between atoms: C9_15  and  C10_16 
REMARK    8  A    between atoms: C10_16  and  C11_17 
REMARK    9  A    between atoms: C11_17  and  N3_18 
REMARK       I    between atoms: N3_18  and  C12_20 
REMARK       I    between atoms: C12_20  and  N4_22 
REMARK   10  A    between atoms: N4_22  and  C13_24 
REMARK   11  A    between atoms: C13_24  and  C14_25 
REMARK   12  A    between atoms: C14_25  and  C15_26 
REMARK   13  A    between atoms: C15_26  and  C16_27 
REMARK   14  A    between atoms: C16_27  and  C17_28 
REMARK   15  A    between atoms: C17_28  and  N5_29 
REMARK   16  A    between atoms: N5_29  and  C18_31 
REMARK   17  A    between atoms: C18_31  and  C19_32 
REMARK   18  A    between atoms: C19_32  and  N6_33 
REMARK   19  A    between atoms: N6_33  and  C22_36 
REMARK   20  A    between atoms: C22_36  and  C23_37 
REMARK   21  A    between atoms: C23_37  and  C24_38 
REMARK   22  A    between atoms: C24_38  and  N7_39 
ROOT
HETATM    1  N3  UNL     1      22.585   5.815  14.239  1.00  0.00    -0.343 N 
ATOM      2  H3  UNL     1      23.100   6.347  14.940  1.00  0.00     0.164 HD
HETATM    3  C12 UNL     1      21.412   5.162  14.628  1.00  0.00     0.316 C 
HETATM    4  O2  UNL     1      20.727   4.483  13.844  1.00  0.00    -0.247 OA
HETATM    5  N4  UNL     1      20.986   5.282  16.004  1.00  0.00    -0.343 N 
ATOM      6  H4  UNL     1      21.535   5.840  16.658  1.00  0.00     0.164 HD
ENDROOT
BRANCH   1   7
HETATM    7  C11 UNL     1      23.094   5.772  12.908  1.00  0.00     0.126 C 
BRANCH   7   8
HETATM    8  C10 UNL     1      23.925   4.585  12.589  1.00  0.00     0.048 C 
BRANCH   8   9
HETATM    9  C9  UNL     1      24.983   4.218  13.553  1.00  0.00     0.239 C 
BRANCH   9  10
HETATM   10  N1  UNL     1      24.888   2.955  14.217  1.00  0.00    -0.065 N 
HETATM   11  C1  UNL     1      23.686   2.286  13.675  1.00  0.00     0.273 C 
HETATM   12  C2  UNL     1      24.633   3.137  15.652  1.00  0.00     0.273 C 
BRANCH  10  13
HETATM   13  C3  UNL     1      25.980   2.061  14.069  1.00  0.00     0.330 C 
BRANCH  13  14
HETATM   14  C4  UNL     1      27.229   2.757  14.480  1.00  0.00    -0.065 C 
HETATM   15  C5  UNL     1      28.256   3.315  14.792  1.00  0.00    -0.013 C 
BRANCH  15  16
HETATM   16  C6  UNL     1      29.467   3.957  15.133  1.00  0.00    -0.006 C 
HETATM   17  C7  UNL     1      30.502   4.515  15.404  1.00  0.00    -0.009 C 
BRANCH  17  18
HETATM   18  C8  UNL     1      31.730   5.192  15.703  1.00  0.00     0.191 C 
HETATM   19  N2  UNL     1      31.812   6.250  16.431  1.00  0.00    -0.373 N 
ATOM     20  H22 UNL     1      30.949   6.629  16.820  1.00  0.00     0.158 HD
ATOM     21  H21 UNL     1      32.686   6.732  16.644  1.00  0.00     0.158 HD
BRANCH  18  22
HETATM   22  O1  UNL     1      32.903   4.676  15.173  1.00  0.00    -0.340 OA
ATOM     23  H1  UNL     1      33.723   4.916  15.589  1.00  0.00     0.220 HD
ENDBRANCH  18  22
ENDBRANCH  17  18
ENDBRANCH  15  16
ENDBRANCH  13  14
ENDBRANCH  10  13
ENDBRANCH   9  10
ENDBRANCH   8   9
ENDBRANCH   7   8
ENDBRANCH   1   7
BRANCH   5  24
HETATM   24  C13 UNL     1      19.788   4.620  16.460  1.00  0.00     0.124 C 
BRANCH  24  25
HETATM   25  C14 UNL     1      18.858   5.661  17.049  1.00  0.00     0.020 C 
BRANCH  25  26
HETATM   26  C15 UNL     1      18.266   6.520  15.979  1.00  0.00     0.007 C 
BRANCH  26  27
HETATM   27  C16 UNL     1      17.533   5.683  14.981  1.00  0.00     0.044 C 
BRANCH  27  28
HETATM   28  C17 UNL     1      17.783   6.093  13.569  1.00  0.00     0.060 C 
BRANCH  28  29
HETATM   29  N5  UNL     1      17.860   5.115  12.597  1.00  0.00    -0.381 N 
ATOM     30  H5  UNL     1      18.227   5.389  11.686  1.00  0.00     0.164 HD
BRANCH  29  31
HETATM   31  C18 UNL     1      17.476   3.782  12.757  1.00  0.00     0.087 C 
BRANCH  31  32
HETATM   32  C19 UNL     1      17.417   2.895  11.563  1.00  0.00     0.281 C 
BRANCH  32  33
HETATM   33  N6  UNL     1      17.939   1.549  11.953  1.00  0.00    -0.070 N 
HETATM   34  C20 UNL     1      16.854   0.625  11.932  1.00  0.00     0.272 C 
HETATM   35  C21 UNL     1      18.378   1.720  13.327  1.00  0.00     0.272 C 
BRANCH  33  36
HETATM   36  C22 UNL     1      19.067   1.233  11.146  1.00  0.00     0.238 C 
BRANCH  36  37
HETATM   37  C23 UNL     1      20.407   1.619  11.643  1.00  0.00     0.055 C 
BRANCH  37  38
HETATM   38  C24 UNL     1      21.204   2.478  10.697  1.00  0.00     0.231 C 
BRANCH  38  39
HETATM   39  N7  UNL     1      20.791   3.877  10.896  1.00  0.00    -0.079 N 
ATOM     40  H73 UNL     1      20.220   4.233  10.130  1.00  0.00     0.274 HD
ATOM     41  H72 UNL     1      20.101   3.983  11.641  1.00  0.00     0.274 HD
ATOM     42  H71 UNL     1      21.631   4.433  11.055  1.00  0.00     0.274 HD
ENDBRANCH  38  39
ENDBRANCH  37  38
ENDBRANCH  36  37
ENDBRANCH  33  36
ENDBRANCH  32  33
ENDBRANCH  31  32
ENDBRANCH  29  31
ENDBRANCH  28  29
ENDBRANCH  27  28
ENDBRANCH  26  27
ENDBRANCH  25  26
ENDBRANCH  24  25
ENDBRANCH   5  24
TORSDOF 22
ENDMDL
MODEL 2
REMARK VINA RESULT: -6.442470845      2.607     10.819
REMARK  22 active torsions:
REMARK  status: ('A' for Active; 'I' for Inactive)
REMARK    1  A    between atoms: N1_2  and  C3_4 
REMARK    2  A    between atoms: N1_2  and  C9_15 
REMARK    3  A    between atoms: C3_4  and  C4_5 
REMARK    4  A    between atoms: C5_6  and  C6_7 
REMARK    5  A    between atoms: C7_8  and  C8_9 
REMARK    6  A    between atoms: C8_9  and  O1_13 
REMARK    7  A    between atoms: C9_15  and  C10_16 
REMARK    8  A    between atoms: C10_16  and  C11_17 
REMARK    9  A    between atoms: C11_17  and  N3_18 
REMARK       I    between atoms: N3_18  and  C12_20 
REMARK       I    between atoms: C12_20  and  N4_22 
REMARK   10  A    between atoms: N4_22  and  C13_24 
REMARK   11  A    between atoms: C13_24  and  C14_25 
REMARK   12  A    between atoms: C14_25  and  C15_26 
REMARK   13  A    between atoms: C15_26  and  C16_27 
REMARK   14  A    between atoms: C16_27  and  C17_28 
REMARK   15  A    between atoms: C17_28  and  N5_29 
REMARK   16  A    between atoms: N5_29  and  C18_31 
REMARK   17  A    between atoms: C18_31  and  C19_32 
REMARK   18  A    between atoms: C19_32  and  N6_33 
REMARK   19  A    between atoms: N6_33  and  C22_36 
REMARK   20  A    between atoms: C22_36  and  C23_37 
REMARK   21  A    between atoms: C23_37  and  C24_38 
REMARK   22  A    between atoms: C24_38  and  N7_39 
ROOT
HETATM    1  N3  UNL     1      22.974   6.416  12.852  1.00  0.00    -0.343 N 
ATOM      2  H3  UNL     1      23.546   7.184  12.502  1.00  0.00     0.164 HD
HETATM    3  C12 UNL     1      23.595   5.195  13.130  1.00  0.00     0.316 C 
HETATM    4  O2  UNL     1      22.974   4.203  13.550  1.00  0.00    -0.247 OA
HETATM    5  N4  UNL     1      25.020   5.089  12.916  1.00  0.00    -0.343 N 
ATOM      6  H4  UNL     1      25.544   5.896  12.577  1.00  0.00     0.164 HD
ENDROOT
BRANCH   1   7
HETATM    7  C11 UNL     1      21.577   6.637  13.035  1.00  0.00     0.126 C 
BRANCH   7   8
HETATM    8  C10 UNL     1      21.196   7.203  14.353  1.00  0.00     0.048 C 
BRANCH   8   9
HETATM    9  C9  UNL     1      19.875   6.825  14.898  1.00  0.00     0.239 C 
BRANCH   9  10
HETATM   10  N1  UNL     1      19.832   6.112  16.137  1.00  0.00    -0.065 N 
HETATM   11  C1  UNL     1      18.404   5.844  16.416  1.00  0.00     0.273 C 
HETATM   12  C2  UNL     1      20.305   6.956  17.242  1.00  0.00     0.273 C 
BRANCH  10  13
HETATM   13  C3  UNL     1      20.520   4.873  16.197  1.00  0.00     0.330 C 
BRANCH  13  14
HETATM   14  C4  UNL     1      19.950   3.957  15.172  1.00  0.00    -0.065 C 
HETATM   15  C5  UNL     1      19.510   3.207  14.332  1.00  0.00    -0.013 C 
BRANCH  15  16
HETATM   16  C6  UNL     1      19.023   2.326  13.341  1.00  0.00    -0.006 C 
HETATM   17  C7  UNL     1      18.590   1.567  12.509  1.00  0.00    -0.009 C 
BRANCH  17  18
HETATM   18  C8  UNL     1      18.055   0.659  11.537  1.00  0.00     0.191 C 
HETATM   19  N2  UNL     1      16.922   0.059  11.656  1.00  0.00    -0.373 N 
ATOM     20  H22 UNL     1      16.373   0.241  12.495  1.00  0.00     0.158 HD
ATOM     21  H21 UNL     1      16.542  -0.587  10.964  1.00  0.00     0.158 HD
BRANCH  18  22
HETATM   22  O1  UNL     1      18.803   0.411  10.395  1.00  0.00    -0.340 OA
ATOM     23  H1  UNL     1      19.199   1.152   9.952  1.00  0.00     0.220 HD
ENDBRANCH  18  22
ENDBRANCH  17  18
ENDBRANCH  15  16
ENDBRANCH  13  14
ENDBRANCH  10  13
ENDBRANCH   9  10
ENDBRANCH   8   9
ENDBRANCH   7   8
ENDBRANCH   1   7
BRANCH   5  24
HETATM   24  C13 UNL     1      25.709   3.848  13.178  1.00  0.00     0.124 C 
BRANCH  24  25
HETATM   25  C14 UNL     1      26.392   3.954  14.527  1.00  0.00     0.020 C 
BRANCH  25  26
HETATM   26  C15 UNL     1      27.338   2.818  14.741  1.00  0.00     0.007 C 
BRANCH  26  27
HETATM   27  C16 UNL     1      28.570   3.287  15.447  1.00  0.00     0.044 C 
BRANCH  27  28
HETATM   28  C17 UNL     1      29.531   3.992  14.551  1.00  0.00     0.060 C 
BRANCH  28  29
HETATM   29  N5  UNL     1      29.963   5.256  14.903  1.00  0.00    -0.381 N 
ATOM     30  H5  UNL     1      30.254   5.877  14.149  1.00  0.00     0.164 HD
BRANCH  29  31
HETATM   31  C18 UNL     1      30.034   5.755  16.205  1.00  0.00     0.087 C 
BRANCH  31  32
HETATM   32  C19 UNL     1      29.380   7.053  16.523  1.00  0.00     0.281 C 
BRANCH  32  33
HETATM   33  N6  UNL     1      30.443   8.033  16.902  1.00  0.00    -0.070 N 
HETATM   34  C20 UNL     1      31.508   7.319  17.525  1.00  0.00     0.272 C 
HETATM   35  C21 UNL     1      29.808   8.882  17.895  1.00  0.00     0.272 C 
BRANCH  33  36
HETATM   36  C22 UNL     1      30.777   8.823  15.768  1.00  0.00     0.238 C 
BRANCH  36  37
HETATM   37  C23 UNL     1      32.125   8.657  15.178  1.00  0.00     0.055 C 
BRANCH  37  38
HETATM   38  C24 UNL     1      32.141   7.995  13.826  1.00  0.00     0.231 C 
BRANCH  38  39
HETATM   39  N7  UNL     1      32.929   6.756  13.936  1.00  0.00    -0.079 N 
ATOM     40  H73 UNL     1      32.671   6.195  14.747  1.00  0.00     0.274 HD
ATOM     41  H72 UNL     1      32.693   6.073  13.217  1.00  0.00     0.274 HD
ATOM     42  H71 UNL     1      33.917   7.010  13.929  1.00  0.00     0.274 HD
ENDBRANCH  38  39
ENDBRANCH  37  38
ENDBRANCH  36  37
ENDBRANCH  33  36
ENDBRANCH  32  33
ENDBRANCH  31  32
ENDBRANCH  29  31
ENDBRANCH  28  29
ENDBRANCH  27  28
ENDBRANCH  26  27
ENDBRANCH  25  26
ENDBRANCH  24  25
ENDBRANCH   5  24
TORSDOF 22
ENDMDL
MODEL 3
REMARK VINA RESULT: -6.418369315      2.644     10.488
REMARK  22 active torsions:
REMARK  status: ('A' for Active; 'I' for Inactive)
REMARK    1  A    between atoms: N1_2  and  C3_4 
REMARK    2  A    between atoms: N1_2  and  C9_15 
REMARK    3  A    between atoms: C3_4  and  C4_5 
REMARK    4  A    between atoms: C5_6  and  C6_7 
REMARK    5  A    between atoms: C7_8  and  C8_9 
REMARK    6  A    between atoms: C8_9  and  O1_13 
REMARK    7  A    between atoms: C9_15  and  C10_16 
REMARK    8  A    between atoms: C10_16  and  C11_17 
REMARK    9  A    between atoms: C11_17  and  N3_18 
REMARK       I    between atoms: N3_18  and  C12_20 
REMARK       I    between atoms: C12_20  and  N4_22 
REMARK   10  A    between atoms: N4_22  and  C13_24 
REMARK   11  A    between atoms: C13_24  and  C14_25 
REMARK   12  A    between atoms: C14_25  and  C15_26 
REMARK   13  A    between atoms: C15_26  and  C16_27 
REMARK   14  A    between atoms: C16_27  and  C17_28 
REMARK   15  A    between atoms: C17_28  and  N5_29 
REMARK   16  A    between atoms: N5_29  and  C18_31 
REMARK   17  A    between atoms: C18_31  and  C19_32 
REMARK   18  A    between atoms: C19_32  and  N6_33 
REMARK   19  A    between atoms: N6_33  and  C22_36 
REMARK   20  A    between atoms: C22_36  and  C23_37 
REMARK   21  A    between atoms: C23_37  and  C24_38 
REMARK   22  A    between atoms: C24_38  and  N7_39 
ROOT
HETATM    1  N3  UNL     1      23.162   6.566  13.563  1.00  0.00    -0.343 N 
ATOM      2  H3  UNL     1      23.723   7.301  13.993  1.00  0.00     0.164 HD
HETATM    3  C12 UNL     1      23.778   5.350  13.255  1.00  0.00     0.316 C 
HETATM    4  O2  UNL     1      23.173   4.404  12.722  1.00  0.00    -0.247 OA
HETATM    5  N4  UNL     1      25.180   5.195  13.570  1.00  0.00    -0.343 N 
ATOM      6  H4  UNL     1      25.688   5.960  14.012  1.00  0.00     0.164 HD
ENDROOT
BRANCH   1   7
HETATM    7  C11 UNL     1      21.783   6.826  13.306  1.00  0.00     0.126 C 
BRANCH   7   8
HETATM    8  C10 UNL     1      21.019   7.369  14.457  1.00  0.00     0.048 C 
BRANCH   8   9
HETATM    9  C9  UNL     1      21.195   6.703  15.764  1.00  0.00     0.239 C 
BRANCH   9  10
HETATM   10  N1  UNL     1      20.030   6.248  16.457  1.00  0.00    -0.065 N 
HETATM   11  C1  UNL     1      18.871   6.622  15.617  1.00  0.00     0.273 C 
HETATM   12  C2  UNL     1      19.857   6.974  17.722  1.00  0.00     0.273 C 
BRANCH  10  13
HETATM   13  C3  UNL     1      19.935   4.858  16.724  1.00  0.00     0.330 C 
BRANCH  13  14
HETATM   14  C4  UNL     1      19.989   4.117  15.435  1.00  0.00    -0.065 C 
HETATM   15  C5  UNL     1      20.014   3.529  14.379  1.00  0.00    -0.013 C 
BRANCH  15  16
HETATM   16  C6  UNL     1      20.019   2.855  13.137  1.00  0.00    -0.006 C 
HETATM   17  C7  UNL     1      20.032   2.298  12.066  1.00  0.00    -0.009 C 
BRANCH  17  18
HETATM   18  C8  UNL     1      20.061   1.658  10.784  1.00  0.00     0.191 C 
HETATM   19  N2  UNL     1      20.868   1.981   9.834  1.00  0.00    -0.373 N 
ATOM     20  H22 UNL     1      21.527   2.739  10.007  1.00  0.00     0.158 HD
ATOM     21  H21 UNL     1      20.888   1.525   8.922  1.00  0.00     0.158 HD
BRANCH  18  22
HETATM   22  O1  UNL     1      19.163   0.627  10.550  1.00  0.00    -0.340 OA
ATOM     23  H1  UNL     1      19.470  -0.265  10.661  1.00  0.00     0.220 HD
ENDBRANCH  18  22
ENDBRANCH  17  18
ENDBRANCH  15  16
ENDBRANCH  13  14
ENDBRANCH  10  13
ENDBRANCH   9  10
ENDBRANCH   8   9
ENDBRANCH   7   8
ENDBRANCH   1   7
BRANCH   5  24
HETATM   24  C13 UNL     1      25.867   3.963  13.263  1.00  0.00     0.124 C 
BRANCH  24  25
HETATM   25  C14 UNL     1      25.972   3.143  14.533  1.00  0.00     0.020 C 
BRANCH  25  26
HETATM   26  C15 UNL     1      27.339   2.561  14.686  1.00  0.00     0.007 C 
BRANCH  26  27
HETATM   27  C16 UNL     1      28.225   3.497  15.443  1.00  0.00     0.044 C 
BRANCH  27  28
HETATM   28  C17 UNL     1      29.419   3.939  14.665  1.00  0.00     0.060 C 
BRANCH  28  29
HETATM   29  N5  UNL     1      29.571   5.284  14.389  1.00  0.00    -0.381 N 
ATOM     30  H5  UNL     1      28.866   5.722  13.796  1.00  0.00     0.164 HD
BRANCH  29  31
HETATM   31  C18 UNL     1      30.609   6.094  14.852  1.00  0.00     0.087 C 
BRANCH  31  32
HETATM   32  C19 UNL     1      30.422   7.570  14.879  1.00  0.00     0.281 C 
BRANCH  32  33
HETATM   33  N6  UNL     1      30.593   8.039  16.288  1.00  0.00    -0.070 N 
HETATM   34  C20 UNL     1      30.982   9.410  16.260  1.00  0.00     0.272 C 
HETATM   35  C21 UNL     1      31.703   7.251  16.795  1.00  0.00     0.272 C 
BRANCH  33  36
HETATM   36  C22 UNL     1      29.424   7.718  17.033  1.00  0.00     0.238 C 
BRANCH  36  37
HETATM   37  C23 UNL     1      29.597   7.082  18.358  1.00  0.00     0.055 C 
BRANCH  37  38
HETATM   38  C24 UNL     1      29.118   7.911  19.520  1.00  0.00     0.231 C 
BRANCH  38  39
HETATM   39  N7  UNL     1      30.186   8.860  19.872  1.00  0.00    -0.079 N 
ATOM     40  H73 UNL     1      31.119   8.481  19.713  1.00  0.00     0.274 HD
ATOM     41  H72 UNL     1      30.246   9.646  19.225  1.00  0.00     0.274 HD
ATOM     42  H71 UNL     1      30.039   9.155  20.837  1.00  0.00     0.274 HD
ENDBRANCH  38  39
ENDBRANCH  37  38
ENDBRANCH  36  37
ENDBRANCH  33  36
ENDBRANCH  32  33
ENDBRANCH  31  32
ENDBRANCH  29  31
ENDBRANCH  28  29
ENDBRANCH  27  28
ENDBRANCH  26  27
ENDBRANCH  25  26
ENDBRANCH  24  25
ENDBRANCH   5  24
TORSDOF 22
ENDMDL
MODEL 4
REMARK VINA RESULT: -6.412044188      2.413      9.614
REMARK  22 active torsions:
REMARK  status: ('A' for Active; 'I' for Inactive)
REMARK    1  A    between atoms: N1_2  and  C3_4 
REMARK    2  A    between atoms: N1_2  and  C9_15 
REMARK    3  A    between atoms: C3_4  and  C4_5 
REMARK    4  A    between atoms: C5_6  and  C6_7 
REMARK    5  A    between atoms: C7_8  and  C8_9 
REMARK    6  A    between atoms: C8_9  and  O1_13 
REMARK    7  A    between atoms: C9_15  and  C10_16 
REMARK    8  A    between atoms: C10_16  and  C11_17 
REMARK    9  A    between atoms: C11_17  and  N3_18 
REMARK       I    between atoms: N3_18  and  C12_20 
REMARK       I    between atoms: C12_20  and  N4_22 
REMARK   10  A    between atoms: N4_22  and  C13_24 
REMARK   11  A    between atoms: C13_24  and  C14_25 
REMARK   12  A    between atoms: C14_25  and  C15_26 
REMARK   13  A    between atoms: C15_26  and  C16_27 
REMARK   14  A    between atoms: C16_27  and  C17_28 
REMARK   15  A    between atoms: C17_28  and  N5_29 
REMARK   16  A    between atoms: N5_29  and  C18_31 
REMARK   17  A    between atoms: C18_31  and  C19_32 
REMARK   18  A    between atoms: C19_32  and  N6_33 
REMARK   19  A    between atoms: N6_33  and  C22_36 
REMARK   20  A    between atoms: C22_36  and  C23_37 
REMARK   21  A    between atoms: C23_37  and  C24_38 
REMARK   22  A    between atoms: C24_38  and  N7_39 
ROOT
HETATM    1  N3  UNL     1      21.337   5.955  13.005  1.00  0.00    -0.343 N 
ATOM      2  H3  UNL     1      20.387   5.759  12.691  1.00  0.00     0.164 HD
HETATM    3  C12 UNL     1      22.293   4.940  12.911  1.00  0.00     0.316 C 
HETATM    4  O2  UNL     1      23.472   5.088  13.278  1.00  0.00    -0.247 OA
HETATM    5  N4  UNL     1      21.885   3.665  12.365  1.00  0.00    -0.343 N 
ATOM      6  H4  UNL     1      20.923   3.531  12.055  1.00  0.00     0.164 HD
ENDROOT
BRANCH   1   7
HETATM    7  C11 UNL     1      21.630   7.253  13.518  1.00  0.00     0.126 C 
BRANCH   7   8
HETATM    8  C10 UNL     1      21.019   7.563  14.835  1.00  0.00     0.048 C 
BRANCH   8   9
HETATM    9  C9  UNL     1      21.021   6.491  15.853  1.00  0.00     0.239 C 
BRANCH   9  10
HETATM   10  N1  UNL     1      19.847   6.308  16.648  1.00  0.00    -0.065 N 
HETATM   11  C1  UNL     1      18.711   6.797  15.836  1.00  0.00     0.273 C 
HETATM   12  C2  UNL     1      19.884   7.164  17.840  1.00  0.00     0.273 C 
BRANCH  10  13
HETATM   13  C3  UNL     1      19.542   4.984  17.059  1.00  0.00     0.330 C 
BRANCH  13  14
HETATM   14  C4  UNL     1      19.302   4.150  15.850  1.00  0.00    -0.065 C 
HETATM   15  C5  UNL     1      19.120   3.453  14.878  1.00  0.00    -0.013 C 
BRANCH  15  16
HETATM   16  C6  UNL     1      18.925   2.619  13.755  1.00  0.00    -0.006 C 
HETATM   17  C7  UNL     1      18.774   1.893  12.803  1.00  0.00    -0.009 C 
BRANCH  17  18
HETATM   18  C8  UNL     1      18.613   1.012  11.684  1.00  0.00     0.191 C 
HETATM   19  N2  UNL     1      19.360   1.032  10.636  1.00  0.00    -0.373 N 
ATOM     20  H22 UNL     1      20.114   1.717  10.602  1.00  0.00     0.158 HD
ATOM     21  H21 UNL     1      19.245   0.405   9.840  1.00  0.00     0.158 HD
BRANCH  18  22
HETATM   22  O1  UNL     1      17.587   0.079  11.731  1.00  0.00    -0.340 OA
ATOM     23  H1  UNL     1      17.591  -0.552  12.441  1.00  0.00     0.220 HD
ENDBRANCH  18  22
ENDBRANCH  17  18
ENDBRANCH  15  16
ENDBRANCH  13  14
ENDBRANCH  10  13
ENDBRANCH   9  10
ENDBRANCH   8   9
ENDBRANCH   7   8
ENDBRANCH   1   7
BRANCH   5  24
HETATM   24  C13 UNL     1      22.830   2.580  12.255  1.00  0.00     0.124 C 
BRANCH  24  25
HETATM   25  C14 UNL     1      22.535   1.573  13.347  1.00  0.00     0.020 C 
BRANCH  25  26
HETATM   26  C15 UNL     1      23.477   1.734  14.496  1.00  0.00     0.007 C 
BRANCH  26  27
HETATM   27  C16 UNL     1      24.868   1.974  14.002  1.00  0.00     0.044 C 
BRANCH  27  28
HETATM   28  C17 UNL     1      25.692   2.796  14.935  1.00  0.00     0.060 C 
BRANCH  28  29
HETATM   29  N5  UNL     1      25.824   4.148  14.688  1.00  0.00    -0.381 N 
ATOM     30  H5  UNL     1      25.003   4.733  14.837  1.00  0.00     0.164 HD
BRANCH  29  31
HETATM   31  C18 UNL     1      26.989   4.781  14.250  1.00  0.00     0.087 C 
BRANCH  31  32
HETATM   32  C19 UNL     1      28.294   4.080  14.391  1.00  0.00     0.281 C 
BRANCH  32  33
HETATM   33  N6  UNL     1      29.287   5.046  14.953  1.00  0.00    -0.070 N 
HETATM   34  C20 UNL     1      29.021   5.202  16.345  1.00  0.00     0.272 C 
HETATM   35  C21 UNL     1      28.989   6.297  14.279  1.00  0.00     0.272 C 
BRANCH  33  36
HETATM   36  C22 UNL     1      30.599   4.631  14.593  1.00  0.00     0.238 C 
BRANCH  36  37
HETATM   37  C23 UNL     1      31.682   4.813  15.585  1.00  0.00     0.055 C 
BRANCH  37  38
HETATM   38  C24 UNL     1      32.459   6.095  15.437  1.00  0.00     0.231 C 
BRANCH  38  39
HETATM   39  N7  UNL     1      32.792   6.263  14.013  1.00  0.00    -0.079 N 
ATOM     40  H73 UNL     1      33.482   5.586  13.687  1.00  0.00     0.274 HD
ATOM     41  H72 UNL     1      32.030   5.988  13.394  1.00  0.00     0.274 HD
ATOM     42  H71 UNL     1      33.088   7.228  13.870  1.00  0.00     0.274 HD
ENDBRANCH  38  39
ENDBRANCH  37  38
ENDBRANCH  36  37
ENDBRANCH  33  36
ENDBRANCH  32  33
ENDBRANCH  31  32
ENDBRANCH  29  31
ENDBRANCH  28  29
ENDBRANCH  27  28
ENDBRANCH  26  27
ENDBRANCH  25  26
ENDBRANCH  24  25
ENDBRANCH   5  24
TORSDOF 22
ENDMDL
MODEL 5
REMARK VINA RESULT: -6.322600412      4.140      7.403
REMARK  22 active torsions:
REMARK  status: ('A' for Active; 'I' for Inactive)
REMARK    1  A    between atoms: N1_2  and  C3_4 
REMARK    2  A    between atoms: N1_2  and  C9_15 
REMARK    3  A    between atoms: C3_4  and  C4_5 
REMARK    4  A    between atoms: C5_6  and  C6_7 
REMARK    5  A    between atoms: C7_8  and  C8_9 
REMARK    6  A    between atoms: C8_9  and  O1_13 
REMARK    7  A    between atoms: C9_15  and  C10_16 
REMARK    8  A    between atoms: C10_16  and  C11_17 
REMARK    9  A    between atoms: C11_17  and  N3_18 
REMARK       I    between atoms: N3_18  and  C12_20 
REMARK       I    between atoms: C12_20  and  N4_22 
REMARK   10  A    between atoms: N4_22  and  C13_24 
REMARK   11  A    between atoms: C13_24  and  C14_25 
REMARK   12  A    between atoms: C14_25  and  C15_26 
REMARK   13  A    between atoms: C15_26  and  C16_27 
REMARK   14  A    between atoms: C16_27  and  C17_28 
REMARK   15  A    between atoms: C17_28  and  N5_29 
REMARK   16  A    between atoms: N5_29  and  C18_31 
REMARK   17  A    between atoms: C18_31  and  C19_32 
REMARK   18  A    between atoms: C19_32  and  N6_33 
REMARK   19  A    between atoms: N6_33  and  C22_36 
REMARK   20  A    between atoms: C22_36  and  C23_37 
REMARK   21  A    between atoms: C23_37  and  C24_38 
REMARK   22  A    between atoms: C24_38  and  N7_39 
ROOT
HETATM    1  N3  UNL     1      28.755   5.810  15.029  1.00  0.00    -0.343 N 
ATOM      2  H3  UNL     1      28.080   6.574  15.057  1.00  0.00     0.164 HD
HETATM    3  C12 UNL     1      28.362   4.594  14.465  1.00  0.00     0.316 C 
HETATM    4  O2  UNL     1      29.115   3.607  14.398  1.00  0.00    -0.247 OA
HETATM    5  N4  UNL     1      27.019   4.486  13.940  1.00  0.00    -0.343 N 
ATOM      6  H4  UNL     1      26.392   5.289  13.984  1.00  0.00     0.164 HD
ENDROOT
BRANCH   1   7
HETATM    7  C11 UNL     1      30.057   6.032  15.568  1.00  0.00     0.126 C 
BRANCH   7   8
HETATM    8  C10 UNL     1      31.039   6.616  14.620  1.00  0.00     0.048 C 
BRANCH   8   9
HETATM    9  C9  UNL     1      31.044   8.086  14.467  1.00  0.00     0.239 C 
BRANCH   9  10
HETATM   10  N1  UNL     1      32.077   8.832  15.116  1.00  0.00    -0.065 N 
HETATM   11  C1  UNL     1      31.665   8.978  16.528  1.00  0.00     0.273 C 
HETATM   12  C2  UNL     1      32.153  10.196  14.578  1.00  0.00     0.273 C 
BRANCH  10  13
HETATM   13  C3  UNL     1      33.383   8.277  15.105  1.00  0.00     0.330 C 
BRANCH  13  14
HETATM   14  C4  UNL     1      33.984   8.489  13.760  1.00  0.00    -0.065 C 
HETATM   15  C5  UNL     1      34.494   8.667  12.679  1.00  0.00    -0.013 C 
BRANCH  15  16
HETATM   16  C6  UNL     1      35.114   8.885  11.428  1.00  0.00    -0.006 C 
HETATM   17  C7  UNL     1      35.654   9.089  10.368  1.00  0.00    -0.009 C 
BRANCH  17  18
HETATM   18  C8  UNL     1      36.311   9.350   9.122  1.00  0.00     0.191 C 
HETATM   19  N2  UNL     1      37.565   9.621   9.009  1.00  0.00    -0.373 N 
ATOM     20  H22 UNL     1      38.124   9.650   9.861  1.00  0.00     0.158 HD
ATOM     21  H21 UNL     1      38.033   9.807   8.122  1.00  0.00     0.158 HD
BRANCH  18  22
HETATM   22  O1  UNL     1      35.550   9.311   7.963  1.00  0.00    -0.340 OA
ATOM     23  H1  UNL     1      35.665   8.570   7.379  1.00  0.00     0.220 HD
ENDBRANCH  18  22
ENDBRANCH  17  18
ENDBRANCH  15  16
ENDBRANCH  13  14
ENDBRANCH  10  13
ENDBRANCH   9  10
ENDBRANCH   8   9
ENDBRANCH   7   8
ENDBRANCH   1   7
BRANCH   5  24
HETATM   24  C13 UNL     1      26.559   3.250  13.355  1.00  0.00     0.124 C 
BRANCH  24  25
HETATM   25  C14 UNL     1      25.851   2.446  14.427  1.00  0.00     0.020 C 
BRANCH  25  26
HETATM   26  C15 UNL     1      24.592   1.837  13.899  1.00  0.00     0.007 C 
BRANCH  26  27
HETATM   27  C16 UNL     1      23.566   1.734  14.981  1.00  0.00     0.044 C 
BRANCH  27  28
HETATM   28  C17 UNL     1      23.755   2.735  16.071  1.00  0.00     0.060 C 
BRANCH  28  29
HETATM   29  N5  UNL     1      22.868   3.789  16.166  1.00  0.00    -0.381 N 
ATOM     30  H5  UNL     1      22.970   4.415  16.965  1.00  0.00     0.164 HD
BRANCH  29  31
HETATM   31  C18 UNL     1      21.843   4.070  15.261  1.00  0.00     0.087 C 
BRANCH  31  32
HETATM   32  C19 UNL     1      22.127   4.944  14.090  1.00  0.00     0.281 C 
BRANCH  32  33
HETATM   33  N6  UNL     1      21.219   4.542  12.974  1.00  0.00    -0.070 N 
HETATM   34  C20 UNL     1      20.523   5.702  12.522  1.00  0.00     0.272 C 
HETATM   35  C21 UNL     1      20.266   3.640  13.595  1.00  0.00     0.272 C 
BRANCH  33  36
HETATM   36  C22 UNL     1      21.965   3.822  11.999  1.00  0.00     0.238 C 
BRANCH  36  37
HETATM   37  C23 UNL     1      21.566   2.427  11.710  1.00  0.00     0.055 C 
BRANCH  37  38
HETATM   38  C24 UNL     1      21.259   2.150  10.262  1.00  0.00     0.231 C 
BRANCH  38  39
HETATM   39  N7  UNL     1      20.317   3.180   9.792  1.00  0.00    -0.079 N 
ATOM     40  H73 UNL     1      20.500   4.097  10.199  1.00  0.00     0.274 HD
ATOM     41  H72 UNL     1      20.464   3.432   8.815  1.00  0.00     0.274 HD
ATOM     42  H71 UNL     1      19.371   2.848   9.976  1.00  0.00     0.274 HD
ENDBRANCH  38  39
ENDBRANCH  37  38
ENDBRANCH  36  37
ENDBRANCH  33  36
ENDBRANCH  32  33
ENDBRANCH  31  32
ENDBRANCH  29  31
ENDBRANCH  28  29
ENDBRANCH  27  28
ENDBRANCH  26  27
ENDBRANCH  25  26
ENDBRANCH  24  25
ENDBRANCH   5  24
TORSDOF 22
ENDMDL
