MODEL 1
REMARK VINA RESULT: -7.624806480      0.000      0.000
REMARK  6 active torsions:
REMARK  status: ('A' for Active; 'I' for Inactive)
REMARK    1  A    between atoms: O1_2  and  C2_3 
REMARK    2  A    between atoms: C6_10  and  O3_11 
REMARK    3  A    between atoms: C11_17  and  C12_18 
REMARK    4  A    between atoms: C12_18  and  C14_20 
REMARK    5  A    between atoms: C14_20  and  C15_21 
REMARK    6  A    between atoms: C15_21  and  C16_22 
ROOT
HETATM    1  C2  UNL     1       9.172  34.820  80.523  1.00  0.00     0.137 C 
HETATM    2  N1  UNL     1       8.272  35.681  80.239  1.00  0.00    -0.247 N 
ATOM      3  H1  UNL     1       8.026  36.413  80.905  1.00  0.00     0.196 HD
HETATM    4  O2  UNL     1       7.665  35.605  79.064  1.00  0.00    -0.267 OA
HETATM    5  C3  UNL     1       7.440  34.423  78.305  1.00  0.00     0.097 C 
HETATM    6  C4  UNL     1       6.422  33.613  79.000  1.00  0.00     0.044 C 
HETATM    7  C5  UNL     1       6.443  32.164  79.332  1.00  0.00     0.035 C 
HETATM    8  C6  UNL     1       6.201  31.151  78.163  1.00  0.00     0.123 C 
HETATM    9  C7  UNL     1       6.623  31.597  76.905  1.00  0.00     0.028 A 
HETATM   10  C8  UNL     1       6.410  31.788  75.536  1.00  0.00     0.001 A 
HETATM   11  C9  UNL     1       6.514  33.255  75.028  1.00  0.00     0.006 C 
HETATM   12  C10 UNL     1       6.116  34.288  76.071  1.00  0.00     0.008 C 
HETATM   13  C11 UNL     1       7.066  34.992  76.924  1.00  0.00     0.027 C 
HETATM   14  C17 UNL     1       7.663  31.221  76.038  1.00  0.00    -0.034 A 
HETATM   15  C18 UNL     1       7.895  29.716  75.836  1.00  0.00     0.016 C 
HETATM   16  C19 UNL     1       8.864  32.117  76.251  1.00  0.00     0.010 C 
HETATM   17  C20 UNL     1       9.099  32.505  77.663  1.00  0.00     0.009 C 
HETATM   18  C21 UNL     1       8.818  33.817  78.227  1.00  0.00     0.031 C 
HETATM   19  C22 UNL     1       9.508  33.792  79.572  1.00  0.00     0.093 C 
ENDROOT
BRANCH  13  20
HETATM   20  C12 UNL     1       6.748  36.482  76.925  1.00  0.00    -0.011 C 
HETATM   21  C13 UNL     1       5.428  36.868  77.470  1.00  0.00     0.010 C 
BRANCH  20  22
HETATM   22  C14 UNL     1       7.139  37.160  75.649  1.00  0.00     0.015 C 
BRANCH  22  23
HETATM   23  C15 UNL     1       8.591  36.915  75.392  1.00  0.00     0.113 C 
BRANCH  23  24
HETATM   24  C16 UNL     1       9.052  37.667  74.174  1.00  0.00     0.172 C 
HETATM   25  O4  UNL     1      10.222  38.124  74.179  1.00  0.00    -0.648 OA
HETATM   26  O5  UNL     1       8.254  37.865  73.086  1.00  0.00    -0.648 OA
ENDBRANCH  23  24
ENDBRANCH  22  23
ENDBRANCH  20  22
ENDBRANCH  13  20
BRANCH   1  27
HETATM   27  O1  UNL     1       9.837  34.866  81.755  1.00  0.00    -0.343 OA
HETATM   28  C1  UNL     1       9.180  35.596  82.803  1.00  0.00     0.211 C 
ENDBRANCH   1  27
BRANCH   8  29
HETATM   29  O3  UNL     1       4.863  30.749  78.126  1.00  0.00    -0.395 OA
ATOM     30  H3  UNL     1       4.464  30.982  77.296  1.00  0.00     0.210 HD
ENDBRANCH   8  29
TORSDOF 6
ENDMDL
MODEL 2
REMARK VINA RESULT: -7.456128347      2.211      4.881
REMARK  6 active torsions:
REMARK  status: ('A' for Active; 'I' for Inactive)
REMARK    1  A    between atoms: O1_2  and  C2_3 
REMARK    2  A    between atoms: C6_10  and  O3_11 
REMARK    3  A    between atoms: C11_17  and  C12_18 
REMARK    4  A    between atoms: C12_18  and  C14_20 
REMARK    5  A    between atoms: C14_20  and  C15_21 
REMARK    6  A    between atoms: C15_21  and  C16_22 
ROOT
HETATM    1  C2  UNL     1       5.967  32.311  75.786  1.00  0.00     0.137 C 
HETATM    2  N1  UNL     1       7.039  32.734  75.235  1.00  0.00    -0.247 N 
ATOM      3  H1  UNL     1       7.259  32.491  74.270  1.00  0.00     0.196 HD
HETATM    4  O2  UNL     1       7.861  33.496  75.943  1.00  0.00    -0.267 OA
HETATM    5  C3  UNL     1       8.038  33.462  77.355  1.00  0.00     0.097 C 
HETATM    6  C4  UNL     1       8.733  32.209  77.704  1.00  0.00     0.044 C 
HETATM    7  C5  UNL     1       8.396  31.211  78.754  1.00  0.00     0.035 C 
HETATM    8  C6  UNL     1       8.706  31.594  80.240  1.00  0.00     0.123 C 
HETATM    9  C7  UNL     1       8.642  32.965  80.517  1.00  0.00     0.028 A 
HETATM   10  C8  UNL     1       9.170  34.127  81.089  1.00  0.00     0.001 A 
HETATM   11  C9  UNL     1       9.427  35.311  80.113  1.00  0.00     0.006 C 
HETATM   12  C10 UNL     1       9.764  34.869  78.698  1.00  0.00     0.008 C 
HETATM   13  C11 UNL     1       8.787  34.781  77.618  1.00  0.00     0.027 C 
HETATM   14  C17 UNL     1       7.762  33.768  81.262  1.00  0.00    -0.034 A 
HETATM   15  C18 UNL     1       7.327  33.237  82.637  1.00  0.00     0.016 C 
HETATM   16  C19 UNL     1       6.712  34.369  80.352  1.00  0.00     0.010 C 
HETATM   17  C20 UNL     1       6.252  33.470  79.266  1.00  0.00     0.009 C 
HETATM   18  C21 UNL     1       6.626  33.592  77.864  1.00  0.00     0.031 C 
HETATM   19  C22 UNL     1       5.671  32.662  77.149  1.00  0.00     0.093 C 
ENDROOT
BRANCH  13  20
HETATM   20  C12 UNL     1       9.346  35.446  76.366  1.00  0.00    -0.011 C 
HETATM   21  C13 UNL     1      10.809  35.342  76.168  1.00  0.00     0.010 C 
BRANCH  20  22
HETATM   22  C14 UNL     1       8.759  36.799  76.116  1.00  0.00     0.015 C 
BRANCH  22  23
HETATM   23  C15 UNL     1       8.039  36.784  74.805  1.00  0.00     0.113 C 
BRANCH  23  24
HETATM   24  C16 UNL     1       8.774  37.607  73.783  1.00  0.00     0.172 C 
HETATM   25  O4  UNL     1       8.154  37.926  72.738  1.00  0.00    -0.648 OA
HETATM   26  O5  UNL     1      10.065  38.009  73.952  1.00  0.00    -0.648 OA
ENDBRANCH  23  24
ENDBRANCH  22  23
ENDBRANCH  20  22
ENDBRANCH  13  20
BRANCH   1  27
HETATM   27  O1  UNL     1       5.073  31.502  75.070  1.00  0.00    -0.343 OA
HETATM   28  C1  UNL     1       5.092  30.101  75.387  1.00  0.00     0.211 C 
ENDBRANCH   1  27
BRANCH   8  29
HETATM   29  O3  UNL     1       9.933  31.060  80.642  1.00  0.00    -0.395 OA
ATOM     30  H3  UNL     1       9.846  30.607  81.472  1.00  0.00     0.210 HD
ENDBRANCH   8  29
TORSDOF 6
ENDMDL
MODEL 3
REMARK VINA RESULT: -7.406683395      1.389      1.708
REMARK  6 active torsions:
REMARK  status: ('A' for Active; 'I' for Inactive)
REMARK    1  A    between atoms: O1_2  and  C2_3 
REMARK    2  A    between atoms: C6_10  and  O3_11 
REMARK    3  A    between atoms: C11_17  and  C12_18 
REMARK    4  A    between atoms: C12_18  and  C14_20 
REMARK    5  A    between atoms: C14_20  and  C15_21 
REMARK    6  A    between atoms: C15_21  and  C16_22 
ROOT
HETATM    1  C2  UNL     1       7.436  35.074  81.227  1.00  0.00     0.137 C 
HETATM    2  N1  UNL     1       7.157  36.079  80.489  1.00  0.00    -0.247 N 
ATOM      3  H1  UNL     1       7.054  37.009  80.895  1.00  0.00     0.196 HD
HETATM    4  O2  UNL     1       7.004  35.889  79.186  1.00  0.00    -0.267 OA
HETATM    5  C3  UNL     1       6.546  34.699  78.555  1.00  0.00     0.097 C 
HETATM    6  C4  UNL     1       5.110  34.540  78.851  1.00  0.00     0.044 C 
HETATM    7  C5  UNL     1       4.381  33.339  79.338  1.00  0.00     0.035 C 
HETATM    8  C6  UNL     1       4.118  32.188  78.308  1.00  0.00     0.123 C 
HETATM    9  C7  UNL     1       5.082  32.074  77.300  1.00  0.00     0.028 A 
HETATM   10  C8  UNL     1       5.439  31.926  75.956  1.00  0.00     0.001 A 
HETATM   11  C9  UNL     1       6.339  33.048  75.362  1.00  0.00     0.006 C 
HETATM   12  C10 UNL     1       6.117  34.408  76.006  1.00  0.00     0.008 C 
HETATM   13  C11 UNL     1       6.939  34.942  77.086  1.00  0.00     0.027 C 
HETATM   14  C17 UNL     1       6.071  31.121  77.003  1.00  0.00    -0.034 A 
HETATM   15  C18 UNL     1       5.669  29.642  77.103  1.00  0.00     0.016 C 
HETATM   16  C19 UNL     1       7.398  31.552  77.588  1.00  0.00     0.010 C 
HETATM   17  C20 UNL     1       7.300  32.220  78.909  1.00  0.00     0.009 C 
HETATM   18  C21 UNL     1       7.456  33.649  79.137  1.00  0.00     0.031 C 
HETATM   19  C22 UNL     1       7.578  33.768  80.640  1.00  0.00     0.093 C 
ENDROOT
BRANCH  13  20
HETATM   20  C12 UNL     1       7.330  36.381  76.770  1.00  0.00    -0.011 C 
HETATM   21  C13 UNL     1       6.315  37.192  76.062  1.00  0.00     0.010 C 
BRANCH  20  22
HETATM   22  C14 UNL     1       8.727  36.503  76.249  1.00  0.00     0.015 C 
BRANCH  22  23
HETATM   23  C15 UNL     1       8.718  36.269  74.772  1.00  0.00     0.113 C 
BRANCH  23  24
HETATM   24  C16 UNL     1       9.088  37.525  74.031  1.00  0.00     0.172 C 
HETATM   25  O4  UNL     1       8.283  37.948  73.164  1.00  0.00    -0.648 OA
HETATM   26  O5  UNL     1      10.246  38.204  74.265  1.00  0.00    -0.648 OA
ENDBRANCH  23  24
ENDBRANCH  22  23
ENDBRANCH  20  22
ENDBRANCH  13  20
BRANCH   1  27
HETATM   27  O1  UNL     1       7.605  35.233  82.609  1.00  0.00    -0.343 OA
HETATM   28  C1  UNL     1       8.752  35.992  83.025  1.00  0.00     0.211 C 
ENDBRANCH   1  27
BRANCH   8  29
HETATM   29  O3  UNL     1       2.836  32.296  77.763  1.00  0.00    -0.395 OA
ATOM     30  H3  UNL     1       2.464  31.436  77.607  1.00  0.00     0.210 HD
ENDBRANCH   8  29
TORSDOF 6
ENDMDL
MODEL 4
REMARK VINA RESULT: -7.303696211      0.880      1.111
REMARK  6 active torsions:
REMARK  status: ('A' for Active; 'I' for Inactive)
REMARK    1  A    between atoms: O1_2  and  C2_3 
REMARK    2  A    between atoms: C6_10  and  O3_11 
REMARK    3  A    between atoms: C11_17  and  C12_18 
REMARK    4  A    between atoms: C12_18  and  C14_20 
REMARK    5  A    between atoms: C14_20  and  C15_21 
REMARK    6  A    between atoms: C15_21  and  C16_22 
ROOT
HETATM    1  C2  UNL     1       8.800  33.664  80.726  1.00  0.00     0.137 C 
HETATM    2  N1  UNL     1       8.125  34.675  80.332  1.00  0.00    -0.247 N 
ATOM      3  H1  UNL     1       7.867  35.414  80.986  1.00  0.00     0.196 HD
HETATM    4  O2  UNL     1       7.766  34.744  79.058  1.00  0.00    -0.267 OA
HETATM    5  C3  UNL     1       7.516  33.644  78.190  1.00  0.00     0.097 C 
HETATM    6  C4  UNL     1       6.263  32.994  78.615  1.00  0.00     0.044 C 
HETATM    7  C5  UNL     1       5.986  31.551  78.845  1.00  0.00     0.035 C 
HETATM    8  C6  UNL     1       5.830  30.636  77.584  1.00  0.00     0.123 C 
HETATM    9  C7  UNL     1       6.566  31.049  76.467  1.00  0.00     0.028 A 
HETATM   10  C8  UNL     1       6.671  31.321  75.099  1.00  0.00     0.001 A 
HETATM   11  C9  UNL     1       7.107  32.766  74.723  1.00  0.00     0.006 C 
HETATM   12  C10 UNL     1       6.673  33.814  75.736  1.00  0.00     0.008 C 
HETATM   13  C11 UNL     1       7.528  34.317  76.806  1.00  0.00     0.027 C 
HETATM   14  C17 UNL     1       7.689  30.533  75.796  1.00  0.00    -0.034 A 
HETATM   15  C18 UNL     1       7.715  29.019  75.541  1.00  0.00     0.016 C 
HETATM   16  C19 UNL     1       8.948  31.205  76.301  1.00  0.00     0.010 C 
HETATM   17  C20 UNL     1       8.947  31.498  77.755  1.00  0.00     0.009 C 
HETATM   18  C21 UNL     1       8.768  32.818  78.342  1.00  0.00     0.031 C 
HETATM   19  C22 UNL     1       9.155  32.629  79.792  1.00  0.00     0.093 C 
ENDROOT
BRANCH  13  20
HETATM   20  C12 UNL     1       7.457  35.839  76.846  1.00  0.00    -0.011 C 
HETATM   21  C13 UNL     1       6.111  36.434  76.688  1.00  0.00     0.010 C 
BRANCH  20  22
HETATM   22  C14 UNL     1       8.545  36.493  76.055  1.00  0.00     0.015 C 
BRANCH  22  23
HETATM   23  C15 UNL     1       7.943  37.527  75.158  1.00  0.00     0.113 C 
BRANCH  23  24
HETATM   24  C16 UNL     1       8.818  37.769  73.960  1.00  0.00     0.172 C 
HETATM   25  O4  UNL     1       8.255  37.891  72.843  1.00  0.00    -0.648 OA
HETATM   26  O5  UNL     1      10.175  37.859  74.045  1.00  0.00    -0.648 OA
ENDBRANCH  23  24
ENDBRANCH  22  23
ENDBRANCH  20  22
ENDBRANCH  13  20
BRANCH   1  27
HETATM   27  O1  UNL     1       9.197  33.554  82.065  1.00  0.00    -0.343 OA
HETATM   28  C1  UNL     1       9.214  34.773  82.824  1.00  0.00     0.211 C 
ENDBRANCH   1  27
BRANCH   8  29
HETATM   29  O3  UNL     1       4.482  30.468  77.259  1.00  0.00    -0.395 OA
ATOM     30  H3  UNL     1       4.363  30.451  76.316  1.00  0.00     0.210 HD
ENDBRANCH   8  29
TORSDOF 6
ENDMDL
MODEL 5
REMARK VINA RESULT: -7.217298354      2.860      4.421
REMARK  6 active torsions:
REMARK  status: ('A' for Active; 'I' for Inactive)
REMARK    1  A    between atoms: O1_2  and  C2_3 
REMARK    2  A    between atoms: C6_10  and  O3_11 
REMARK    3  A    between atoms: C11_17  and  C12_18 
REMARK    4  A    between atoms: C12_18  and  C14_20 
REMARK    5  A    between atoms: C14_20  and  C15_21 
REMARK    6  A    between atoms: C15_21  and  C16_22 
ROOT
HETATM    1  C2  UNL     1      10.756  31.055  74.382  1.00  0.00     0.137 C 
HETATM    2  N1  UNL     1      10.977  32.097  75.088  1.00  0.00    -0.247 N 
ATOM      3  H1  UNL     1      11.929  32.425  75.247  1.00  0.00     0.196 HD
HETATM    4  O2  UNL     1       9.944  32.744  75.609  1.00  0.00    -0.267 OA
HETATM    5  C3  UNL     1       8.696  32.175  75.987  1.00  0.00     0.097 C 
HETATM    6  C4  UNL     1       8.909  31.341  77.184  1.00  0.00     0.044 C 
HETATM    7  C5  UNL     1       8.457  29.949  77.449  1.00  0.00     0.035 C 
HETATM    8  C6  UNL     1       6.942  29.734  77.783  1.00  0.00     0.123 C 
HETATM    9  C7  UNL     1       6.076  30.662  77.194  1.00  0.00     0.028 A 
HETATM   10  C8  UNL     1       5.001  31.554  77.265  1.00  0.00     0.001 A 
HETATM   11  C9  UNL     1       5.308  33.025  76.860  1.00  0.00     0.006 C 
HETATM   12  C10 UNL     1       6.742  33.445  77.142  1.00  0.00     0.008 C 
HETATM   13  C11 UNL     1       7.808  33.423  76.147  1.00  0.00     0.027 C 
HETATM   14  C17 UNL     1       5.109  30.581  76.177  1.00  0.00    -0.034 A 
HETATM   15  C18 UNL     1       4.162  29.372  76.206  1.00  0.00     0.016 C 
HETATM   16  C19 UNL     1       5.714  30.995  74.852  1.00  0.00     0.010 C 
HETATM   17  C20 UNL     1       7.120  30.564  74.658  1.00  0.00     0.009 C 
HETATM   18  C21 UNL     1       8.282  31.438  74.739  1.00  0.00     0.031 C 
HETATM   19  C22 UNL     1       9.407  30.605  74.167  1.00  0.00     0.093 C 
ENDROOT
BRANCH  13  20
HETATM   20  C12 UNL     1       8.576  34.739  76.189  1.00  0.00    -0.011 C 
HETATM   21  C13 UNL     1       9.020  35.193  77.526  1.00  0.00     0.010 C 
BRANCH  20  22
HETATM   22  C14 UNL     1       7.968  35.795  75.321  1.00  0.00     0.015 C 
BRANCH  22  23
HETATM   23  C15 UNL     1       8.674  37.091  75.563  1.00  0.00     0.113 C 
BRANCH  23  24
HETATM   24  C16 UNL     1       9.090  37.723  74.264  1.00  0.00     0.172 C 
HETATM   25  O4  UNL     1      10.278  38.117  74.162  1.00  0.00    -0.648 OA
HETATM   26  O5  UNL     1       8.234  37.879  73.214  1.00  0.00    -0.648 OA
ENDBRANCH  23  24
ENDBRANCH  22  23
ENDBRANCH  20  22
ENDBRANCH  13  20
BRANCH   1  27
HETATM   27  O1  UNL     1      11.822  30.344  73.814  1.00  0.00    -0.343 OA
HETATM   28  C1  UNL     1      12.460  30.954  72.681  1.00  0.00     0.211 C 
ENDBRANCH   1  27
BRANCH   8  29
HETATM   29  O3  UNL     1       6.744  29.673  79.165  1.00  0.00    -0.395 OA
ATOM     30  H3  UNL     1       5.884  29.324  79.366  1.00  0.00     0.210 HD
ENDBRANCH   8  29
TORSDOF 6
ENDMDL
