MODEL 1
REMARK VINA RESULT: -7.792314288      0.000      0.000
REMARK  6 active torsions:
REMARK  status: ('A' for Active; 'I' for Inactive)
REMARK    1  A    between atoms: C2_2  and  C3_3 
REMARK    2  A    between atoms: C6_6  and  N1_7 
REMARK    3  A    between atoms: N1_7  and  C7_9 
REMARK    4  A    between atoms: C9_11  and  C10_12 
REMARK    5  A    between atoms: C11_17  and  C12_18 
REMARK    6  A    between atoms: C15_25  and  N6_26 
ROOT
HETATM    1  C7  UNL     1       6.925  35.065  79.349  1.00  0.00     0.119 A 
HETATM    2  C8  UNL     1       5.770  35.785  79.438  1.00  0.00     0.082 A 
HETATM    3  C9  UNL     1       5.427  36.777  78.553  1.00  0.00     0.098 A 
HETATM    4  N5  UNL     1       6.266  37.058  77.543  1.00  0.00    -0.188 N 
ATOM      5  H5  UNL     1       6.034  37.790  76.872  1.00  0.00     0.184 HD
HETATM    6  C15 UNL     1       7.416  36.369  77.421  1.00  0.00     0.682 A 
HETATM    7  N7  UNL     1       7.737  35.406  78.293  1.00  0.00    -0.177 N 
ATOM      8  H7  UNL     1       8.616  34.906  78.168  1.00  0.00     0.185 HD
ENDROOT
BRANCH   3   9
HETATM    9  C10 UNL     1       4.208  37.563  78.681  1.00  0.00     0.149 A 
HETATM   10  N2  UNL     1       3.904  38.572  77.851  1.00  0.00    -0.282 N 
HETATM   11  N3  UNL     1       2.735  39.058  78.210  1.00  0.00    -0.287 N 
ATOM     12  H2  UNL     1       4.478  38.904  77.076  1.00  0.00     0.188 HD
HETATM   13  C11 UNL     1       2.290  38.362  79.268  1.00  0.00     0.101 A 
ATOM     14  H3  UNL     1       2.249  39.833  77.760  1.00  0.00     0.188 HD
HETATM   15  N4  UNL     1       3.214  37.407  79.582  1.00  0.00    -0.328 N 
ATOM     16  H4  UNL     1       3.164  36.722  80.335  1.00  0.00     0.169 HD
BRANCH  13  17
HETATM   17  C12 UNL     1       1.009  38.623  79.957  1.00  0.00     0.055 A 
HETATM   18  C13 UNL     1       0.686  40.085  80.208  1.00  0.00     0.013 A 
HETATM   19  C14 UNL     1       1.001  39.136  81.357  1.00  0.00     0.013 A 
ENDBRANCH  13  17
ENDBRANCH   3   9
BRANCH   1  20
HETATM   20  N1  UNL     1       7.301  34.160  80.100  1.00  0.00    -0.371 N 
ATOM     21  H1  UNL     1       7.316  33.274  79.594  1.00  0.00     0.161 HD
BRANCH  20  22
HETATM   22  C6  UNL     1       7.710  33.963  81.409  1.00  0.00     0.083 C 
HETATM   23  C5  UNL     1       8.349  35.296  81.877  1.00  0.00     0.025 C 
HETATM   24  C4  UNL     1       9.215  34.918  83.036  1.00  0.00     0.006 C 
HETATM   25  C3  UNL     1       8.365  34.405  84.145  1.00  0.00    -0.015 C 
HETATM   26  C22 UNL     1       6.967  34.054  83.814  1.00  0.00     0.006 C 
HETATM   27  C21 UNL     1       6.726  33.502  82.430  1.00  0.00     0.025 C 
BRANCH  25  28
HETATM   28  C2  UNL     1       9.155  33.272  84.811  1.00  0.00     0.000 C 
HETATM   29  C1  UNL     1      10.612  33.752  84.807  1.00  0.00     0.005 C 
ENDBRANCH  25  28
ENDBRANCH  20  22
ENDBRANCH   1  20
BRANCH   6  30
HETATM   30  N6  UNL     1       8.248  36.683  76.311  1.00  0.00    -0.218 N 
HETATM   31  C16 UNL     1       7.627  37.376  75.208  1.00  0.00     0.141 C 
HETATM   32  C17 UNL     1       8.470  37.378  73.949  1.00  0.00     0.020 C 
HETATM   33  C18 UNL     1       9.923  37.561  74.285  1.00  0.00     0.003 C 
HETATM   34  C19 UNL     1      10.352  36.330  75.059  1.00  0.00     0.020 C 
HETATM   35  C20 UNL     1       9.630  36.301  76.363  1.00  0.00     0.141 C 
ENDBRANCH   6  30
TORSDOF 6
ENDMDL
MODEL 2
REMARK VINA RESULT: -7.747942698      2.734      6.301
REMARK  6 active torsions:
REMARK  status: ('A' for Active; 'I' for Inactive)
REMARK    1  A    between atoms: C2_2  and  C3_3 
REMARK    2  A    between atoms: C6_6  and  N1_7 
REMARK    3  A    between atoms: N1_7  and  C7_9 
REMARK    4  A    between atoms: C9_11  and  C10_12 
REMARK    5  A    between atoms: C11_17  and  C12_18 
REMARK    6  A    between atoms: C15_25  and  N6_26 
ROOT
HETATM    1  C7  UNL     1       6.044  36.037  79.183  1.00  0.00     0.119 A 
HETATM    2  C8  UNL     1       5.097  37.017  79.243  1.00  0.00     0.082 A 
HETATM    3  C9  UNL     1       3.791  36.788  79.596  1.00  0.00     0.098 A 
HETATM    4  N5  UNL     1       3.416  35.534  79.901  1.00  0.00    -0.188 N 
ATOM      5  H5  UNL     1       2.452  35.338  80.168  1.00  0.00     0.184 HD
HETATM    6  C15 UNL     1       4.321  34.539  79.855  1.00  0.00     0.682 A 
HETATM    7  N7  UNL     1       5.591  34.779  79.508  1.00  0.00    -0.177 N 
ATOM      8  H7  UNL     1       6.248  34.000  79.483  1.00  0.00     0.185 HD
ENDROOT
BRANCH   3   9
HETATM    9  C10 UNL     1       2.782  37.837  79.619  1.00  0.00     0.149 A 
HETATM   10  N2  UNL     1       2.632  38.724  78.624  1.00  0.00    -0.282 N 
HETATM   11  N3  UNL     1       1.626  39.515  78.931  1.00  0.00    -0.287 N 
ATOM     12  H2  UNL     1       3.199  38.777  77.778  1.00  0.00     0.188 HD
HETATM   13  C11 UNL     1       1.130  39.136  80.119  1.00  0.00     0.101 A 
ATOM     14  H3  UNL     1       1.280  40.287  78.361  1.00  0.00     0.188 HD
HETATM   15  N4  UNL     1       1.853  38.070  80.572  1.00  0.00    -0.328 N 
ATOM     16  H4  UNL     1       1.720  37.558  81.444  1.00  0.00     0.169 HD
BRANCH  13  17
HETATM   17  C12 UNL     1      -0.005  39.795  80.796  1.00  0.00     0.055 A 
HETATM   18  C13 UNL     1       0.254  41.208  81.286  1.00  0.00     0.013 A 
HETATM   19  C14 UNL     1       0.046  40.059  82.263  1.00  0.00     0.013 A 
ENDBRANCH  13  17
ENDBRANCH   3   9
BRANCH   1  20
HETATM   20  N1  UNL     1       7.233  36.164  78.880  1.00  0.00    -0.371 N 
ATOM     21  H1  UNL     1       7.810  36.135  79.720  1.00  0.00     0.161 HD
BRANCH  20  22
HETATM   22  C6  UNL     1       8.035  36.333  77.763  1.00  0.00     0.083 C 
HETATM   23  C5  UNL     1       8.961  35.090  77.693  1.00  0.00     0.025 C 
HETATM   24  C4  UNL     1      10.115  35.521  76.845  1.00  0.00     0.006 C 
HETATM   25  C3  UNL     1       9.636  35.812  75.465  1.00  0.00    -0.015 C 
HETATM   26  C22 UNL     1       8.176  35.956  75.276  1.00  0.00     0.006 C 
HETATM   27  C21 UNL     1       7.409  36.557  76.428  1.00  0.00     0.025 C 
BRANCH  25  28
HETATM   28  C2  UNL     1      10.454  37.009  74.964  1.00  0.00     0.000 C 
HETATM   29  C1  UNL     1       9.524  37.742  73.990  1.00  0.00     0.005 C 
ENDBRANCH  25  28
ENDBRANCH  20  22
ENDBRANCH   1  20
BRANCH   6  30
HETATM   30  N6  UNL     1       3.878  33.240  80.226  1.00  0.00    -0.218 N 
HETATM   31  C16 UNL     1       4.753  32.474  81.081  1.00  0.00     0.141 C 
HETATM   32  C17 UNL     1       4.385  31.007  81.158  1.00  0.00     0.020 C 
HETATM   33  C18 UNL     1       2.892  30.837  81.193  1.00  0.00     0.003 C 
HETATM   34  C19 UNL     1       2.364  31.318  79.857  1.00  0.00     0.020 C 
HETATM   35  C20 UNL     1       2.608  32.784  79.739  1.00  0.00     0.141 C 
ENDBRANCH   6  30
TORSDOF 6
ENDMDL
MODEL 3
REMARK VINA RESULT: -7.739334483      2.802      6.053
REMARK  6 active torsions:
REMARK  status: ('A' for Active; 'I' for Inactive)
REMARK    1  A    between atoms: C2_2  and  C3_3 
REMARK    2  A    between atoms: C6_6  and  N1_7 
REMARK    3  A    between atoms: N1_7  and  C7_9 
REMARK    4  A    between atoms: C9_11  and  C10_12 
REMARK    5  A    between atoms: C11_17  and  C12_18 
REMARK    6  A    between atoms: C15_25  and  N6_26 
ROOT
HETATM    1  C7  UNL     1       8.107  35.047  77.956  1.00  0.00     0.119 A 
HETATM    2  C8  UNL     1       7.053  35.882  77.727  1.00  0.00     0.082 A 
HETATM    3  C9  UNL     1       6.309  36.454  78.730  1.00  0.00     0.098 A 
HETATM    4  N5  UNL     1       6.630  36.182  80.005  1.00  0.00    -0.188 N 
ATOM      5  H5  UNL     1       6.094  36.595  80.769  1.00  0.00     0.184 HD
HETATM    6  C15 UNL     1       7.664  35.363  80.272  1.00  0.00     0.682 A 
HETATM    7  N7  UNL     1       8.379  34.813  79.283  1.00  0.00    -0.177 N 
ATOM      8  H7  UNL     1       9.155  34.197  79.523  1.00  0.00     0.185 HD
ENDROOT
BRANCH   3   9
HETATM    9  C10 UNL     1       5.163  37.314  78.472  1.00  0.00     0.149 A 
HETATM   10  N2  UNL     1       5.017  38.010  77.335  1.00  0.00    -0.282 N 
HETATM   11  N3  UNL     1       3.874  38.660  77.398  1.00  0.00    -0.287 N 
ATOM     12  H2  UNL     1       5.676  38.032  76.558  1.00  0.00     0.188 HD
HETATM   13  C11 UNL     1       3.287  38.381  78.572  1.00  0.00     0.101 A 
ATOM     14  H3  UNL     1       3.498  39.273  76.675  1.00  0.00     0.188 HD
HETATM   15  N4  UNL     1       4.093  37.526  79.269  1.00  0.00    -0.328 N 
ATOM     16  H4  UNL     1       3.922  37.132  80.194  1.00  0.00     0.169 HD
BRANCH  13  17
HETATM   17  C12 UNL     1       1.988  38.934  79.006  1.00  0.00     0.055 A 
HETATM   18  C13 UNL     1       2.046  40.296  79.675  1.00  0.00     0.013 A 
HETATM   19  C14 UNL     1       1.668  39.046  80.458  1.00  0.00     0.013 A 
ENDBRANCH  13  17
ENDBRANCH   3   9
BRANCH   1  20
HETATM   20  N1  UNL     1       8.822  34.500  77.112  1.00  0.00    -0.371 N 
ATOM     21  H1  UNL     1       9.684  35.031  76.992  1.00  0.00     0.161 HD
BRANCH  20  22
HETATM   22  C6  UNL     1       8.829  33.395  76.277  1.00  0.00     0.083 C 
HETATM   23  C5  UNL     1       9.169  32.171  77.167  1.00  0.00     0.025 C 
HETATM   24  C4  UNL     1       9.672  31.133  76.214  1.00  0.00     0.006 C 
HETATM   25  C3  UNL     1       8.576  30.735  75.289  1.00  0.00    -0.015 C 
HETATM   26  C22 UNL     1       7.384  31.610  75.242  1.00  0.00     0.006 C 
HETATM   27  C21 UNL     1       7.628  33.085  75.449  1.00  0.00     0.025 C 
BRANCH  25  28
HETATM   28  C2  UNL     1       9.228  30.489  73.923  1.00  0.00     0.000 C 
HETATM   29  C1  UNL     1      10.713  30.806  74.132  1.00  0.00     0.005 C 
ENDBRANCH  25  28
ENDBRANCH  20  22
ENDBRANCH   1  20
BRANCH   6  30
HETATM   30  N6  UNL     1       7.983  35.142  81.640  1.00  0.00    -0.218 N 
HETATM   31  C16 UNL     1       7.033  34.381  82.414  1.00  0.00     0.141 C 
HETATM   32  C17 UNL     1       7.268  34.470  83.908  1.00  0.00     0.020 C 
HETATM   33  C18 UNL     1       8.739  34.451  84.215  1.00  0.00     0.003 C 
HETATM   34  C19 UNL     1       9.323  35.724  83.636  1.00  0.00     0.020 C 
HETATM   35  C20 UNL     1       9.214  35.675  82.150  1.00  0.00     0.141 C 
ENDBRANCH   6  30
TORSDOF 6
ENDMDL
MODEL 4
REMARK VINA RESULT: -7.707193161      4.269      7.578
REMARK  6 active torsions:
REMARK  status: ('A' for Active; 'I' for Inactive)
REMARK    1  A    between atoms: C2_2  and  C3_3 
REMARK    2  A    between atoms: C6_6  and  N1_7 
REMARK    3  A    between atoms: N1_7  and  C7_9 
REMARK    4  A    between atoms: C9_11  and  C10_12 
REMARK    5  A    between atoms: C11_17  and  C12_18 
REMARK    6  A    between atoms: C15_25  and  N6_26 
ROOT
HETATM    1  C7  UNL     1       9.404  32.461  77.060  1.00  0.00     0.119 A 
HETATM    2  C8  UNL     1       9.349  32.824  78.374  1.00  0.00     0.082 A 
HETATM    3  C9  UNL     1       9.227  34.125  78.794  1.00  0.00     0.098 A 
HETATM    4  N5  UNL     1       9.156  35.097  77.870  1.00  0.00    -0.188 N 
ATOM      5  H5  UNL     1       9.064  36.072  78.156  1.00  0.00     0.184 HD
HETATM    6  C15 UNL     1       9.206  34.779  76.564  1.00  0.00     0.682 A 
HETATM    7  N7  UNL     1       9.326  33.505  76.169  1.00  0.00    -0.177 N 
ATOM      8  H7  UNL     1       9.362  33.302  75.171  1.00  0.00     0.185 HD
ENDROOT
BRANCH   3   9
HETATM    9  C10 UNL     1       9.207  34.504  80.200  1.00  0.00     0.149 A 
HETATM   10  N2  UNL     1       9.639  35.695  80.638  1.00  0.00    -0.282 N 
HETATM   11  N3  UNL     1       9.463  35.739  81.942  1.00  0.00    -0.287 N 
ATOM     12  H2  UNL     1      10.036  36.438  80.063  1.00  0.00     0.188 HD
HETATM   13  C11 UNL     1       8.918  34.579  82.339  1.00  0.00     0.101 A 
ATOM     14  H3  UNL     1       9.701  36.523  82.549  1.00  0.00     0.188 HD
HETATM   15  N4  UNL     1       8.748  33.781  81.244  1.00  0.00    -0.328 N 
ATOM     16  H4  UNL     1       8.357  32.839  81.220  1.00  0.00     0.169 HD
BRANCH  13  17
HETATM   17  C12 UNL     1       8.580  34.254  83.740  1.00  0.00     0.055 A 
HETATM   18  C13 UNL     1       7.357  34.958  84.299  1.00  0.00     0.013 A 
HETATM   19  C14 UNL     1       8.756  35.276  84.811  1.00  0.00     0.013 A 
ENDBRANCH  13  17
ENDBRANCH   3   9
BRANCH   1  20
HETATM   20  N1  UNL     1       9.509  31.318  76.605  1.00  0.00    -0.371 N 
ATOM     21  H1  UNL     1       8.950  30.671  77.161  1.00  0.00     0.161 HD
BRANCH  20  22
HETATM   22  C6  UNL     1      10.144  30.633  75.582  1.00  0.00     0.083 C 
HETATM   23  C5  UNL     1       9.110  30.501  74.433  1.00  0.00     0.025 C 
HETATM   24  C4  UNL     1       9.605  29.360  73.603  1.00  0.00     0.006 C 
HETATM   25  C3  UNL     1      10.918  29.719  72.997  1.00  0.00    -0.015 C 
HETATM   26  C22 UNL     1      11.615  30.898  73.554  1.00  0.00     0.006 C 
HETATM   27  C21 UNL     1      11.430  31.149  75.031  1.00  0.00     0.025 C 
BRANCH  25  28
HETATM   28  C2  UNL     1      11.759  28.438  72.992  1.00  0.00     0.000 C 
HETATM   29  C1  UNL     1      12.936  28.743  72.057  1.00  0.00     0.005 C 
ENDBRANCH  25  28
ENDBRANCH  20  22
ENDBRANCH   1  20
BRANCH   6  30
HETATM   30  N6  UNL     1       9.088  35.844  75.629  1.00  0.00    -0.218 N 
HETATM   31  C16 UNL     1      10.317  36.435  75.157  1.00  0.00     0.141 C 
HETATM   32  C17 UNL     1      10.113  37.754  74.440  1.00  0.00     0.020 C 
HETATM   33  C18 UNL     1       8.876  37.708  73.588  1.00  0.00     0.003 C 
HETATM   34  C19 UNL     1       7.698  37.573  74.533  1.00  0.00     0.020 C 
HETATM   35  C20 UNL     1       7.774  36.250  75.216  1.00  0.00     0.141 C 
ENDBRANCH   6  30
TORSDOF 6
ENDMDL
MODEL 5
REMARK VINA RESULT: -7.703619635      3.254      4.665
REMARK  6 active torsions:
REMARK  status: ('A' for Active; 'I' for Inactive)
REMARK    1  A    between atoms: C2_2  and  C3_3 
REMARK    2  A    between atoms: C6_6  and  N1_7 
REMARK    3  A    between atoms: N1_7  and  C7_9 
REMARK    4  A    between atoms: C9_11  and  C10_12 
REMARK    5  A    between atoms: C11_17  and  C12_18 
REMARK    6  A    between atoms: C15_25  and  N6_26 
ROOT
HETATM    1  C7  UNL     1       6.260  34.211  78.048  1.00  0.00     0.119 A 
HETATM    2  C8  UNL     1       5.291  35.094  78.425  1.00  0.00     0.082 A 
HETATM    3  C9  UNL     1       5.273  36.410  78.034  1.00  0.00     0.098 A 
HETATM    4  N5  UNL     1       6.257  36.859  77.237  1.00  0.00    -0.188 N 
ATOM      5  H5  UNL     1       6.265  37.832  76.931  1.00  0.00     0.184 HD
HETATM    6  C15 UNL     1       7.230  36.019  76.843  1.00  0.00     0.682 A 
HETATM    7  N7  UNL     1       7.235  34.738  77.234  1.00  0.00    -0.177 N 
ATOM      8  H7  UNL     1       7.989  34.131  76.916  1.00  0.00     0.185 HD
ENDROOT
BRANCH   3   9
HETATM    9  C10 UNL     1       4.254  37.352  78.474  1.00  0.00     0.149 A 
HETATM   10  N2  UNL     1       3.929  38.450  77.776  1.00  0.00    -0.282 N 
HETATM   11  N3  UNL     1       2.963  39.071  78.418  1.00  0.00    -0.287 N 
ATOM     12  H2  UNL     1       4.356  38.752  76.900  1.00  0.00     0.188 HD
HETATM   13  C11 UNL     1       2.668  38.373  79.526  1.00  0.00     0.101 A 
ATOM     14  H3  UNL     1       2.514  39.939  78.124  1.00  0.00     0.188 HD
HETATM   15  N4  UNL     1       3.479  37.276  79.578  1.00  0.00    -0.328 N 
ATOM     16  H4  UNL     1       3.495  36.553  80.296  1.00  0.00     0.169 HD
BRANCH  13  17
HETATM   17  C12 UNL     1       1.634  38.765  80.506  1.00  0.00     0.055 A 
HETATM   18  C13 UNL     1       0.213  38.814  79.975  1.00  0.00     0.013 A 
HETATM   19  C14 UNL     1       0.948  40.082  80.387  1.00  0.00     0.013 A 
ENDBRANCH  13  17
ENDBRANCH   3   9
BRANCH   1  20
HETATM   20  N1  UNL     1       6.343  33.019  78.354  1.00  0.00    -0.371 N 
ATOM     21  H1  UNL     1       6.465  32.928  79.363  1.00  0.00     0.161 HD
BRANCH  20  22
HETATM   22  C6  UNL     1       6.325  31.764  77.767  1.00  0.00     0.083 C 
HETATM   23  C5  UNL     1       5.351  31.856  76.563  1.00  0.00     0.025 C 
HETATM   24  C4  UNL     1       4.954  30.441  76.284  1.00  0.00     0.006 C 
HETATM   25  C3  UNL     1       6.149  29.666  75.849  1.00  0.00    -0.015 C 
HETATM   26  C22 UNL     1       7.472  30.281  76.086  1.00  0.00     0.006 C 
HETATM   27  C21 UNL     1       7.602  31.135  77.323  1.00  0.00     0.025 C 
BRANCH  25  28
HETATM   28  C2  UNL     1       5.995  28.260  76.443  1.00  0.00     0.000 C 
HETATM   29  C1  UNL     1       4.690  27.720  75.844  1.00  0.00     0.005 C 
ENDBRANCH  25  28
ENDBRANCH  20  22
ENDBRANCH   1  20
BRANCH   6  30
HETATM   30  N6  UNL     1       8.224  36.538  75.968  1.00  0.00    -0.218 N 
HETATM   31  C16 UNL     1       7.767  37.391  74.898  1.00  0.00     0.141 C 
HETATM   32  C17 UNL     1       8.816  37.629  73.831  1.00  0.00     0.020 C 
HETATM   33  C18 UNL     1      10.175  37.790  74.450  1.00  0.00     0.003 C 
HETATM   34  C19 UNL     1      10.531  36.458  75.079  1.00  0.00     0.020 C 
HETATM   35  C20 UNL     1       9.596  36.190  76.208  1.00  0.00     0.141 C 
ENDBRANCH   6  30
TORSDOF 6
ENDMDL
