MODEL 1
REMARK VINA RESULT: -8.043183269      0.000      0.000
REMARK  6 active torsions:
REMARK  status: ('A' for Active; 'I' for Inactive)
REMARK    1  A    between atoms: N1_2  and  C2_4 
REMARK    2  A    between atoms: C3_7  and  N3_8 
REMARK    3  A    between atoms: N3_8  and  C4_10 
REMARK    4  A    between atoms: C12_20  and  O1_21 
REMARK    5  A    between atoms: O1_21  and  C13_22 
REMARK    6  A    between atoms: C13_22  and  C14_23 
ROOT
HETATM    1  C2  UNL     1       6.137  29.966  75.784  1.00  0.00     0.695 A 
HETATM    2  N2  UNL     1       5.726  31.225  75.896  1.00  0.00    -0.022 N 
ATOM      3  H2  UNL     1       4.881  31.432  76.429  1.00  0.00     0.203 HD
HETATM    4  C3  UNL     1       6.399  32.218  75.325  1.00  0.00     0.696 A 
HETATM    5  N4  UNL     1       7.508  31.917  74.631  1.00  0.00    -0.154 N 
ATOM      6  H4  UNL     1       8.024  32.680  74.194  1.00  0.00     0.188 HD
HETATM    7  C12 UNL     1       7.979  30.664  74.480  1.00  0.00     0.252 A 
HETATM    8  N5  UNL     1       7.261  29.700  75.076  1.00  0.00    -0.154 N 
ATOM      9  H5  UNL     1       7.572  28.732  74.993  1.00  0.00     0.188 HD
ENDROOT
BRANCH   7  10
HETATM   10  O1  UNL     1       9.137  30.386  73.750  1.00  0.00    -0.320 OA
BRANCH  10  11
HETATM   11  C13 UNL     1      10.359  30.878  74.254  1.00  0.00     0.188 C 
BRANCH  11  12
HETATM   12  C14 UNL     1      11.554  30.166  73.722  1.00  0.00    -0.017 C 
HETATM   13  C15 UNL     1      12.390  31.084  72.847  1.00  0.00     0.016 C 
HETATM   14  C16 UNL     1      13.674  30.424  72.462  1.00  0.00    -0.013 C 
HETATM   15  C17 UNL     1      14.478  29.990  73.656  1.00  0.00     0.009 C 
HETATM   16  C21 UNL     1      13.358  29.181  71.640  1.00  0.00     0.009 C 
HETATM   17  C18 UNL     1      13.654  29.014  74.449  1.00  0.00    -0.013 C 
HETATM   18  C19 UNL     1      13.262  27.796  73.653  1.00  0.00     0.009 C 
HETATM   19  C23 UNL     1      12.388  29.701  74.897  1.00  0.00     0.016 C 
HETATM   20  C20 UNL     1      12.473  28.278  72.445  1.00  0.00    -0.013 C 
HETATM   21  C22 UNL     1      11.213  28.956  72.901  1.00  0.00     0.016 C 
ENDBRANCH  11  12
ENDBRANCH  10  11
ENDBRANCH   7  10
BRANCH   4  22
HETATM   22  N3  UNL     1       5.969  33.575  75.438  1.00  0.00    -0.221 N 
ATOM     23  H3  UNL     1       4.968  33.745  75.535  1.00  0.00     0.178 HD
BRANCH  22  24
HETATM   24  C4  UNL     1       6.828  34.707  75.424  1.00  0.00     0.100 C 
HETATM   25  C5  UNL     1       6.220  36.004  75.850  1.00  0.00     0.026 C 
HETATM   26  C6  UNL     1       7.193  37.123  75.572  1.00  0.00     0.003 C 
HETATM   27  C7  UNL     1       8.618  36.692  75.528  1.00  0.00     0.009 C 
HETATM   28  C8  UNL     1       8.844  35.646  76.594  1.00  0.00    -0.046 C 
HETATM   29  C9  UNL     1      10.339  35.310  76.557  1.00  0.00     0.015 C 
HETATM   30  C10 UNL     1       8.544  36.154  77.967  1.00  0.00     0.015 C 
HETATM   31  C11 UNL     1       8.017  34.443  76.297  1.00  0.00     0.034 C 
ENDBRANCH  22  24
ENDBRANCH   4  22
BRANCH   1  32
HETATM   32  N1  UNL     1       5.473  28.988  76.346  1.00  0.00    -0.230 N 
HETATM   33  C1  UNL     1       4.174  28.680  75.791  1.00  0.00     0.165 C 
ATOM     34  H1  UNL     1       5.853  28.469  77.137  1.00  0.00     0.177 HD
ENDBRANCH   1  32
TORSDOF 6
ENDMDL
MODEL 2
REMARK VINA RESULT: -8.042996381      0.109      1.377
REMARK  6 active torsions:
REMARK  status: ('A' for Active; 'I' for Inactive)
REMARK    1  A    between atoms: N1_2  and  C2_4 
REMARK    2  A    between atoms: C3_7  and  N3_8 
REMARK    3  A    between atoms: N3_8  and  C4_10 
REMARK    4  A    between atoms: C12_20  and  O1_21 
REMARK    5  A    between atoms: O1_21  and  C13_22 
REMARK    6  A    between atoms: C13_22  and  C14_23 
ROOT
HETATM    1  C2  UNL     1       6.014  29.966  75.749  1.00  0.00     0.695 A 
HETATM    2  N2  UNL     1       5.637  31.234  75.876  1.00  0.00    -0.022 N 
ATOM      3  H2  UNL     1       4.784  31.455  76.391  1.00  0.00     0.203 HD
HETATM    4  C3  UNL     1       6.354  32.218  75.344  1.00  0.00     0.696 A 
HETATM    5  N4  UNL     1       7.473  31.898  74.674  1.00  0.00    -0.154 N 
ATOM      6  H4  UNL     1       8.022  32.654  74.266  1.00  0.00     0.188 HD
HETATM    7  C12 UNL     1       7.911  30.635  74.510  1.00  0.00     0.252 A 
HETATM    8  N5  UNL     1       7.149  29.681  75.066  1.00  0.00    -0.154 N 
ATOM      9  H5  UNL     1       7.434  28.706  74.972  1.00  0.00     0.188 HD
ENDROOT
BRANCH   7  10
HETATM   10  O1  UNL     1       9.080  30.338  73.806  1.00  0.00    -0.320 OA
BRANCH  10  11
HETATM   11  C13 UNL     1      10.280  30.928  74.255  1.00  0.00     0.188 C 
BRANCH  11  12
HETATM   12  C14 UNL     1      11.501  30.183  73.842  1.00  0.00    -0.017 C 
HETATM   13  C15 UNL     1      11.140  28.937  73.053  1.00  0.00     0.016 C 
HETATM   14  C16 UNL     1      12.364  28.292  72.490  1.00  0.00    -0.013 C 
HETATM   15  C17 UNL     1      13.161  29.227  71.625  1.00  0.00     0.009 C 
HETATM   16  C21 UNL     1      13.258  27.852  73.643  1.00  0.00     0.009 C 
HETATM   17  C18 UNL     1      13.578  30.404  72.462  1.00  0.00    -0.013 C 
HETATM   18  C19 UNL     1      14.412  30.009  73.653  1.00  0.00     0.009 C 
HETATM   19  C23 UNL     1      12.340  31.098  72.974  1.00  0.00     0.016 C 
HETATM   20  C20 UNL     1      13.582  29.046  74.489  1.00  0.00    -0.013 C 
HETATM   21  C22 UNL     1      12.355  29.747  74.998  1.00  0.00     0.016 C 
ENDBRANCH  11  12
ENDBRANCH  10  11
ENDBRANCH   7  10
BRANCH   4  22
HETATM   22  N3  UNL     1       5.961  33.585  75.473  1.00  0.00    -0.221 N 
ATOM     23  H3  UNL     1       4.968  33.779  75.602  1.00  0.00     0.178 HD
BRANCH  22  24
HETATM   24  C4  UNL     1       6.846  34.695  75.435  1.00  0.00     0.100 C 
HETATM   25  C5  UNL     1       6.259  36.022  75.794  1.00  0.00     0.026 C 
HETATM   26  C6  UNL     1       7.263  37.106  75.496  1.00  0.00     0.003 C 
HETATM   27  C7  UNL     1       8.679  36.642  75.504  1.00  0.00     0.009 C 
HETATM   28  C8  UNL     1       8.855  35.635  76.616  1.00  0.00    -0.046 C 
HETATM   29  C9  UNL     1      10.343  35.265  76.628  1.00  0.00     0.015 C 
HETATM   30  C10 UNL     1       8.536  36.205  77.960  1.00  0.00     0.015 C 
HETATM   31  C11 UNL     1       8.008  34.440  76.347  1.00  0.00     0.034 C 
ENDBRANCH  22  24
ENDBRANCH   4  22
BRANCH   1  32
HETATM   32  N1  UNL     1       5.307  28.997  76.273  1.00  0.00    -0.230 N 
HETATM   33  C1  UNL     1       4.076  28.651  75.597  1.00  0.00     0.165 C 
ATOM     34  H1  UNL     1       5.608  28.510  77.117  1.00  0.00     0.177 HD
ENDBRANCH   1  32
TORSDOF 6
ENDMDL
MODEL 3
REMARK VINA RESULT: -8.024979028      6.352     11.889
REMARK  6 active torsions:
REMARK  status: ('A' for Active; 'I' for Inactive)
REMARK    1  A    between atoms: N1_2  and  C2_4 
REMARK    2  A    between atoms: C3_7  and  N3_8 
REMARK    3  A    between atoms: N3_8  and  C4_10 
REMARK    4  A    between atoms: C12_20  and  O1_21 
REMARK    5  A    between atoms: O1_21  and  C13_22 
REMARK    6  A    between atoms: C13_22  and  C14_23 
ROOT
HETATM    1  C2  UNL     1       4.486  39.223  78.096  1.00  0.00     0.695 A 
HETATM    2  N2  UNL     1       5.199  38.561  77.191  1.00  0.00    -0.022 N 
ATOM      3  H2  UNL     1       5.593  39.064  76.396  1.00  0.00     0.203 HD
HETATM    4  C3  UNL     1       5.408  37.254  77.306  1.00  0.00     0.696 A 
HETATM    5  N4  UNL     1       4.880  36.617  78.364  1.00  0.00    -0.154 N 
ATOM      6  H4  UNL     1       5.041  35.614  78.451  1.00  0.00     0.188 HD
HETATM    7  C12 UNL     1       4.149  37.228  79.317  1.00  0.00     0.252 A 
HETATM    8  N5  UNL     1       3.969  38.547  79.150  1.00  0.00    -0.154 N 
ATOM      9  H5  UNL     1       3.422  39.059  79.843  1.00  0.00     0.188 HD
ENDROOT
BRANCH   7  10
HETATM   10  O1  UNL     1       3.614  36.534  80.404  1.00  0.00    -0.320 OA
BRANCH  10  11
HETATM   11  C13 UNL     1       2.271  36.112  80.311  1.00  0.00     0.188 C 
BRANCH  11  12
HETATM   12  C14 UNL     1       1.324  36.964  81.081  1.00  0.00    -0.017 C 
HETATM   13  C15 UNL     1       0.979  38.228  80.312  1.00  0.00     0.016 C 
HETATM   14  C16 UNL     1      -0.104  38.990  81.003  1.00  0.00    -0.013 C 
HETATM   15  C17 UNL     1      -1.344  38.168  81.209  1.00  0.00     0.009 C 
HETATM   16  C21 UNL     1       0.401  39.419  82.376  1.00  0.00     0.009 C 
HETATM   17  C18 UNL     1      -0.985  36.974  82.049  1.00  0.00    -0.013 C 
HETATM   18  C19 UNL     1      -0.420  37.353  83.394  1.00  0.00     0.009 C 
HETATM   19  C23 UNL     1       0.059  36.165  81.320  1.00  0.00     0.016 C 
HETATM   20  C20 UNL     1       0.817  38.202  83.143  1.00  0.00    -0.013 C 
HETATM   21  C22 UNL     1       1.852  37.387  82.421  1.00  0.00     0.016 C 
ENDBRANCH  11  12
ENDBRANCH  10  11
ENDBRANCH   7  10
BRANCH   4  22
HETATM   22  N3  UNL     1       6.173  36.530  76.341  1.00  0.00    -0.221 N 
ATOM     23  H3  UNL     1       6.052  36.782  75.360  1.00  0.00     0.178 HD
BRANCH  22  24
HETATM   24  C4  UNL     1       7.089  35.486  76.642  1.00  0.00     0.100 C 
HETATM   25  C5  UNL     1       7.472  34.595  75.506  1.00  0.00     0.026 C 
HETATM   26  C6  UNL     1       8.267  33.428  76.037  1.00  0.00     0.003 C 
HETATM   27  C7  UNL     1       8.960  33.702  77.327  1.00  0.00     0.009 C 
HETATM   28  C8  UNL     1       9.484  35.118  77.308  1.00  0.00    -0.046 C 
HETATM   29  C9  UNL     1      10.257  35.308  78.618  1.00  0.00     0.015 C 
HETATM   30  C10 UNL     1      10.449  35.357  76.192  1.00  0.00     0.015 C 
HETATM   31  C11 UNL     1       8.343  36.072  77.217  1.00  0.00     0.034 C 
ENDBRANCH  22  24
ENDBRANCH   4  22
BRANCH   1  32
HETATM   32  N1  UNL     1       4.280  40.510  77.981  1.00  0.00    -0.230 N 
HETATM   33  C1  UNL     1       3.908  41.220  79.185  1.00  0.00     0.165 C 
ATOM     34  H1  UNL     1       4.377  40.990  77.087  1.00  0.00     0.177 HD
ENDBRANCH   1  32
TORSDOF 6
ENDMDL
MODEL 4
REMARK VINA RESULT: -8.008658103      0.168      1.404
REMARK  6 active torsions:
REMARK  status: ('A' for Active; 'I' for Inactive)
REMARK    1  A    between atoms: N1_2  and  C2_4 
REMARK    2  A    between atoms: C3_7  and  N3_8 
REMARK    3  A    between atoms: N3_8  and  C4_10 
REMARK    4  A    between atoms: C12_20  and  O1_21 
REMARK    5  A    between atoms: O1_21  and  C13_22 
REMARK    6  A    between atoms: C13_22  and  C14_23 
ROOT
HETATM    1  C2  UNL     1       5.997  30.033  75.786  1.00  0.00     0.695 A 
HETATM    2  N2  UNL     1       5.620  31.303  75.886  1.00  0.00    -0.022 N 
ATOM      3  H2  UNL     1       4.770  31.536  76.398  1.00  0.00     0.203 HD
HETATM    4  C3  UNL     1       6.335  32.275  75.329  1.00  0.00     0.696 A 
HETATM    5  N4  UNL     1       7.451  31.940  74.662  1.00  0.00    -0.154 N 
ATOM      6  H4  UNL     1       7.999  32.687  74.236  1.00  0.00     0.188 HD
HETATM    7  C12 UNL     1       7.889  30.674  74.524  1.00  0.00     0.252 A 
HETATM    8  N5  UNL     1       7.129  29.732  75.105  1.00  0.00    -0.154 N 
ATOM      9  H5  UNL     1       7.414  28.756  75.031  1.00  0.00     0.188 HD
ENDROOT
BRANCH   7  10
HETATM   10  O1  UNL     1       9.055  30.360  73.823  1.00  0.00    -0.320 OA
BRANCH  10  11
HETATM   11  C13 UNL     1      10.256  30.966  74.249  1.00  0.00     0.188 C 
BRANCH  11  12
HETATM   12  C14 UNL     1      11.480  30.266  73.771  1.00  0.00    -0.017 C 
HETATM   13  C15 UNL     1      12.270  29.695  74.935  1.00  0.00     0.016 C 
HETATM   14  C16 UNL     1      13.396  28.844  74.444  1.00  0.00    -0.013 C 
HETATM   15  C17 UNL     1      12.927  27.728  73.553  1.00  0.00     0.009 C 
HETATM   16  C21 UNL     1      14.349  29.714  73.633  1.00  0.00     0.009 C 
HETATM   17  C18 UNL     1      12.228  28.333  72.368  1.00  0.00    -0.013 C 
HETATM   18  C19 UNL     1      13.117  29.254  71.572  1.00  0.00     0.009 C 
HETATM   19  C23 UNL     1      11.050  29.136  72.858  1.00  0.00     0.016 C 
HETATM   20  C20 UNL     1      13.589  30.353  72.512  1.00  0.00    -0.013 C 
HETATM   21  C22 UNL     1      12.409  31.151  72.991  1.00  0.00     0.016 C 
ENDBRANCH  11  12
ENDBRANCH  10  11
ENDBRANCH   7  10
BRANCH   4  22
HETATM   22  N3  UNL     1       5.943  33.645  75.429  1.00  0.00    -0.221 N 
ATOM     23  H3  UNL     1       4.947  33.843  75.518  1.00  0.00     0.178 HD
BRANCH  22  24
HETATM   24  C4  UNL     1       6.833  34.752  75.414  1.00  0.00     0.100 C 
HETATM   25  C5  UNL     1       6.259  36.068  75.827  1.00  0.00     0.026 C 
HETATM   26  C6  UNL     1       7.264  37.157  75.549  1.00  0.00     0.003 C 
HETATM   27  C7  UNL     1       8.677  36.686  75.518  1.00  0.00     0.009 C 
HETATM   28  C8  UNL     1       8.867  35.642  76.593  1.00  0.00    -0.046 C 
HETATM   29  C9  UNL     1      10.352  35.264  76.567  1.00  0.00     0.015 C 
HETATM   30  C10 UNL     1       8.572  36.167  77.960  1.00  0.00     0.015 C 
HETATM   31  C11 UNL     1       8.009  34.460  76.297  1.00  0.00     0.034 C 
ENDBRANCH  22  24
ENDBRANCH   4  22
BRANCH   1  32
HETATM   32  N1  UNL     1       5.291  29.076  76.333  1.00  0.00    -0.230 N 
HETATM   33  C1  UNL     1       4.003  28.796  75.740  1.00  0.00     0.165 C 
ATOM     34  H1  UNL     1       5.633  28.553  77.139  1.00  0.00     0.177 HD
ENDBRANCH   1  32
TORSDOF 6
ENDMDL
MODEL 5
REMARK VINA RESULT: -7.973964514      1.231      1.559
REMARK  6 active torsions:
REMARK  status: ('A' for Active; 'I' for Inactive)
REMARK    1  A    between atoms: N1_2  and  C2_4 
REMARK    2  A    between atoms: C3_7  and  N3_8 
REMARK    3  A    between atoms: N3_8  and  C4_10 
REMARK    4  A    between atoms: C12_20  and  O1_21 
REMARK    5  A    between atoms: O1_21  and  C13_22 
REMARK    6  A    between atoms: C13_22  and  C14_23 
ROOT
HETATM    1  C2  UNL     1       7.088  30.252  77.333  1.00  0.00     0.695 A 
HETATM    2  N2  UNL     1       6.592  31.437  76.993  1.00  0.00    -0.022 N 
ATOM      3  H2  UNL     1       6.046  31.967  77.672  1.00  0.00     0.203 HD
HETATM    4  C3  UNL     1       6.797  31.943  75.782  1.00  0.00     0.696 A 
HETATM    5  N4  UNL     1       7.521  31.225  74.908  1.00  0.00    -0.154 N 
ATOM      6  H4  UNL     1       7.678  31.615  73.979  1.00  0.00     0.188 HD
HETATM    7  C12 UNL     1       8.053  30.020  75.188  1.00  0.00     0.252 A 
HETATM    8  N5  UNL     1       7.814  29.556  76.425  1.00  0.00    -0.154 N 
ATOM      9  H5  UNL     1       8.192  28.647  76.691  1.00  0.00     0.188 HD
ENDROOT
BRANCH   7  10
HETATM   10  O1  UNL     1       8.801  29.299  74.254  1.00  0.00    -0.320 OA
BRANCH  10  11
HETATM   11  C13 UNL     1       9.520  30.034  73.289  1.00  0.00     0.188 C 
BRANCH  11  12
HETATM   12  C14 UNL     1      10.966  29.682  73.228  1.00  0.00    -0.017 C 
HETATM   13  C15 UNL     1      11.414  29.468  71.793  1.00  0.00     0.016 C 
HETATM   14  C16 UNL     1      12.896  29.292  71.721  1.00  0.00    -0.013 C 
HETATM   15  C17 UNL     1      13.642  30.452  72.318  1.00  0.00     0.009 C 
HETATM   16  C21 UNL     1      13.278  28.042  72.504  1.00  0.00     0.009 C 
HETATM   17  C18 UNL     1      13.242  30.577  73.762  1.00  0.00    -0.013 C 
HETATM   18  C19 UNL     1      13.542  29.336  74.562  1.00  0.00     0.009 C 
HETATM   19  C23 UNL     1      11.756  30.824  73.833  1.00  0.00     0.016 C 
HETATM   20  C20 UNL     1      12.790  28.184  73.914  1.00  0.00    -0.013 C 
HETATM   21  C22 UNL     1      11.312  28.437  73.993  1.00  0.00     0.016 C 
ENDBRANCH  11  12
ENDBRANCH  10  11
ENDBRANCH   7  10
BRANCH   4  22
HETATM   22  N3  UNL     1       6.271  33.216  75.403  1.00  0.00    -0.221 N 
ATOM     23  H3  UNL     1       5.282  33.261  75.157  1.00  0.00     0.178 HD
BRANCH  22  24
HETATM   24  C4  UNL     1       7.018  34.422  75.342  1.00  0.00     0.100 C 
HETATM   25  C5  UNL     1       6.306  35.663  75.775  1.00  0.00     0.026 C 
HETATM   26  C6  UNL     1       7.158  36.864  75.446  1.00  0.00     0.003 C 
HETATM   27  C7  UNL     1       8.615  36.568  75.352  1.00  0.00     0.009 C 
HETATM   28  C8  UNL     1       8.979  35.565  76.422  1.00  0.00    -0.046 C 
HETATM   29  C9  UNL     1      10.496  35.370  76.330  1.00  0.00     0.015 C 
HETATM   30  C10 UNL     1       8.684  36.064  77.799  1.00  0.00     0.015 C 
HETATM   31  C11 UNL     1       8.258  34.285  76.171  1.00  0.00     0.034 C 
ENDBRANCH  22  24
ENDBRANCH   4  22
BRANCH   1  32
HETATM   32  N1  UNL     1       6.885  29.754  78.526  1.00  0.00    -0.230 N 
HETATM   33  C1  UNL     1       6.454  30.677  79.552  1.00  0.00     0.165 C 
ATOM     34  H1  UNL     1       7.023  28.763  78.723  1.00  0.00     0.177 HD
ENDBRANCH   1  32
TORSDOF 6
ENDMDL
