MODEL 1
REMARK VINA RESULT: -8.116286464      0.000      0.000
REMARK  6 active torsions:
REMARK  status: ('A' for Active; 'I' for Inactive)
REMARK    1  A    between atoms: O1_2  and  C2_3 
REMARK    2  A    between atoms: C2_3  and  C3_4 
REMARK    3  A    between atoms: C4_5  and  C5_6 
REMARK    4  A    between atoms: C5_6  and  N1_7 
REMARK    5  A    between atoms: N1_7  and  C6_10 
REMARK    6  A    between atoms: C16_20  and  O2_21 
ROOT
HETATM    1  C3  UNL     1       3.583  37.275  80.179  1.00  0.00     0.010 A 
HETATM    2  C4  UNL     1       4.354  37.731  79.071  1.00  0.00     0.012 A 
HETATM    3  C16 UNL     1       4.096  38.959  78.585  1.00  0.00     0.074 A 
HETATM    4  C17 UNL     1       3.116  39.792  79.117  1.00  0.00     0.047 A 
HETATM    5  C18 UNL     1       2.365  39.383  80.174  1.00  0.00    -0.021 A 
HETATM    6  C19 UNL     1       2.621  38.103  80.690  1.00  0.00     0.086 A 
HETATM    7  O3  UNL     1       1.775  37.792  81.763  1.00  0.00    -0.330 OA
HETATM    8  C20 UNL     1       0.388  38.056  81.703  1.00  0.00     0.225 C 
HETATM    9 CL1  UNL     1      -0.303  37.737  83.312  1.00  0.00    -0.095 Cl
HETATM   10  C21 UNL     1       0.099  39.458  81.230  1.00  0.00     0.053 C 
HETATM   11  C22 UNL     1       1.314  40.201  80.802  1.00  0.00     0.045 C 
ENDROOT
BRANCH   2  12
HETATM   12  C5  UNL     1       5.364  36.776  78.578  1.00  0.00     0.275 C 
BRANCH  12  13
HETATM   13  N1  UNL     1       6.726  37.205  78.805  1.00  0.00    -0.062 N 
ATOM     14  H12 UNL     1       6.822  38.219  78.775  1.00  0.00     0.278 HD
ATOM     15  H11 UNL     1       7.021  37.061  79.772  1.00  0.00     0.278 HD
BRANCH  13  16
HETATM   16  C6  UNL     1       7.605  36.535  77.851  1.00  0.00     0.127 C 
HETATM   17  C7  UNL     1       9.027  36.463  78.285  1.00  0.00     0.043 C 
HETATM   18  C8  UNL     1       9.788  35.591  77.307  1.00  0.00    -0.012 C 
HETATM   19  C9  UNL     1       9.245  34.200  77.204  1.00  0.00     0.009 C 
HETATM   20  C13 UNL     1       9.753  36.217  75.938  1.00  0.00     0.009 C 
HETATM   21  C10 UNL     1       7.811  34.292  76.744  1.00  0.00    -0.012 C 
HETATM   22  C11 UNL     1       7.699  34.967  75.392  1.00  0.00     0.009 C 
HETATM   23  C15 UNL     1       7.058  35.117  77.731  1.00  0.00     0.043 C 
HETATM   24  C12 UNL     1       8.312  36.324  75.507  1.00  0.00    -0.012 C 
HETATM   25  C14 UNL     1       7.531  37.170  76.481  1.00  0.00     0.043 C 
ENDBRANCH  13  16
ENDBRANCH  12  13
ENDBRANCH   2  12
BRANCH   1  26
HETATM   26  C2  UNL     1       3.787  35.913  80.650  1.00  0.00     0.209 C 
BRANCH  26  27
HETATM   27  O1  UNL     1       4.538  35.806  81.783  1.00  0.00    -0.391 OA
HETATM   28  C1  UNL     1       5.485  34.770  81.703  1.00  0.00     0.201 C 
ENDBRANCH  26  27
ENDBRANCH   1  26
BRANCH   3  29
HETATM   29  O2  UNL     1       4.844  39.418  77.497  1.00  0.00    -0.360 OA
ATOM     30  H2  UNL     1       4.400  39.908  76.815  1.00  0.00     0.217 HD
ENDBRANCH   3  29
TORSDOF 6
ENDMDL
MODEL 2
REMARK VINA RESULT: -8.059976458      0.305      1.388
REMARK  6 active torsions:
REMARK  status: ('A' for Active; 'I' for Inactive)
REMARK    1  A    between atoms: O1_2  and  C2_3 
REMARK    2  A    between atoms: C2_3  and  C3_4 
REMARK    3  A    between atoms: C4_5  and  C5_6 
REMARK    4  A    between atoms: C5_6  and  N1_7 
REMARK    5  A    between atoms: N1_7  and  C6_10 
REMARK    6  A    between atoms: C16_20  and  O2_21 
ROOT
HETATM    1  C3  UNL     1       3.521  37.481  80.110  1.00  0.00     0.010 A 
HETATM    2  C4  UNL     1       4.306  37.881  78.990  1.00  0.00     0.012 A 
HETATM    3  C16 UNL     1       4.129  39.123  78.506  1.00  0.00     0.074 A 
HETATM    4  C17 UNL     1       3.218  40.024  79.050  1.00  0.00     0.047 A 
HETATM    5  C18 UNL     1       2.455  39.670  80.117  1.00  0.00    -0.021 A 
HETATM    6  C19 UNL     1       2.627  38.376  80.633  1.00  0.00     0.086 A 
HETATM    7  O3  UNL     1       1.777  38.126  81.718  1.00  0.00    -0.330 OA
HETATM    8  C20 UNL     1       0.411  38.487  81.677  1.00  0.00     0.225 C 
HETATM    9 CL1  UNL     1      -0.279  38.219  83.297  1.00  0.00    -0.095 Cl
HETATM   10  C21 UNL     1       0.215  39.905  81.206  1.00  0.00     0.053 C 
HETATM   11  C22 UNL     1       1.473  40.560  80.759  1.00  0.00     0.045 C 
ENDROOT
BRANCH   2  12
HETATM   12  C5  UNL     1       5.239  36.856  78.485  1.00  0.00     0.275 C 
BRANCH  12  13
HETATM   13  N1  UNL     1       6.629  37.163  78.739  1.00  0.00    -0.062 N 
ATOM     14  H12 UNL     1       6.817  38.165  78.705  1.00  0.00     0.278 HD
ATOM     15  H11 UNL     1       6.890  37.000  79.712  1.00  0.00     0.278 HD
BRANCH  13  16
HETATM   16  C6  UNL     1       7.464  36.410  77.808  1.00  0.00     0.127 C 
HETATM   17  C7  UNL     1       7.119  34.964  77.718  1.00  0.00     0.043 C 
HETATM   18  C8  UNL     1       7.924  34.343  76.595  1.00  0.00    -0.012 C 
HETATM   19  C9  UNL     1       7.676  34.981  75.264  1.00  0.00     0.009 C 
HETATM   20  C13 UNL     1       9.394  34.451  76.906  1.00  0.00     0.009 C 
HETATM   21  C10 UNL     1       8.050  36.439  75.367  1.00  0.00    -0.012 C 
HETATM   22  C11 UNL     1       9.508  36.618  75.735  1.00  0.00     0.009 C 
HETATM   23  C15 UNL     1       7.225  37.055  76.447  1.00  0.00     0.043 C 
HETATM   24  C12 UNL     1       9.742  35.913  77.031  1.00  0.00    -0.012 C 
HETATM   25  C14 UNL     1       8.934  36.555  78.131  1.00  0.00     0.043 C 
ENDBRANCH  13  16
ENDBRANCH  12  13
ENDBRANCH   2  12
BRANCH   1  26
HETATM   26  C2  UNL     1       3.634  36.109  80.580  1.00  0.00     0.209 C 
BRANCH  26  27
HETATM   27  O1  UNL     1       4.353  35.956  81.730  1.00  0.00    -0.391 OA
HETATM   28  C1  UNL     1       5.279  34.901  81.648  1.00  0.00     0.201 C 
ENDBRANCH  26  27
ENDBRANCH   1  26
BRANCH   3  29
HETATM   29  O2  UNL     1       4.892  39.527  77.406  1.00  0.00    -0.360 OA
ATOM     30  H2  UNL     1       5.327  40.371  77.440  1.00  0.00     0.217 HD
ENDBRANCH   3  29
TORSDOF 6
ENDMDL
MODEL 3
REMARK VINA RESULT: -7.980574337      1.035      1.708
REMARK  6 active torsions:
REMARK  status: ('A' for Active; 'I' for Inactive)
REMARK    1  A    between atoms: O1_2  and  C2_3 
REMARK    2  A    between atoms: C2_3  and  C3_4 
REMARK    3  A    between atoms: C4_5  and  C5_6 
REMARK    4  A    between atoms: C5_6  and  N1_7 
REMARK    5  A    between atoms: N1_7  and  C6_10 
REMARK    6  A    between atoms: C16_20  and  O2_21 
ROOT
HETATM    1  C3  UNL     1       3.812  37.339  79.926  1.00  0.00     0.010 A 
HETATM    2  C4  UNL     1       4.487  38.312  79.135  1.00  0.00     0.012 A 
HETATM    3  C16 UNL     1       3.878  39.495  78.934  1.00  0.00     0.074 A 
HETATM    4  C17 UNL     1       2.628  39.801  79.464  1.00  0.00     0.047 A 
HETATM    5  C18 UNL     1       1.960  38.891  80.221  1.00  0.00    -0.021 A 
HETATM    6  C19 UNL     1       2.582  37.651  80.437  1.00  0.00     0.086 A 
HETATM    7  O3  UNL     1       1.791  36.797  81.216  1.00  0.00    -0.330 OA
HETATM    8  C20 UNL     1       0.409  36.643  80.963  1.00  0.00     0.225 C 
HETATM    9 CL1  UNL     1      -0.286  35.666  82.279  1.00  0.00    -0.095 Cl
HETATM   10  C21 UNL     1      -0.289  37.970  80.813  1.00  0.00     0.053 C 
HETATM   11  C22 UNL     1       0.639  39.133  80.824  1.00  0.00     0.045 C 
ENDROOT
BRANCH   2  12
HETATM   12  C5  UNL     1       5.803  37.893  78.618  1.00  0.00     0.275 C 
BRANCH  12  13
HETATM   13  N1  UNL     1       5.790  37.548  77.213  1.00  0.00    -0.062 N 
ATOM     14  H12 UNL     1       4.874  37.226  76.902  1.00  0.00     0.278 HD
ATOM     15  H11 UNL     1       5.865  38.370  76.612  1.00  0.00     0.278 HD
BRANCH  13  16
HETATM   16  C6  UNL     1       6.842  36.571  76.950  1.00  0.00     0.127 C 
HETATM   17  C7  UNL     1       7.529  36.758  75.642  1.00  0.00     0.043 C 
HETATM   18  C8  UNL     1       8.708  35.809  75.575  1.00  0.00    -0.012 C 
HETATM   19  C9  UNL     1       9.701  36.016  76.675  1.00  0.00     0.009 C 
HETATM   20  C13 UNL     1       8.217  34.387  75.640  1.00  0.00     0.009 C 
HETATM   21  C10 UNL     1       8.993  35.802  77.989  1.00  0.00    -0.012 C 
HETATM   22  C11 UNL     1       8.423  34.403  78.097  1.00  0.00     0.009 C 
HETATM   23  C15 UNL     1       7.858  36.767  78.069  1.00  0.00     0.043 C 
HETATM   24  C12 UNL     1       7.490  34.200  76.948  1.00  0.00    -0.012 C 
HETATM   25  C14 UNL     1       6.325  35.153  77.045  1.00  0.00     0.043 C 
ENDBRANCH  13  16
ENDBRANCH  12  13
ENDBRANCH   2  12
BRANCH   1  26
HETATM   26  C2  UNL     1       4.417  36.022  80.068  1.00  0.00     0.209 C 
BRANCH  26  27
HETATM   27  O1  UNL     1       5.083  35.823  81.242  1.00  0.00    -0.391 OA
HETATM   28  C1  UNL     1       6.252  35.061  81.072  1.00  0.00     0.201 C 
ENDBRANCH  26  27
ENDBRANCH   1  26
BRANCH   3  29
HETATM   29  O2  UNL     1       4.529  40.459  78.158  1.00  0.00    -0.360 OA
ATOM     30  H2  UNL     1       5.064  41.110  78.597  1.00  0.00     0.217 HD
ENDBRANCH   3  29
TORSDOF 6
ENDMDL
MODEL 4
REMARK VINA RESULT: -7.848868838      0.741      1.605
REMARK  6 active torsions:
REMARK  status: ('A' for Active; 'I' for Inactive)
REMARK    1  A    between atoms: O1_2  and  C2_3 
REMARK    2  A    between atoms: C2_3  and  C3_4 
REMARK    3  A    between atoms: C4_5  and  C5_6 
REMARK    4  A    between atoms: C5_6  and  N1_7 
REMARK    5  A    between atoms: N1_7  and  C6_10 
REMARK    6  A    between atoms: C16_20  and  O2_21 
ROOT
HETATM    1  C3  UNL     1       3.220  37.229  80.610  1.00  0.00     0.010 A 
HETATM    2  C4  UNL     1       3.912  37.626  79.430  1.00  0.00     0.012 A 
HETATM    3  C16 UNL     1       3.572  38.798  78.862  1.00  0.00     0.074 A 
HETATM    4  C17 UNL     1       2.582  39.628  79.378  1.00  0.00     0.047 A 
HETATM    5  C18 UNL     1       1.904  39.274  80.502  1.00  0.00    -0.021 A 
HETATM    6  C19 UNL     1       2.247  38.053  81.105  1.00  0.00     0.086 A 
HETATM    7  O3  UNL     1       1.471  37.794  82.242  1.00  0.00    -0.330 OA
HETATM    8  C20 UNL     1       0.071  37.991  82.236  1.00  0.00     0.225 C 
HETATM    9 CL1  UNL     1      -0.523  37.775  83.900  1.00  0.00    -0.095 Cl
HETATM   10  C21 UNL     1      -0.308  39.335  81.669  1.00  0.00     0.053 C 
HETATM   11  C22 UNL     1       0.847  40.094  81.119  1.00  0.00     0.045 C 
ENDROOT
BRANCH   2  12
HETATM   12  C5  UNL     1       4.941  36.678  78.962  1.00  0.00     0.275 C 
BRANCH  12  13
HETATM   13  N1  UNL     1       6.258  37.264  78.847  1.00  0.00    -0.062 N 
ATOM     14  H12 UNL     1       6.222  38.274  78.708  1.00  0.00     0.278 HD
ATOM     15  H11 UNL     1       6.763  37.259  79.734  1.00  0.00     0.278 HD
BRANCH  13  16
HETATM   16  C6  UNL     1       6.994  36.584  77.785  1.00  0.00     0.127 C 
HETATM   17  C7  UNL     1       6.903  37.255  76.459  1.00  0.00     0.043 C 
HETATM   18  C8  UNL     1       7.850  36.564  75.500  1.00  0.00    -0.012 C 
HETATM   19  C9  UNL     1       9.276  36.588  75.954  1.00  0.00     0.009 C 
HETATM   20  C13 UNL     1       7.432  35.128  75.323  1.00  0.00     0.009 C 
HETATM   21  C10 UNL     1       9.354  35.887  77.287  1.00  0.00    -0.012 C 
HETATM   22  C11 UNL     1       8.891  34.448  77.191  1.00  0.00     0.009 C 
HETATM   23  C15 UNL     1       8.450  36.596  78.238  1.00  0.00     0.043 C 
HETATM   24  C12 UNL     1       7.492  34.452  76.669  1.00  0.00    -0.012 C 
HETATM   25  C14 UNL     1       6.571  35.140  77.646  1.00  0.00     0.043 C 
ENDBRANCH  13  16
ENDBRANCH  12  13
ENDBRANCH   2  12
BRANCH   1  26
HETATM   26  C2  UNL     1       3.512  35.920  81.177  1.00  0.00     0.209 C 
BRANCH  26  27
HETATM   27  O1  UNL     1       4.218  35.946  82.344  1.00  0.00    -0.391 OA
HETATM   28  C1  UNL     1       3.609  35.183  83.356  1.00  0.00     0.201 C 
ENDBRANCH  26  27
ENDBRANCH   1  26
BRANCH   3  29
HETATM   29  O2  UNL     1       4.242  39.198  77.703  1.00  0.00    -0.360 OA
ATOM     30  H2  UNL     1       3.791  39.769  77.092  1.00  0.00     0.217 HD
ENDBRANCH   3  29
TORSDOF 6
ENDMDL
MODEL 5
REMARK VINA RESULT: -7.842490536      1.012      1.065
REMARK  6 active torsions:
REMARK  status: ('A' for Active; 'I' for Inactive)
REMARK    1  A    between atoms: O1_2  and  C2_3 
REMARK    2  A    between atoms: C2_3  and  C3_4 
REMARK    3  A    between atoms: C4_5  and  C5_6 
REMARK    4  A    between atoms: C5_6  and  N1_7 
REMARK    5  A    between atoms: N1_7  and  C6_10 
REMARK    6  A    between atoms: C16_20  and  O2_21 
ROOT
HETATM    1  C3  UNL     1       3.762  37.326  79.984  1.00  0.00     0.010 A 
HETATM    2  C4  UNL     1       4.474  38.296  79.222  1.00  0.00     0.012 A 
HETATM    3  C16 UNL     1       3.884  39.486  79.006  1.00  0.00     0.074 A 
HETATM    4  C17 UNL     1       2.619  39.802  79.493  1.00  0.00     0.047 A 
HETATM    5  C18 UNL     1       1.916  38.896  80.222  1.00  0.00    -0.021 A 
HETATM    6  C19 UNL     1       2.518  37.649  80.454  1.00  0.00     0.086 A 
HETATM    7  O3  UNL     1       1.692  36.799  81.201  1.00  0.00    -0.330 OA
HETATM    8  C20 UNL     1       0.318  36.660  80.899  1.00  0.00     0.225 C 
HETATM    9 CL1  UNL     1      -0.433  35.685  82.186  1.00  0.00    -0.095 Cl
HETATM   10  C21 UNL     1      -0.361  37.995  80.731  1.00  0.00     0.053 C 
HETATM   11  C22 UNL     1       0.577  39.148  80.780  1.00  0.00     0.045 C 
ENDROOT
BRANCH   2  12
HETATM   12  C5  UNL     1       5.803  37.866  78.749  1.00  0.00     0.275 C 
BRANCH  12  13
HETATM   13  N1  UNL     1       5.835  37.529  77.343  1.00  0.00    -0.062 N 
ATOM     14  H12 UNL     1       4.951  37.139  77.017  1.00  0.00     0.278 HD
ATOM     15  H11 UNL     1       5.855  38.357  76.746  1.00  0.00     0.278 HD
BRANCH  13  16
HETATM   16  C6  UNL     1       6.962  36.636  77.090  1.00  0.00     0.127 C 
HETATM   17  C7  UNL     1       8.062  36.751  78.087  1.00  0.00     0.043 C 
HETATM   18  C8  UNL     1       9.072  35.653  77.822  1.00  0.00    -0.012 C 
HETATM   19  C9  UNL     1       8.489  34.277  77.905  1.00  0.00     0.009 C 
HETATM   20  C13 UNL     1       9.668  35.835  76.451  1.00  0.00     0.009 C 
HETATM   21  C10 UNL     1       7.393  34.172  76.875  1.00  0.00    -0.012 C 
HETATM   22  C11 UNL     1       7.916  34.402  75.473  1.00  0.00     0.009 C 
HETATM   23  C15 UNL     1       6.380  35.229  77.165  1.00  0.00     0.043 C 
HETATM   24  C12 UNL     1       8.554  35.752  75.439  1.00  0.00    -0.012 C 
HETATM   25  C14 UNL     1       7.525  36.824  75.699  1.00  0.00     0.043 C 
ENDBRANCH  13  16
ENDBRANCH  12  13
ENDBRANCH   2  12
BRANCH   1  26
HETATM   26  C2  UNL     1       4.348  36.003  80.141  1.00  0.00     0.209 C 
BRANCH  26  27
HETATM   27  O1  UNL     1       5.025  35.813  81.310  1.00  0.00    -0.391 OA
HETATM   28  C1  UNL     1       6.192  35.048  81.135  1.00  0.00     0.201 C 
ENDBRANCH  26  27
ENDBRANCH   1  26
BRANCH   3  29
HETATM   29  O2  UNL     1       4.571  40.447  78.258  1.00  0.00    -0.360 OA
ATOM     30  H2  UNL     1       4.146  40.816  77.492  1.00  0.00     0.217 HD
ENDBRANCH   3  29
TORSDOF 6
ENDMDL
