MODEL 1
REMARK VINA RESULT: -7.806034279      0.000      0.000
REMARK  8 active torsions:
REMARK  status: ('A' for Active; 'I' for Inactive)
REMARK    1  A    between atoms: C5_5  and  N1_6 
REMARK    2  A    between atoms: N1_6  and  C6_8 
REMARK    3  A    between atoms: C6_8  and  N2_10 
REMARK    4  A    between atoms: N2_10  and  N3_12 
REMARK    5  A    between atoms: N3_12  and  C7_14 
REMARK    6  A    between atoms: C7_14  and  C8_15 
REMARK    7  A    between atoms: C11_19  and  C12_20 
REMARK    8  A    between atoms: C16_24  and  N4_25 
ROOT
HETATM    1  N3  UNL     1       5.969  36.855  78.669  1.00  0.00    -0.262 N 
ATOM      2  H3  UNL     1       6.744  37.515  78.602  1.00  0.00     0.197 HD
ENDROOT
BRANCH   1   3
HETATM    3  N2  UNL     1       6.319  35.553  78.319  1.00  0.00    -0.269 N 
ATOM      4  H2  UNL     1       6.128  34.839  79.022  1.00  0.00     0.190 HD
BRANCH   3   5
HETATM    5  C6  UNL     1       6.896  35.095  77.134  1.00  0.00     0.187 C 
HETATM    6  S1  UNL     1       6.015  33.881  76.373  1.00  0.00    -0.040 SA
BRANCH   5   7
HETATM    7  N1  UNL     1       8.070  35.533  76.546  1.00  0.00    -0.361 N 
ATOM      8  H1  UNL     1       8.677  34.820  76.143  1.00  0.00     0.162 HD
BRANCH   7   9
HETATM    9  C5  UNL     1       8.508  36.869  76.450  1.00  0.00     0.088 C 
HETATM   10  C4  UNL     1       7.438  37.585  75.589  1.00  0.00     0.026 C 
HETATM   11  C3  UNL     1       7.968  37.213  74.203  1.00  0.00     0.007 C 
HETATM   12  C2  UNL     1       9.436  37.559  74.344  1.00  0.00    -0.013 C 
HETATM   13  C1  UNL     1       9.593  39.057  74.176  1.00  0.00     0.010 C 
HETATM   14  C17 UNL     1       9.795  37.112  75.738  1.00  0.00     0.008 C 
HETATM   15  C18 UNL     1      10.734  35.950  75.689  1.00  0.00     0.012 C 
ENDBRANCH   7   9
ENDBRANCH   5   7
ENDBRANCH   3   5
ENDBRANCH   1   3
BRANCH   1  16
HETATM   16  C7  UNL     1       4.963  37.351  79.026  1.00  0.00    -0.011 C 
BRANCH  16  17
HETATM   17  C8  UNL     1       3.768  37.943  79.438  1.00  0.00     0.063 A 
HETATM   18  C9  UNL     1       2.807  37.245  80.176  1.00  0.00     0.048 A 
HETATM   19  C10 UNL     1       1.709  37.808  80.777  1.00  0.00     0.042 A 
HETATM   20 CL1  UNL     1       0.541  36.867  81.679  1.00  0.00    -0.084 Cl
HETATM   21  C11 UNL     1       1.498  39.189  80.662  1.00  0.00    -0.030 A 
HETATM   22  C15 UNL     1       2.415  39.878  79.953  1.00  0.00     0.047 A 
HETATM   23  C16 UNL     1       3.531  39.320  79.339  1.00  0.00     0.123 A 
BRANCH  21  24
HETATM   24  C12 UNL     1       0.341  39.835  81.273  1.00  0.00     0.020 A 
HETATM   25  C13 UNL     1       0.362  40.134  82.760  1.00  0.00     0.010 A 
HETATM   26  C14 UNL     1       0.336  41.253  81.720  1.00  0.00     0.010 A 
ENDBRANCH  21  24
BRANCH  23  27
HETATM   27  N4  UNL     1       4.402  40.167  78.615  1.00  0.00    -0.114 N 
HETATM   28  O1  UNL     1       4.765  41.277  79.100  1.00  0.00    -0.532 OA
HETATM   29  O2  UNL     1       4.889  39.842  77.385  1.00  0.00    -0.532 OA
ENDBRANCH  23  27
ENDBRANCH  16  17
ENDBRANCH   1  16
TORSDOF 8
ENDMDL
MODEL 2
REMARK VINA RESULT: -7.603844015      1.231      1.515
REMARK  8 active torsions:
REMARK  status: ('A' for Active; 'I' for Inactive)
REMARK    1  A    between atoms: C5_5  and  N1_6 
REMARK    2  A    between atoms: N1_6  and  C6_8 
REMARK    3  A    between atoms: C6_8  and  N2_10 
REMARK    4  A    between atoms: N2_10  and  N3_12 
REMARK    5  A    between atoms: N3_12  and  C7_14 
REMARK    6  A    between atoms: C7_14  and  C8_15 
REMARK    7  A    between atoms: C11_19  and  C12_20 
REMARK    8  A    between atoms: C16_24  and  N4_25 
ROOT
HETATM    1  N3  UNL     1       4.477  36.786  79.510  1.00  0.00    -0.262 N 
ATOM      2  H3  UNL     1       4.131  35.893  79.862  1.00  0.00     0.197 HD
ENDROOT
BRANCH   1   3
HETATM    3  N2  UNL     1       5.751  36.706  78.953  1.00  0.00    -0.269 N 
ATOM      4  H2  UNL     1       6.375  37.485  79.162  1.00  0.00     0.190 HD
BRANCH   3   5
HETATM    5  C6  UNL     1       6.287  35.702  78.147  1.00  0.00     0.187 C 
HETATM    6  S1  UNL     1       5.761  34.155  78.547  1.00  0.00    -0.040 SA
BRANCH   5   7
HETATM    7  N1  UNL     1       7.166  35.852  77.088  1.00  0.00    -0.361 N 
ATOM      8  H1  UNL     1       7.159  35.122  76.376  1.00  0.00     0.162 HD
BRANCH   7   9
HETATM    9  C5  UNL     1       8.070  36.917  76.898  1.00  0.00     0.088 C 
HETATM   10  C4  UNL     1       7.363  37.877  75.911  1.00  0.00     0.026 C 
HETATM   11  C3  UNL     1       7.751  37.190  74.600  1.00  0.00     0.007 C 
HETATM   12  C2  UNL     1       9.239  36.987  74.801  1.00  0.00    -0.013 C 
HETATM   13  C1  UNL     1       9.943  38.297  74.507  1.00  0.00     0.010 C 
HETATM   14  C17 UNL     1       9.372  36.593  76.249  1.00  0.00     0.008 C 
HETATM   15  C18 UNL     1       9.815  35.171  76.366  1.00  0.00     0.012 C 
ENDBRANCH   7   9
ENDBRANCH   5   7
ENDBRANCH   3   5
ENDBRANCH   1   3
BRANCH   1  16
HETATM   16  C7  UNL     1       3.716  37.672  79.658  1.00  0.00    -0.011 C 
BRANCH  16  17
HETATM   17  C8  UNL     1       2.815  38.726  79.823  1.00  0.00     0.063 A 
HETATM   18  C9  UNL     1       1.631  38.586  80.552  1.00  0.00     0.048 A 
HETATM   19  C10 UNL     1       0.800  39.616  80.918  1.00  0.00     0.042 A 
HETATM   20 CL1  UNL     1      -0.675  39.362  81.824  1.00  0.00    -0.084 Cl
HETATM   21  C11 UNL     1       1.132  40.926  80.548  1.00  0.00    -0.030 A 
HETATM   22  C15 UNL     1       2.272  41.080  79.843  1.00  0.00     0.047 A 
HETATM   23  C16 UNL     1       3.120  40.045  79.466  1.00  0.00     0.123 A 
BRANCH  21  24
HETATM   24  C12 UNL     1       0.278  42.055  80.902  1.00  0.00     0.020 A 
HETATM   25  C13 UNL     1       0.429  42.694  82.270  1.00  0.00     0.010 A 
HETATM   26  C14 UNL     1       0.768  43.457  80.990  1.00  0.00     0.010 A 
ENDBRANCH  21  24
BRANCH  23  27
HETATM   27  N4  UNL     1       4.277  40.357  78.715  1.00  0.00    -0.114 N 
HETATM   28  O1  UNL     1       4.920  41.422  78.942  1.00  0.00    -0.532 OA
HETATM   29  O2  UNL     1       4.756  39.545  77.732  1.00  0.00    -0.532 OA
ENDBRANCH  23  27
ENDBRANCH  16  17
ENDBRANCH   1  16
TORSDOF 8
ENDMDL
MODEL 3
REMARK VINA RESULT: -7.458869941      3.320      8.720
REMARK  8 active torsions:
REMARK  status: ('A' for Active; 'I' for Inactive)
REMARK    1  A    between atoms: C5_5  and  N1_6 
REMARK    2  A    between atoms: N1_6  and  C6_8 
REMARK    3  A    between atoms: C6_8  and  N2_10 
REMARK    4  A    between atoms: N2_10  and  N3_12 
REMARK    5  A    between atoms: N3_12  and  C7_14 
REMARK    6  A    between atoms: C7_14  and  C8_15 
REMARK    7  A    between atoms: C11_19  and  C12_20 
REMARK    8  A    between atoms: C16_24  and  N4_25 
ROOT
HETATM    1  N3  UNL     1       5.528  38.127  77.730  1.00  0.00    -0.262 N 
ATOM      2  H3  UNL     1       6.243  38.657  78.229  1.00  0.00     0.197 HD
ENDROOT
BRANCH   1   3
HETATM    3  N2  UNL     1       4.302  38.785  77.657  1.00  0.00    -0.269 N 
ATOM      4  H2  UNL     1       3.836  38.752  76.750  1.00  0.00     0.190 HD
BRANCH   3   5
HETATM    5  C6  UNL     1       3.627  39.481  78.659  1.00  0.00     0.187 C 
HETATM    6  S1  UNL     1       4.404  40.889  79.151  1.00  0.00    -0.040 SA
BRANCH   5   7
HETATM    7  N1  UNL     1       2.424  39.142  79.255  1.00  0.00    -0.361 N 
ATOM      8  H1  UNL     1       1.622  39.020  78.637  1.00  0.00     0.162 HD
BRANCH   7   9
HETATM    9  C5  UNL     1       2.200  38.948  80.633  1.00  0.00     0.088 C 
HETATM   10  C4  UNL     1       1.549  37.548  80.744  1.00  0.00     0.026 C 
HETATM   11  C3  UNL     1       0.097  37.944  80.468  1.00  0.00     0.007 C 
HETATM   12  C2  UNL     1      -0.069  39.127  81.400  1.00  0.00    -0.013 C 
HETATM   13  C1  UNL     1      -0.313  38.602  82.801  1.00  0.00     0.010 C 
HETATM   14  C17 UNL     1       1.238  39.870  81.300  1.00  0.00     0.008 C 
HETATM   15  C18 UNL     1       1.039  41.191  80.629  1.00  0.00     0.012 C 
ENDBRANCH   7   9
ENDBRANCH   5   7
ENDBRANCH   3   5
ENDBRANCH   1   3
BRANCH   1  16
HETATM   16  C7  UNL     1       5.909  37.087  77.334  1.00  0.00    -0.011 C 
BRANCH  16  17
HETATM   17  C8  UNL     1       6.355  35.853  76.855  1.00  0.00     0.063 A 
HETATM   18  C9  UNL     1       5.779  34.645  77.261  1.00  0.00     0.048 A 
HETATM   19  C10 UNL     1       6.028  33.420  76.694  1.00  0.00     0.042 A 
HETATM   20 CL1  UNL     1       5.276  31.946  77.264  1.00  0.00    -0.084 Cl
HETATM   21  C11 UNL     1       6.928  33.332  75.623  1.00  0.00    -0.030 A 
HETATM   22  C15 UNL     1       7.494  34.488  75.219  1.00  0.00     0.047 A 
HETATM   23  C16 UNL     1       7.250  35.734  75.784  1.00  0.00     0.123 A 
BRANCH  21  24
HETATM   24  C12 UNL     1       7.236  32.052  74.993  1.00  0.00     0.020 A 
HETATM   25  C13 UNL     1       6.327  31.532  73.895  1.00  0.00     0.010 A 
HETATM   26  C14 UNL     1       7.776  31.928  73.613  1.00  0.00     0.010 A 
ENDBRANCH  21  24
BRANCH  23  27
HETATM   27  N4  UNL     1       7.928  36.860  75.262  1.00  0.00    -0.114 N 
HETATM   28  O1  UNL     1       9.052  37.203  75.729  1.00  0.00    -0.532 OA
HETATM   29  O2  UNL     1       7.423  37.617  74.249  1.00  0.00    -0.532 OA
ENDBRANCH  23  27
ENDBRANCH  16  17
ENDBRANCH   1  16
TORSDOF 8
ENDMDL
MODEL 4
REMARK VINA RESULT: -7.352852476      3.342      8.650
REMARK  8 active torsions:
REMARK  status: ('A' for Active; 'I' for Inactive)
REMARK    1  A    between atoms: C5_5  and  N1_6 
REMARK    2  A    between atoms: N1_6  and  C6_8 
REMARK    3  A    between atoms: C6_8  and  N2_10 
REMARK    4  A    between atoms: N2_10  and  N3_12 
REMARK    5  A    between atoms: N3_12  and  C7_14 
REMARK    6  A    between atoms: C7_14  and  C8_15 
REMARK    7  A    between atoms: C11_19  and  C12_20 
REMARK    8  A    between atoms: C16_24  and  N4_25 
ROOT
HETATM    1  N3  UNL     1       5.524  38.244  77.636  1.00  0.00    -0.262 N 
ATOM      2  H3  UNL     1       6.282  38.885  77.872  1.00  0.00     0.197 HD
ENDROOT
BRANCH   1   3
HETATM    3  N2  UNL     1       4.257  38.784  77.844  1.00  0.00    -0.269 N 
ATOM      4  H2  UNL     1       3.602  38.687  77.068  1.00  0.00     0.190 HD
BRANCH   3   5
HETATM    5  C6  UNL     1       3.765  39.440  78.972  1.00  0.00     0.187 C 
HETATM    6  S1  UNL     1       4.266  41.040  79.102  1.00  0.00    -0.040 SA
BRANCH   5   7
HETATM    7  N1  UNL     1       2.930  38.923  79.948  1.00  0.00    -0.361 N 
ATOM      8  H1  UNL     1       3.377  38.554  80.788  1.00  0.00     0.162 HD
BRANCH   7   9
HETATM    9  C5  UNL     1       1.524  38.856  79.895  1.00  0.00     0.088 C 
HETATM   10  C4  UNL     1       1.029  40.046  80.753  1.00  0.00     0.026 C 
HETATM   11  C3  UNL     1       1.102  39.386  82.131  1.00  0.00     0.007 C 
HETATM   12  C2  UNL     1       0.399  38.071  81.867  1.00  0.00    -0.013 C 
HETATM   13  C1  UNL     1      -1.097  38.316  81.889  1.00  0.00     0.010 C 
HETATM   14  C17 UNL     1       0.878  37.656  80.500  1.00  0.00     0.008 C 
HETATM   15  C18 UNL     1       1.740  36.439  80.594  1.00  0.00     0.012 C 
ENDBRANCH   7   9
ENDBRANCH   5   7
ENDBRANCH   3   5
ENDBRANCH   1   3
BRANCH   1  16
HETATM   16  C7  UNL     1       5.901  37.200  77.245  1.00  0.00    -0.011 C 
BRANCH  16  17
HETATM   17  C8  UNL     1       6.360  35.966  76.780  1.00  0.00     0.063 A 
HETATM   18  C9  UNL     1       5.828  34.756  77.235  1.00  0.00     0.048 A 
HETATM   19  C10 UNL     1       6.088  33.523  76.689  1.00  0.00     0.042 A 
HETATM   20 CL1  UNL     1       5.392  32.046  77.320  1.00  0.00    -0.084 Cl
HETATM   21  C11 UNL     1       6.953  33.429  75.590  1.00  0.00    -0.030 A 
HETATM   22  C15 UNL     1       7.476  34.588  75.139  1.00  0.00     0.047 A 
HETATM   23  C16 UNL     1       7.221  35.842  75.683  1.00  0.00     0.123 A 
BRANCH  21  24
HETATM   24  C12 UNL     1       7.271  32.143  74.980  1.00  0.00     0.020 A 
HETATM   25  C13 UNL     1       6.283  31.521  74.010  1.00  0.00     0.010 A 
HETATM   26  C14 UNL     1       7.666  31.987  73.555  1.00  0.00     0.010 A 
ENDBRANCH  21  24
BRANCH  23  27
HETATM   27  N4  UNL     1       7.853  36.970  75.111  1.00  0.00    -0.114 N 
HETATM   28  O1  UNL     1       8.930  37.418  75.601  1.00  0.00    -0.532 OA
HETATM   29  O2  UNL     1       7.353  37.621  74.024  1.00  0.00    -0.532 OA
ENDBRANCH  23  27
ENDBRANCH  16  17
ENDBRANCH   1  16
TORSDOF 8
ENDMDL
MODEL 5
REMARK VINA RESULT: -7.340664815      1.372      2.103
REMARK  8 active torsions:
REMARK  status: ('A' for Active; 'I' for Inactive)
REMARK    1  A    between atoms: C5_5  and  N1_6 
REMARK    2  A    between atoms: N1_6  and  C6_8 
REMARK    3  A    between atoms: C6_8  and  N2_10 
REMARK    4  A    between atoms: N2_10  and  N3_12 
REMARK    5  A    between atoms: N3_12  and  C7_14 
REMARK    6  A    between atoms: C7_14  and  C8_15 
REMARK    7  A    between atoms: C11_19  and  C12_20 
REMARK    8  A    between atoms: C16_24  and  N4_25 
ROOT
HETATM    1  N3  UNL     1       4.704  35.015  80.018  1.00  0.00    -0.262 N 
ATOM      2  H3  UNL     1       4.387  34.313  80.687  1.00  0.00     0.197 HD
ENDROOT
BRANCH   1   3
HETATM    3  N2  UNL     1       5.874  34.658  79.353  1.00  0.00    -0.269 N 
ATOM      4  H2  UNL     1       6.674  34.446  79.948  1.00  0.00     0.190 HD
BRANCH   3   5
HETATM    5  C6  UNL     1       6.097  34.552  77.980  1.00  0.00     0.187 C 
HETATM    6  S1  UNL     1       5.497  33.136  77.300  1.00  0.00    -0.040 SA
BRANCH   5   7
HETATM    7  N1  UNL     1       6.731  35.468  77.158  1.00  0.00    -0.361 N 
ATOM      8  H1  UNL     1       6.419  36.437  77.221  1.00  0.00     0.162 HD
BRANCH   7   9
HETATM    9  C5  UNL     1       7.766  35.192  76.242  1.00  0.00     0.088 C 
HETATM   10  C4  UNL     1       8.912  34.593  77.094  1.00  0.00     0.026 C 
HETATM   11  C3  UNL     1       9.554  35.898  77.570  1.00  0.00     0.007 C 
HETATM   12  C2  UNL     1       9.662  36.667  76.269  1.00  0.00    -0.013 C 
HETATM   13  C1  UNL     1      10.875  36.161  75.514  1.00  0.00     0.010 C 
HETATM   14  C17 UNL     1       8.380  36.355  75.541  1.00  0.00     0.008 C 
HETATM   15  C18 UNL     1       7.523  37.576  75.445  1.00  0.00     0.012 C 
ENDBRANCH   7   9
ENDBRANCH   5   7
ENDBRANCH   3   5
ENDBRANCH   1   3
BRANCH   1  16
HETATM   16  C7  UNL     1       4.004  35.961  79.968  1.00  0.00    -0.011 C 
BRANCH  16  17
HETATM   17  C8  UNL     1       3.166  37.076  79.903  1.00  0.00     0.063 A 
HETATM   18  C9  UNL     1       1.906  37.096  80.509  1.00  0.00     0.048 A 
HETATM   19  C10 UNL     1       1.116  38.209  80.654  1.00  0.00     0.042 A 
HETATM   20 CL1  UNL     1      -0.459  38.155  81.417  1.00  0.00    -0.084 Cl
HETATM   21  C11 UNL     1       1.572  39.441  80.166  1.00  0.00    -0.030 A 
HETATM   22  C15 UNL     1       2.786  39.439  79.577  1.00  0.00     0.047 A 
HETATM   23  C16 UNL     1       3.596  38.320  79.424  1.00  0.00     0.123 A 
BRANCH  21  24
HETATM   24  C12 UNL     1       0.767  40.651  80.285  1.00  0.00     0.020 A 
HETATM   25  C13 UNL     1       0.583  41.285  81.651  1.00  0.00     0.010 A 
HETATM   26  C14 UNL     1       1.344  41.999  80.535  1.00  0.00     0.010 A 
ENDBRANCH  21  24
BRANCH  23  27
HETATM   27  N4  UNL     1       4.842  38.468  78.773  1.00  0.00    -0.114 N 
HETATM   28  O1  UNL     1       4.943  39.191  77.741  1.00  0.00    -0.532 OA
HETATM   29  O2  UNL     1       5.978  37.858  79.212  1.00  0.00    -0.532 OA
ENDBRANCH  23  27
ENDBRANCH  16  17
ENDBRANCH   1  16
TORSDOF 8
ENDMDL
