MODEL 1
REMARK VINA RESULT: -8.696379300      0.000      0.000
REMARK  16 active torsions:
REMARK  status: ('A' for Active; 'I' for Inactive)
REMARK    1  A    between atoms: O1_2  and  C2_3 
REMARK    2  A    between atoms: C2_3  and  C3_5 
REMARK    3  A    between atoms: C3_5  and  C11_23 
REMARK    4  A    between atoms: N1_6  and  O3_8 
REMARK    5  A    between atoms: O3_8  and  C4_9 
REMARK    6  A    between atoms: C4_9  and  C5_10 
REMARK    7  A    between atoms: C5_10  and  O4_11 
REMARK    8  A    between atoms: O4_11  and  C6_12 
REMARK    9  A    between atoms: C6_12  and  C7_13 
REMARK   10  A    between atoms: C9_15  and  N2_16 
REMARK   11  A    between atoms: C10_19  and  O7_20 
REMARK   12  A    between atoms: C18_38  and  C19_39 
REMARK   13  A    between atoms: C19_39  and  O10_41 
REMARK   14  A    between atoms: C21_45  and  O11_46 
REMARK   15  A    between atoms: C22_48  and  C23_49 
REMARK   16  A    between atoms: C23_49  and  N7_50 
ROOT
HETATM    1  C11 UNL     1      22.332   5.220  -4.995  1.00  0.00     0.283 C 
HETATM    2  N3  UNL     1      23.621   5.238  -4.318  1.00  0.00    -0.328 N 
ATOM      3  H3  UNL     1      24.009   4.332  -4.054  1.00  0.00     0.165 HD
HETATM    4  C12 UNL     1      24.389   6.365  -3.989  1.00  0.00     0.237 C 
HETATM    5  O8  UNL     1      24.732   6.553  -2.764  1.00  0.00    -0.272 OA
HETATM    6  C13 UNL     1      24.878   7.413  -4.917  1.00  0.00     0.224 C 
HETATM    7  N4  UNL     1      25.304   8.623  -4.235  1.00  0.00    -0.359 N 
ATOM      8  H4  UNL     1      26.107   8.558  -3.610  1.00  0.00     0.162 HD
HETATM    9  C14 UNL     1      24.682   9.889  -4.377  1.00  0.00     0.168 C 
HETATM   10  S2  UNL     1      24.484  10.766  -2.981  1.00  0.00    -0.041 SA
HETATM   11  N5  UNL     1      24.225  10.438  -5.598  1.00  0.00    -0.367 N 
ATOM     12  H5  UNL     1      23.296  10.860  -5.591  1.00  0.00     0.161 HD
HETATM   13  C15 UNL     1      24.934  10.464  -6.850  1.00  0.00     0.122 C 
HETATM   14  C16 UNL     1      24.288   9.719  -7.970  1.00  0.00     0.022 C 
HETATM   15  C17 UNL     1      22.881  10.130  -8.222  1.00  0.00     0.037 C 
HETATM   16  C18 UNL     1      22.101   8.946  -8.851  1.00  0.00     0.179 C 
HETATM   17  N6  UNL     1      22.222   7.884  -7.914  1.00  0.00    -0.382 N 
ATOM     18  H6  UNL     1      22.643   8.036  -6.998  1.00  0.00     0.156 HD
HETATM   19  C21 UNL     1      21.740   6.603  -8.294  1.00  0.00     0.245 C 
HETATM   20  C22 UNL     1      21.317   5.871  -7.010  1.00  0.00     0.198 C 
HETATM   21  O12 UNL     1      22.301   6.034  -6.091  1.00  0.00    -0.349 OA
ENDROOT
BRANCH   1  22
HETATM   22  C3  UNL     1      21.237   5.492  -4.003  1.00  0.00     0.155 C 
HETATM   23  N1  UNL     1      20.874   4.531  -3.227  1.00  0.00    -0.261 N 
ATOM     24  H1  UNL     1      20.145   4.696  -2.533  1.00  0.00     0.194 HD
BRANCH  22  25
HETATM   25  C2  UNL     1      20.581   6.758  -3.839  1.00  0.00     0.311 C 
HETATM   26  O2  UNL     1      19.332   6.849  -3.773  1.00  0.00    -0.258 OA
BRANCH  25  27
HETATM   27  O1  UNL     1      21.292   7.938  -3.747  1.00  0.00    -0.321 OA
HETATM   28  C1  UNL     1      21.082   8.981  -4.687  1.00  0.00     0.213 C 
ENDBRANCH  25  27
ENDBRANCH  22  25
BRANCH  23  29
HETATM   29  O3  UNL     1      21.449   3.295  -3.316  1.00  0.00    -0.278 OA
BRANCH  29  30
HETATM   30  C4  UNL     1      21.719   2.518  -2.145  1.00  0.00     0.227 C 
BRANCH  30  31
HETATM   31  C5  UNL     1      20.924   3.160  -1.034  1.00  0.00     0.196 C 
BRANCH  31  32
HETATM   32  O4  UNL     1      20.380   2.210  -0.222  1.00  0.00    -0.384 OA
BRANCH  32  33
HETATM   33  C6  UNL     1      20.224   1.016  -0.871  1.00  0.00     0.214 C 
BRANCH  33  34
HETATM   34  C7  UNL     1      18.761   0.614  -0.902  1.00  0.00     0.011 A 
HETATM   35  C8  UNL     1      17.733   1.278  -1.511  1.00  0.00     0.056 A 
HETATM   36  C9  UNL     1      16.508   0.744  -1.415  1.00  0.00     0.144 A 
HETATM   37  C10 UNL     1      16.393  -0.427  -0.713  1.00  0.00     0.141 A 
HETATM   38  S1  UNL     1      17.992  -0.739  -0.212  1.00  0.00    -0.066 SA
BRANCH  36  39
HETATM   39  N2  UNL     1      15.327   1.343  -2.016  1.00  0.00    -0.112 N 
HETATM   40  O5  UNL     1      15.335   1.647  -3.221  1.00  0.00    -0.532 OA
HETATM   41  O6  UNL     1      14.218   1.566  -1.255  1.00  0.00    -0.532 OA
ENDBRANCH  36  39
BRANCH  37  42
HETATM   42  O7  UNL     1      15.221  -1.178  -0.473  1.00  0.00    -0.352 OA
ATOM     43  H7  UNL     1      14.720  -1.232   0.332  1.00  0.00     0.218 HD
ENDBRANCH  37  42
ENDBRANCH  33  34
ENDBRANCH  32  33
ENDBRANCH  31  32
ENDBRANCH  30  31
ENDBRANCH  29  30
ENDBRANCH  23  29
ENDBRANCH   1  22
BRANCH  20  44
HETATM   44  C23 UNL     1      20.924   4.451  -7.330  1.00  0.00     0.265 C 
BRANCH  44  45
HETATM   45  N7  UNL     1      22.087   3.652  -7.701  1.00  0.00    -0.077 N 
ATOM     46  H73 UNL     1      22.956   4.094  -7.400  1.00  0.00     0.274 HD
ATOM     47  H72 UNL     1      22.147   2.797  -7.149  1.00  0.00     0.274 HD
ATOM     48  H71 UNL     1      22.094   3.455  -8.702  1.00  0.00     0.274 HD
ENDBRANCH  44  45
ENDBRANCH  20  44
BRANCH  19  49
HETATM   49  O11 UNL     1      20.652   6.769  -9.143  1.00  0.00    -0.374 OA
ATOM     50  H11 UNL     1      20.155   5.960  -9.165  1.00  0.00     0.212 HD
ENDBRANCH  19  49
BRANCH  16  51
HETATM   51  C19 UNL     1      22.577   8.679 -10.202  1.00  0.00     0.281 C 
HETATM   52  O9  UNL     1      23.261   7.665 -10.453  1.00  0.00    -0.263 OA
BRANCH  51  53
HETATM   53  O10 UNL     1      22.279   9.548 -11.236  1.00  0.00    -0.325 OA
HETATM   54  C20 UNL     1      23.291  10.037 -12.097  1.00  0.00     0.213 C 
ENDBRANCH  51  53
ENDBRANCH  16  51
TORSDOF 16
ENDMDL
MODEL 2
REMARK VINA RESULT: -8.656273582      1.360      1.825
REMARK  16 active torsions:
REMARK  status: ('A' for Active; 'I' for Inactive)
REMARK    1  A    between atoms: O1_2  and  C2_3 
REMARK    2  A    between atoms: C2_3  and  C3_5 
REMARK    3  A    between atoms: C3_5  and  C11_23 
REMARK    4  A    between atoms: N1_6  and  O3_8 
REMARK    5  A    between atoms: O3_8  and  C4_9 
REMARK    6  A    between atoms: C4_9  and  C5_10 
REMARK    7  A    between atoms: C5_10  and  O4_11 
REMARK    8  A    between atoms: O4_11  and  C6_12 
REMARK    9  A    between atoms: C6_12  and  C7_13 
REMARK   10  A    between atoms: C9_15  and  N2_16 
REMARK   11  A    between atoms: C10_19  and  O7_20 
REMARK   12  A    between atoms: C18_38  and  C19_39 
REMARK   13  A    between atoms: C19_39  and  O10_41 
REMARK   14  A    between atoms: C21_45  and  O11_46 
REMARK   15  A    between atoms: C22_48  and  C23_49 
REMARK   16  A    between atoms: C23_49  and  N7_50 
ROOT
HETATM    1  C11 UNL     1      22.321   5.074  -4.616  1.00  0.00     0.283 C 
HETATM    2  N3  UNL     1      23.652   5.148  -4.029  1.00  0.00    -0.328 N 
ATOM      3  H3  UNL     1      24.063   4.267  -3.722  1.00  0.00     0.165 HD
HETATM    4  C12 UNL     1      24.430   6.300  -3.840  1.00  0.00     0.237 C 
HETATM    5  O8  UNL     1      24.850   6.584  -2.659  1.00  0.00    -0.272 OA
HETATM    6  C13 UNL     1      24.849   7.274  -4.876  1.00  0.00     0.224 C 
HETATM    7  N4  UNL     1      25.308   8.535  -4.321  1.00  0.00    -0.359 N 
ATOM      8  H4  UNL     1      26.151   8.521  -3.747  1.00  0.00     0.162 HD
HETATM    9  C14 UNL     1      24.668   9.783  -4.519  1.00  0.00     0.168 C 
HETATM   10  S2  UNL     1      24.554  10.767  -3.185  1.00  0.00    -0.041 SA
HETATM   11  N5  UNL     1      24.128  10.234  -5.747  1.00  0.00    -0.367 N 
ATOM     12  H5  UNL     1      23.198  10.652  -5.711  1.00  0.00     0.161 HD
HETATM   13  C15 UNL     1      24.753  10.165  -7.040  1.00  0.00     0.122 C 
HETATM   14  C16 UNL     1      24.042   9.332  -8.055  1.00  0.00     0.022 C 
HETATM   15  C17 UNL     1      22.618   9.718  -8.244  1.00  0.00     0.037 C 
HETATM   16  C18 UNL     1      21.808   8.486  -8.727  1.00  0.00     0.179 C 
HETATM   17  N6  UNL     1      21.999   7.501  -7.721  1.00  0.00    -0.382 N 
ATOM     18  H6  UNL     1      22.477   7.726  -6.848  1.00  0.00     0.156 HD
HETATM   19  C21 UNL     1      21.503   6.193  -7.967  1.00  0.00     0.245 C 
HETATM   20  C22 UNL     1      21.172   5.562  -6.605  1.00  0.00     0.198 C 
HETATM   21  O12 UNL     1      22.212   5.800  -5.768  1.00  0.00    -0.349 OA
ENDROOT
BRANCH   1  22
HETATM   22  C3  UNL     1      21.291   5.418  -3.579  1.00  0.00     0.155 C 
HETATM   23  N1  UNL     1      20.913   4.490  -2.773  1.00  0.00    -0.261 N 
ATOM     24  H1  UNL     1      20.227   4.703  -2.048  1.00  0.00     0.194 HD
BRANCH  22  25
HETATM   25  C2  UNL     1      20.715   6.721  -3.404  1.00  0.00     0.311 C 
HETATM   26  O2  UNL     1      19.538   6.871  -2.996  1.00  0.00    -0.258 OA
BRANCH  25  27
HETATM   27  O1  UNL     1      21.426   7.873  -3.674  1.00  0.00    -0.321 OA
HETATM   28  C1  UNL     1      20.969   8.788  -4.660  1.00  0.00     0.213 C 
ENDBRANCH  25  27
ENDBRANCH  22  25
BRANCH  23  29
HETATM   29  O3  UNL     1      21.413   3.222  -2.870  1.00  0.00    -0.278 OA
BRANCH  29  30
HETATM   30  C4  UNL     1      21.789   2.483  -1.703  1.00  0.00     0.227 C 
BRANCH  30  31
HETATM   31  C5  UNL     1      20.558   2.437  -0.832  1.00  0.00     0.196 C 
BRANCH  31  32
HETATM   32  O4  UNL     1      19.454   2.148  -1.578  1.00  0.00    -0.384 OA
BRANCH  32  33
HETATM   33  C6  UNL     1      18.301   2.299  -0.859  1.00  0.00     0.214 C 
BRANCH  33  34
HETATM   34  C7  UNL     1      17.536   0.991  -0.798  1.00  0.00     0.011 A 
HETATM   35  C8  UNL     1      17.934  -0.174  -0.203  1.00  0.00     0.056 A 
HETATM   36  C9  UNL     1      17.098  -1.219  -0.266  1.00  0.00     0.144 A 
HETATM   37  C10 UNL     1      15.911  -1.027  -0.923  1.00  0.00     0.141 A 
HETATM   38  S1  UNL     1      16.004   0.597  -1.428  1.00  0.00    -0.066 SA
BRANCH  36  39
HETATM   39  N2  UNL     1      17.394  -2.515   0.325  1.00  0.00    -0.112 N 
HETATM   40  O5  UNL     1      16.714  -2.927   1.280  1.00  0.00    -0.532 OA
HETATM   41  O6  UNL     1      18.415  -3.270  -0.173  1.00  0.00    -0.532 OA
ENDBRANCH  36  39
BRANCH  37  42
HETATM   42  O7  UNL     1      14.874  -1.965  -1.122  1.00  0.00    -0.352 OA
ATOM     43  H7  UNL     1      14.957  -2.882  -1.358  1.00  0.00     0.218 HD
ENDBRANCH  37  42
ENDBRANCH  33  34
ENDBRANCH  32  33
ENDBRANCH  31  32
ENDBRANCH  30  31
ENDBRANCH  29  30
ENDBRANCH  23  29
ENDBRANCH   1  22
BRANCH  20  44
HETATM   44  C23 UNL     1      20.770   4.120  -6.787  1.00  0.00     0.265 C 
BRANCH  44  45
HETATM   45  N7  UNL     1      21.675   3.432  -7.702  1.00  0.00    -0.077 N 
ATOM     46  H73 UNL     1      22.387   4.063  -8.069  1.00  0.00     0.274 HD
ATOM     47  H72 UNL     1      22.283   2.779  -7.209  1.00  0.00     0.274 HD
ATOM     48  H71 UNL     1      21.159   2.972  -8.452  1.00  0.00     0.274 HD
ENDBRANCH  44  45
ENDBRANCH  20  44
BRANCH  19  49
HETATM   49  O11 UNL     1      20.362   6.289  -8.753  1.00  0.00    -0.374 OA
ATOM     50  H11 UNL     1      19.647   5.848  -8.309  1.00  0.00     0.212 HD
ENDBRANCH  19  49
BRANCH  16  51
HETATM   51  C19 UNL     1      22.197   8.116 -10.082  1.00  0.00     0.281 C 
HETATM   52  O9  UNL     1      22.539   6.947 -10.354  1.00  0.00    -0.263 OA
BRANCH  51  53
HETATM   53  O10 UNL     1      22.196   9.058 -11.095  1.00  0.00    -0.325 OA
HETATM   54  C20 UNL     1      23.289   9.177 -11.986  1.00  0.00     0.213 C 
ENDBRANCH  51  53
ENDBRANCH  16  51
TORSDOF 16
ENDMDL
MODEL 3
REMARK VINA RESULT: -7.962267290      2.043      2.557
REMARK  16 active torsions:
REMARK  status: ('A' for Active; 'I' for Inactive)
REMARK    1  A    between atoms: O1_2  and  C2_3 
REMARK    2  A    between atoms: C2_3  and  C3_5 
REMARK    3  A    between atoms: C3_5  and  C11_23 
REMARK    4  A    between atoms: N1_6  and  O3_8 
REMARK    5  A    between atoms: O3_8  and  C4_9 
REMARK    6  A    between atoms: C4_9  and  C5_10 
REMARK    7  A    between atoms: C5_10  and  O4_11 
REMARK    8  A    between atoms: O4_11  and  C6_12 
REMARK    9  A    between atoms: C6_12  and  C7_13 
REMARK   10  A    between atoms: C9_15  and  N2_16 
REMARK   11  A    between atoms: C10_19  and  O7_20 
REMARK   12  A    between atoms: C18_38  and  C19_39 
REMARK   13  A    between atoms: C19_39  and  O10_41 
REMARK   14  A    between atoms: C21_45  and  O11_46 
REMARK   15  A    between atoms: C22_48  and  C23_49 
REMARK   16  A    between atoms: C23_49  and  N7_50 
ROOT
HETATM    1  C11 UNL     1      22.262   4.814  -3.908  1.00  0.00     0.283 C 
HETATM    2  N3  UNL     1      23.571   5.033  -3.308  1.00  0.00    -0.328 N 
ATOM      3  H3  UNL     1      24.038   4.211  -2.924  1.00  0.00     0.165 HD
HETATM    4  C12 UNL     1      24.259   6.250  -3.200  1.00  0.00     0.237 C 
HETATM    5  O8  UNL     1      24.632   6.657  -2.040  1.00  0.00    -0.272 OA
HETATM    6  C13 UNL     1      24.629   7.167  -4.305  1.00  0.00     0.224 C 
HETATM    7  N4  UNL     1      24.984   8.498  -3.846  1.00  0.00    -0.359 N 
ATOM      8  H4  UNL     1      25.813   8.592  -3.260  1.00  0.00     0.162 HD
HETATM    9  C14 UNL     1      24.259   9.676  -4.155  1.00  0.00     0.168 C 
HETATM   10  S2  UNL     1      24.046  10.752  -2.907  1.00  0.00    -0.041 SA
HETATM   11  N5  UNL     1      23.715   9.987  -5.423  1.00  0.00    -0.367 N 
ATOM     12  H5  UNL     1      22.756  10.337  -5.435  1.00  0.00     0.161 HD
HETATM   13  C15 UNL     1      24.371   9.862  -6.697  1.00  0.00     0.122 C 
HETATM   14  C16 UNL     1      23.743   8.901  -7.652  1.00  0.00     0.022 C 
HETATM   15  C17 UNL     1      22.300   9.164  -7.894  1.00  0.00     0.037 C 
HETATM   16  C18 UNL     1      21.592   7.842  -8.288  1.00  0.00     0.179 C 
HETATM   17  N6  UNL     1      21.832   6.957  -7.203  1.00  0.00    -0.382 N 
ATOM     18  H6  UNL     1      22.274   7.284  -6.344  1.00  0.00     0.156 HD
HETATM   19  C21 UNL     1      21.438   5.600  -7.351  1.00  0.00     0.245 C 
HETATM   20  C22 UNL     1      21.123   5.056  -5.947  1.00  0.00     0.198 C 
HETATM   21  O12 UNL     1      22.125   5.436  -5.116  1.00  0.00    -0.349 OA
ENDROOT
BRANCH   1  22
HETATM   22  C3  UNL     1      21.187   5.162  -2.918  1.00  0.00     0.155 C 
HETATM   23  N1  UNL     1      20.752   4.229  -2.147  1.00  0.00    -0.261 N 
ATOM     24  H1  UNL     1      20.035   4.445  -1.454  1.00  0.00     0.194 HD
BRANCH  22  25
HETATM   25  C2  UNL     1      20.628   6.473  -2.751  1.00  0.00     0.311 C 
HETATM   26  O2  UNL     1      19.540   6.654  -2.152  1.00  0.00    -0.258 OA
BRANCH  25  27
HETATM   27  O1  UNL     1      21.257   7.601  -3.241  1.00  0.00    -0.321 OA
HETATM   28  C1  UNL     1      20.642   8.389  -4.249  1.00  0.00     0.213 C 
ENDBRANCH  25  27
ENDBRANCH  22  25
BRANCH  23  29
HETATM   29  O3  UNL     1      21.233   2.954  -2.239  1.00  0.00    -0.278 OA
BRANCH  29  30
HETATM   30  C4  UNL     1      20.920   1.971  -1.246  1.00  0.00     0.227 C 
BRANCH  30  31
HETATM   31  C5  UNL     1      19.414   1.878  -1.222  1.00  0.00     0.196 C 
BRANCH  31  32
HETATM   32  O4  UNL     1      19.017   0.607  -0.930  1.00  0.00    -0.384 OA
BRANCH  32  33
HETATM   33  C6  UNL     1      17.658   0.513  -0.814  1.00  0.00     0.214 C 
BRANCH  33  34
HETATM   34  C7  UNL     1      17.259  -0.872  -0.342  1.00  0.00     0.011 A 
HETATM   35  C8  UNL     1      17.916  -2.048  -0.575  1.00  0.00     0.056 A 
HETATM   36  C9  UNL     1      17.387  -3.166  -0.060  1.00  0.00     0.144 A 
HETATM   37  C10 UNL     1      16.227  -3.032   0.658  1.00  0.00     0.141 A 
HETATM   38  S1  UNL     1      15.919  -1.358   0.590  1.00  0.00    -0.066 SA
BRANCH  36  39
HETATM   39  N2  UNL     1      17.983  -4.482  -0.228  1.00  0.00    -0.112 N 
HETATM   40  O5  UNL     1      19.218  -4.608  -0.200  1.00  0.00    -0.532 OA
HETATM   41  O6  UNL     1      17.182  -5.570  -0.415  1.00  0.00    -0.532 OA
ENDBRANCH  36  39
BRANCH  37  42
HETATM   42  O7  UNL     1      15.484  -4.051   1.294  1.00  0.00    -0.352 OA
ATOM     43  H7  UNL     1      15.231  -4.894   0.937  1.00  0.00     0.218 HD
ENDBRANCH  37  42
ENDBRANCH  33  34
ENDBRANCH  32  33
ENDBRANCH  31  32
ENDBRANCH  30  31
ENDBRANCH  29  30
ENDBRANCH  23  29
ENDBRANCH   1  22
BRANCH  20  44
HETATM   44  C23 UNL     1      20.831   3.579  -6.019  1.00  0.00     0.265 C 
BRANCH  44  45
HETATM   45  N7  UNL     1      21.257   3.018  -7.296  1.00  0.00    -0.077 N 
ATOM     46  H73 UNL     1      20.972   3.608  -8.078  1.00  0.00     0.274 HD
ATOM     47  H72 UNL     1      22.268   3.080  -7.414  1.00  0.00     0.274 HD
ATOM     48  H71 UNL     1      20.924   2.061  -7.408  1.00  0.00     0.274 HD
ENDBRANCH  44  45
ENDBRANCH  20  44
BRANCH  19  49
HETATM   49  O11 UNL     1      20.309   5.549  -8.160  1.00  0.00    -0.374 OA
ATOM     50  H11 UNL     1      19.873   4.715  -8.024  1.00  0.00     0.212 HD
ENDBRANCH  19  49
BRANCH  16  51
HETATM   51  C19 UNL     1      22.036   7.395  -9.602  1.00  0.00     0.281 C 
HETATM   52  O9  UNL     1      22.566   6.275  -9.754  1.00  0.00    -0.263 OA
BRANCH  51  53
HETATM   53  O10 UNL     1      21.878   8.208 -10.711  1.00  0.00    -0.325 OA
HETATM   54  C20 UNL     1      22.990   8.606 -11.491  1.00  0.00     0.213 C 
ENDBRANCH  51  53
ENDBRANCH  16  51
TORSDOF 16
ENDMDL
MODEL 4
REMARK VINA RESULT: -7.649301701      8.747     15.817
REMARK  16 active torsions:
REMARK  status: ('A' for Active; 'I' for Inactive)
REMARK    1  A    between atoms: O1_2  and  C2_3 
REMARK    2  A    between atoms: C2_3  and  C3_5 
REMARK    3  A    between atoms: C3_5  and  C11_23 
REMARK    4  A    between atoms: N1_6  and  O3_8 
REMARK    5  A    between atoms: O3_8  and  C4_9 
REMARK    6  A    between atoms: C4_9  and  C5_10 
REMARK    7  A    between atoms: C5_10  and  O4_11 
REMARK    8  A    between atoms: O4_11  and  C6_12 
REMARK    9  A    between atoms: C6_12  and  C7_13 
REMARK   10  A    between atoms: C9_15  and  N2_16 
REMARK   11  A    between atoms: C10_19  and  O7_20 
REMARK   12  A    between atoms: C18_38  and  C19_39 
REMARK   13  A    between atoms: C19_39  and  O10_41 
REMARK   14  A    between atoms: C21_45  and  O11_46 
REMARK   15  A    between atoms: C22_48  and  C23_49 
REMARK   16  A    between atoms: C23_49  and  N7_50 
ROOT
HETATM    1  C11 UNL     1      17.404  -6.997  -2.789  1.00  0.00     0.283 C 
HETATM    2  N3  UNL     1      18.796  -6.570  -2.809  1.00  0.00    -0.328 N 
ATOM      3  H3  UNL     1      19.062  -5.853  -2.134  1.00  0.00     0.165 HD
HETATM    4  C12 UNL     1      19.812  -7.038  -3.655  1.00  0.00     0.237 C 
HETATM    5  O8  UNL     1      20.459  -6.198  -4.381  1.00  0.00    -0.272 OA
HETATM    6  C13 UNL     1      20.256  -8.443  -3.825  1.00  0.00     0.224 C 
HETATM    7  N4  UNL     1      21.043  -8.651  -5.028  1.00  0.00    -0.359 N 
ATOM      8  H4  UNL     1      21.944  -8.177  -5.093  1.00  0.00     0.162 HD
HETATM    9  C14 UNL     1      20.647  -9.465  -6.118  1.00  0.00     0.168 C 
HETATM   10  S2  UNL     1      20.944  -8.852  -7.633  1.00  0.00    -0.041 SA
HETATM   11  N5  UNL     1      20.028 -10.731  -6.004  1.00  0.00    -0.367 N 
ATOM     12  H5  UNL     1      19.219 -10.900  -6.604  1.00  0.00     0.161 HD
HETATM   13  C15 UNL     1      20.418 -11.806  -5.132  1.00  0.00     0.122 C 
HETATM   14  C16 UNL     1      19.404 -12.209  -4.113  1.00  0.00     0.022 C 
HETATM   15  C17 UNL     1      18.076 -12.540  -4.697  1.00  0.00     0.037 C 
HETATM   16  C18 UNL     1      16.968 -12.277  -3.645  1.00  0.00     0.179 C 
HETATM   17  N6  UNL     1      17.108 -10.907  -3.295  1.00  0.00    -0.382 N 
ATOM     18  H6  UNL     1      17.750 -10.297  -3.801  1.00  0.00     0.156 HD
HETATM   19  C21 UNL     1      16.324 -10.412  -2.219  1.00  0.00     0.245 C 
HETATM   20  C22 UNL     1      16.085  -8.914  -2.475  1.00  0.00     0.198 C 
HETATM   21  O12 UNL     1      17.268  -8.355  -2.830  1.00  0.00    -0.349 OA
ENDROOT
BRANCH   1  22
HETATM   22  C3  UNL     1      16.638  -6.275  -3.861  1.00  0.00     0.155 C 
HETATM   23  N1  UNL     1      16.310  -5.050  -3.646  1.00  0.00    -0.261 N 
ATOM     24  H1  UNL     1      15.806  -4.533  -4.366  1.00  0.00     0.194 HD
BRANCH  22  25
HETATM   25  C2  UNL     1      16.269  -6.847  -5.124  1.00  0.00     0.311 C 
HETATM   26  O2  UNL     1      15.067  -6.985  -5.458  1.00  0.00    -0.258 OA
BRANCH  25  27
HETATM   27  O1  UNL     1      17.216  -7.275  -6.033  1.00  0.00    -0.321 OA
HETATM   28  C1  UNL     1      17.926  -6.337  -6.829  1.00  0.00     0.213 C 
ENDBRANCH  25  27
ENDBRANCH  22  25
BRANCH  23  29
HETATM   29  O3  UNL     1      16.625  -4.429  -2.471  1.00  0.00    -0.278 OA
BRANCH  29  30
HETATM   30  C4  UNL     1      15.631  -4.194  -1.468  1.00  0.00     0.227 C 
BRANCH  30  31
HETATM   31  C5  UNL     1      16.336  -4.364  -0.144  1.00  0.00     0.196 C 
BRANCH  31  32
HETATM   32  O4  UNL     1      17.128  -3.286   0.119  1.00  0.00    -0.384 OA
BRANCH  32  33
HETATM   33  C6  UNL     1      16.390  -2.163   0.374  1.00  0.00     0.214 C 
BRANCH  33  34
HETATM   34  C7  UNL     1      17.079  -0.934  -0.188  1.00  0.00     0.011 A 
HETATM   35  C8  UNL     1      18.412  -0.637  -0.139  1.00  0.00     0.056 A 
HETATM   36  C9  UNL     1      18.812   0.511  -0.703  1.00  0.00     0.144 A 
HETATM   37  C10 UNL     1      17.845   1.289  -1.283  1.00  0.00     0.141 A 
HETATM   38  S1  UNL     1      16.418   0.396  -1.021  1.00  0.00    -0.066 SA
BRANCH  36  39
HETATM   39  N2  UNL     1      20.199   0.948  -0.726  1.00  0.00    -0.112 N 
HETATM   40  O5  UNL     1      21.085   0.169  -1.116  1.00  0.00    -0.532 OA
HETATM   41  O6  UNL     1      20.518   2.210  -0.320  1.00  0.00    -0.532 OA
ENDBRANCH  36  39
BRANCH  37  42
HETATM   42  O7  UNL     1      18.013   2.530  -1.936  1.00  0.00    -0.352 OA
ATOM     43  H7  UNL     1      17.725   2.770  -2.809  1.00  0.00     0.218 HD
ENDBRANCH  37  42
ENDBRANCH  33  34
ENDBRANCH  32  33
ENDBRANCH  31  32
ENDBRANCH  30  31
ENDBRANCH  29  30
ENDBRANCH  23  29
ENDBRANCH   1  22
BRANCH  20  44
HETATM   44  C23 UNL     1      15.375  -8.295  -1.297  1.00  0.00     0.265 C 
BRANCH  44  45
HETATM   45  N7  UNL     1      14.135  -7.645  -1.711  1.00  0.00    -0.077 N 
ATOM     46  H73 UNL     1      14.065  -7.585  -2.727  1.00  0.00     0.274 HD
ATOM     47  H72 UNL     1      13.324  -8.237  -1.534  1.00  0.00     0.274 HD
ATOM     48  H71 UNL     1      14.036  -6.730  -1.273  1.00  0.00     0.274 HD
ENDBRANCH  44  45
ENDBRANCH  20  44
BRANCH  19  49
HETATM   49  O11 UNL     1      15.118 -11.101  -2.191  1.00  0.00    -0.374 OA
ATOM     50  H11 UNL     1      14.488 -10.596  -1.689  1.00  0.00     0.212 HD
ENDBRANCH  19  49
BRANCH  16  51
HETATM   51  C19 UNL     1      17.059 -13.239  -2.554  1.00  0.00     0.281 C 
HETATM   52  O9  UNL     1      18.102 -13.343  -1.875  1.00  0.00    -0.263 OA
BRANCH  51  53
HETATM   53  O10 UNL     1      15.988 -14.060  -2.251  1.00  0.00    -0.325 OA
HETATM   54  C20 UNL     1      15.085 -14.487  -3.254  1.00  0.00     0.213 C 
ENDBRANCH  51  53
ENDBRANCH  16  51
TORSDOF 16
ENDMDL
MODEL 5
REMARK VINA RESULT: -7.542512425      8.698     15.740
REMARK  16 active torsions:
REMARK  status: ('A' for Active; 'I' for Inactive)
REMARK    1  A    between atoms: O1_2  and  C2_3 
REMARK    2  A    between atoms: C2_3  and  C3_5 
REMARK    3  A    between atoms: C3_5  and  C11_23 
REMARK    4  A    between atoms: N1_6  and  O3_8 
REMARK    5  A    between atoms: O3_8  and  C4_9 
REMARK    6  A    between atoms: C4_9  and  C5_10 
REMARK    7  A    between atoms: C5_10  and  O4_11 
REMARK    8  A    between atoms: O4_11  and  C6_12 
REMARK    9  A    between atoms: C6_12  and  C7_13 
REMARK   10  A    between atoms: C9_15  and  N2_16 
REMARK   11  A    between atoms: C10_19  and  O7_20 
REMARK   12  A    between atoms: C18_38  and  C19_39 
REMARK   13  A    between atoms: C19_39  and  O10_41 
REMARK   14  A    between atoms: C21_45  and  O11_46 
REMARK   15  A    between atoms: C22_48  and  C23_49 
REMARK   16  A    between atoms: C23_49  and  N7_50 
ROOT
HETATM    1  C11 UNL     1      17.327  -7.027  -2.713  1.00  0.00     0.283 C 
HETATM    2  N3  UNL     1      18.711  -6.575  -2.724  1.00  0.00    -0.328 N 
ATOM      3  H3  UNL     1      18.962  -5.862  -2.039  1.00  0.00     0.165 HD
HETATM    4  C12 UNL     1      19.738  -7.012  -3.574  1.00  0.00     0.237 C 
HETATM    5  O8  UNL     1      20.370  -6.150  -4.287  1.00  0.00    -0.272 OA
HETATM    6  C13 UNL     1      20.207  -8.406  -3.761  1.00  0.00     0.224 C 
HETATM    7  N4  UNL     1      21.001  -8.583  -4.965  1.00  0.00    -0.359 N 
ATOM      8  H4  UNL     1      21.893  -8.091  -5.021  1.00  0.00     0.162 HD
HETATM    9  C14 UNL     1      20.623  -9.389  -6.067  1.00  0.00     0.168 C 
HETATM   10  S2  UNL     1      20.911  -8.751  -7.573  1.00  0.00    -0.041 SA
HETATM   11  N5  UNL     1      20.027 -10.669  -5.972  1.00  0.00    -0.367 N 
ATOM     12  H5  UNL     1      19.223 -10.845  -6.576  1.00  0.00     0.161 HD
HETATM   13  C15 UNL     1      20.435 -11.748  -5.113  1.00  0.00     0.122 C 
HETATM   14  C16 UNL     1      19.426 -12.183  -4.102  1.00  0.00     0.022 C 
HETATM   15  C17 UNL     1      18.107 -12.531  -4.694  1.00  0.00     0.037 C 
HETATM   16  C18 UNL     1      16.992 -12.303  -3.641  1.00  0.00     0.179 C 
HETATM   17  N6  UNL     1      17.105 -10.935  -3.272  1.00  0.00    -0.382 N 
ATOM     18  H6  UNL     1      17.737 -10.307  -3.768  1.00  0.00     0.156 HD
HETATM   19  C21 UNL     1      16.309 -10.469  -2.192  1.00  0.00     0.245 C 
HETATM   20  C22 UNL     1      16.043  -8.973  -2.428  1.00  0.00     0.198 C 
HETATM   21  O12 UNL     1      17.217  -8.387  -2.773  1.00  0.00    -0.349 OA
ENDROOT
BRANCH   1  22
HETATM   22  C3  UNL     1      16.550  -6.306  -3.777  1.00  0.00     0.155 C 
HETATM   23  N1  UNL     1      16.250  -5.072  -3.571  1.00  0.00    -0.261 N 
ATOM     24  H1  UNL     1      15.738  -4.555  -4.286  1.00  0.00     0.194 HD
BRANCH  22  25
HETATM   25  C2  UNL     1      16.142  -6.887  -5.023  1.00  0.00     0.311 C 
HETATM   26  O2  UNL     1      14.933  -7.090  -5.290  1.00  0.00    -0.258 OA
BRANCH  25  27
HETATM   27  O1  UNL     1      17.057  -7.253  -5.990  1.00  0.00    -0.321 OA
HETATM   28  C1  UNL     1      17.812  -6.266  -6.678  1.00  0.00     0.213 C 
ENDBRANCH  25  27
ENDBRANCH  22  25
BRANCH  23  29
HETATM   29  O3  UNL     1      16.603  -4.441  -2.412  1.00  0.00    -0.278 OA
BRANCH  29  30
HETATM   30  C4  UNL     1      15.650  -4.228  -1.365  1.00  0.00     0.227 C 
BRANCH  30  31
HETATM   31  C5  UNL     1      16.438  -4.276  -0.079  1.00  0.00     0.196 C 
BRANCH  31  32
HETATM   32  O4  UNL     1      16.358  -3.083   0.576  1.00  0.00    -0.384 OA
BRANCH  32  33
HETATM   33  C6  UNL     1      17.554  -2.419   0.573  1.00  0.00     0.214 C 
BRANCH  33  34
HETATM   34  C7  UNL     1      17.433  -1.108  -0.181  1.00  0.00     0.011 A 
HETATM   35  C8  UNL     1      16.305  -0.576  -0.741  1.00  0.00     0.056 A 
HETATM   36  C9  UNL     1      16.421   0.604  -1.365  1.00  0.00     0.144 A 
HETATM   37  C10 UNL     1      17.666   1.177  -1.386  1.00  0.00     0.141 A 
HETATM   38  S1  UNL     1      18.626   0.053  -0.538  1.00  0.00    -0.066 SA
BRANCH  36  39
HETATM   39  N2  UNL     1      15.304   1.284  -2.001  1.00  0.00    -0.112 N 
HETATM   40  O5  UNL     1      15.328   2.519  -2.135  1.00  0.00    -0.532 OA
HETATM   41  O6  UNL     1      14.237   0.561  -2.449  1.00  0.00    -0.532 OA
ENDBRANCH  36  39
BRANCH  37  42
HETATM   42  O7  UNL     1      18.041   2.405  -1.974  1.00  0.00    -0.352 OA
ATOM     43  H7  UNL     1      18.826   2.913  -1.808  1.00  0.00     0.218 HD
ENDBRANCH  37  42
ENDBRANCH  33  34
ENDBRANCH  32  33
ENDBRANCH  31  32
ENDBRANCH  30  31
ENDBRANCH  29  30
ENDBRANCH  23  29
ENDBRANCH   1  22
BRANCH  20  44
HETATM   44  C23 UNL     1      15.319  -8.383  -1.244  1.00  0.00     0.265 C 
BRANCH  44  45
HETATM   45  N7  UNL     1      14.115  -7.673  -1.663  1.00  0.00    -0.077 N 
ATOM     46  H73 UNL     1      13.770  -7.055  -0.928  1.00  0.00     0.274 HD
ATOM     47  H72 UNL     1      14.321  -6.972  -2.374  1.00  0.00     0.274 HD
ATOM     48  H71 UNL     1      13.394  -8.324  -1.974  1.00  0.00     0.274 HD
ENDBRANCH  44  45
ENDBRANCH  20  44
BRANCH  19  49
HETATM   49  O11 UNL     1      15.117 -11.181  -2.175  1.00  0.00    -0.374 OA
ATOM     50  H11 UNL     1      14.423 -10.609  -1.867  1.00  0.00     0.212 HD
ENDBRANCH  19  49
BRANCH  16  51
HETATM   51  C19 UNL     1      17.098 -13.278  -2.562  1.00  0.00     0.281 C 
HETATM   52  O9  UNL     1      18.072 -13.267  -1.781  1.00  0.00    -0.263 OA
BRANCH  51  53
HETATM   53  O10 UNL     1      16.118 -14.238  -2.385  1.00  0.00    -0.325 OA
HETATM   54  C20 UNL     1      15.092 -14.423  -3.342  1.00  0.00     0.213 C 
ENDBRANCH  51  53
ENDBRANCH  16  51
TORSDOF 16
ENDMDL
