MODEL 1
REMARK VINA RESULT: -11.003917181      0.000      0.000
REMARK  14 active torsions:
REMARK  status: ('A' for Active; 'I' for Inactive)
REMARK    1  A    between atoms: C3_8  and  N3_9 
REMARK    2  A    between atoms: N7_21  and  C8_22 
REMARK    3  A    between atoms: C8_22  and  C9_23 
REMARK    4  A    between atoms: C8_22  and  C25_45 
REMARK    5  A    between atoms: C13_27  and  C14_28 
REMARK       I    between atoms: C14_28  and  N8_30 
REMARK    6  A    between atoms: N8_30  and  C15_32 
REMARK    7  A    between atoms: C17_34  and  C18_35 
REMARK    8  A    between atoms: C25_45  and  O4_46 
REMARK    9  A    between atoms: C25_45  and  C27_49 
REMARK   10  A    between atoms: C27_49  and  O5_50 
REMARK   11  A    between atoms: C27_49  and  C28_52 
REMARK   12  A    between atoms: C28_52  and  O6_53 
REMARK   13  A    between atoms: C28_52  and  C29_55 
REMARK   14  A    between atoms: C29_55  and  O7_56 
ROOT
HETATM    1  O4  UNL     1      13.548  -5.868  -3.419  1.00  0.00    -0.273 OA
HETATM    2  C26 UNL     1      12.520  -6.697  -3.680  1.00  0.00     0.229 C 
HETATM    3  N11 UNL     1      11.633  -7.388  -3.902  1.00  0.00    -0.164 NA
ENDROOT
BRANCH   1   4
HETATM    4  C25 UNL     1      14.696  -6.216  -2.683  1.00  0.00     0.202 C 
BRANCH   4   5
HETATM    5  C8  UNL     1      15.698  -5.090  -2.613  1.00  0.00     0.175 C 
BRANCH   5   6
HETATM    6  N7  UNL     1      17.006  -5.608  -2.938  1.00  0.00    -0.274 N 
HETATM    7  C7  UNL     1      17.932  -6.100  -2.001  1.00  0.00     0.203 A 
HETATM    8  N6  UNL     1      19.116  -6.549  -2.290  1.00  0.00    -0.334 N 
HETATM    9  C5  UNL     1      19.538  -6.558  -3.646  1.00  0.00     0.169 A 
ATOM     10  H6  UNL     1      19.734  -6.889  -1.554  1.00  0.00     0.168 HD
HETATM   11  C4  UNL     1      18.684  -6.093  -4.615  1.00  0.00     0.190 A 
HETATM   12  N4  UNL     1      20.666  -6.944  -4.266  1.00  0.00    -0.172 N 
HETATM   13  N3  UNL     1      19.297  -6.197  -5.822  1.00  0.00    -0.107 N 
HETATM   14  N12 UNL     1      17.395  -5.604  -4.298  1.00  0.00    -0.278 N 
HETATM   15  C6  UNL     1      20.515  -6.722  -5.599  1.00  0.00     0.687 A 
HETATM   16  N5  UNL     1      21.374  -6.959  -6.538  1.00  0.00    -0.234 N 
ATOM     17  H52 UNL     1      21.261  -6.793  -7.537  1.00  0.00     0.174 HD
ATOM     18  H51 UNL     1      22.298  -7.357  -6.369  1.00  0.00     0.174 HD
ATOM     19  H12 UNL     1      16.768  -5.260  -5.025  1.00  0.00     0.189 HD
ATOM     20  H4  UNL     1      21.492  -7.336  -3.815  1.00  0.00     0.186 HD
BRANCH  13  21
HETATM   21  C3  UNL     1      18.718  -5.812  -7.061  1.00  0.00     0.205 A 
HETATM   22  N2  UNL     1      18.965  -4.619  -7.634  1.00  0.00    -0.281 N 
HETATM   23  C2  UNL     1      18.412  -4.271  -8.802  1.00  0.00     0.388 A 
ATOM     24  H2  UNL     1      19.590  -3.964  -7.165  1.00  0.00     0.173 HD
HETATM   25  O1  UNL     1      17.615  -5.120  -9.389  1.00  0.00    -0.176 OA
HETATM   26  O2  UNL     1      18.630  -3.148  -9.366  1.00  0.00    -0.236 OA
HETATM   27  N1  UNL     1      17.320  -6.298  -8.905  1.00  0.00    -0.213 N 
HETATM   28  C1  UNL     1      16.423  -7.161  -9.640  1.00  0.00     0.190 C 
HETATM   29  C30 UNL     1      17.868  -6.667  -7.727  1.00  0.00     0.312 A 
HETATM   30  O8  UNL     1      17.609  -7.782  -7.237  1.00  0.00    -0.262 OA
ENDBRANCH  13  21
ENDBRANCH   5   6
BRANCH   5  31
HETATM   31  C9  UNL     1      15.719  -4.331  -1.370  1.00  0.00    -0.030 A 
HETATM   32  C10 UNL     1      15.031  -4.668  -0.226  1.00  0.00     0.009 A 
HETATM   33  C11 UNL     1      15.086  -3.913   0.933  1.00  0.00     0.002 A 
HETATM   34  C12 UNL     1      15.846  -2.773   0.988  1.00  0.00     0.017 A 
HETATM   35  C13 UNL     1      16.535  -2.436  -0.159  1.00  0.00     0.032 A 
HETATM   36  C24 UNL     1      16.499  -3.163  -1.316  1.00  0.00     0.026 A 
BRANCH  35  37
HETATM   37  C14 UNL     1      17.371  -1.208  -0.138  1.00  0.00     0.253 C 
HETATM   38  O3  UNL     1      18.565  -1.297   0.190  1.00  0.00    -0.268 OA
HETATM   39  N8  UNL     1      16.778   0.034  -0.491  1.00  0.00    -0.337 N 
ATOM     40  H8  UNL     1      15.794   0.083  -0.757  1.00  0.00     0.164 HD
BRANCH  39  41
HETATM   41  C15 UNL     1      17.590   1.217  -0.466  1.00  0.00     0.204 C 
HETATM   42  C16 UNL     1      18.619   1.269  -1.566  1.00  0.00     0.103 C 
HETATM   43  C17 UNL     1      18.791   2.721  -1.772  1.00  0.00     0.035 C 
HETATM   44  N9  UNL     1      17.733   3.309  -1.330  1.00  0.00    -0.305 N 
HETATM   45  N10 UNL     1      16.816   2.409  -0.824  1.00  0.00    -0.115 NA
ATOM     46  H9  UNL     1      17.590   4.319  -1.352  1.00  0.00     0.182 HD
BRANCH  43  47
HETATM   47  C18 UNL     1      19.972   3.339  -2.378  1.00  0.00    -0.013 A 
HETATM   48  C19 UNL     1      21.111   3.575  -1.647  1.00  0.00     0.013 A 
HETATM   49  C20 UNL     1      22.229   4.166  -2.238  1.00  0.00     0.001 A 
HETATM   50  C21 UNL     1      22.223   4.530  -3.569  1.00  0.00     0.000 A 
HETATM   51  C22 UNL     1      21.088   4.295  -4.298  1.00  0.00     0.001 A 
HETATM   52  C23 UNL     1      19.971   3.704  -3.703  1.00  0.00     0.013 A 
ENDBRANCH  43  47
ENDBRANCH  39  41
ENDBRANCH  35  37
ENDBRANCH   5  31
ENDBRANCH   4   5
BRANCH   4  53
HETATM   53  C27 UNL     1      15.333  -7.424  -3.366  1.00  0.00     0.181 C 
BRANCH  53  54
HETATM   54  O5  UNL     1      14.874  -7.559  -4.681  1.00  0.00    -0.390 OA
ATOM     55  H5  UNL     1      14.384  -8.366  -4.791  1.00  0.00     0.210 HD
ENDBRANCH  53  54
BRANCH  53  56
HETATM   56  C28 UNL     1      15.036  -8.632  -2.537  1.00  0.00     0.173 C 
BRANCH  56  57
HETATM   57  O6  UNL     1      14.669  -8.196  -1.264  1.00  0.00    -0.391 OA
ATOM     58  H6  UNL     1      13.720  -8.215  -1.214  1.00  0.00     0.210 HD
ENDBRANCH  56  57
BRANCH  56  59
HETATM   59  C29 UNL     1      16.236  -9.543  -2.414  1.00  0.00     0.198 C 
BRANCH  59  60
HETATM   60  O7  UNL     1      17.243  -9.130  -3.260  1.00  0.00    -0.398 OA
ATOM     61  H7  UNL     1      18.061  -9.560  -3.038  1.00  0.00     0.209 HD
ENDBRANCH  59  60
ENDBRANCH  56  59
ENDBRANCH  53  56
ENDBRANCH   4  53
ENDBRANCH   1   4
TORSDOF 14
ENDMDL
MODEL 2
REMARK VINA RESULT: -10.694858652      1.164      1.877
REMARK  14 active torsions:
REMARK  status: ('A' for Active; 'I' for Inactive)
REMARK    1  A    between atoms: C3_8  and  N3_9 
REMARK    2  A    between atoms: N7_21  and  C8_22 
REMARK    3  A    between atoms: C8_22  and  C9_23 
REMARK    4  A    between atoms: C8_22  and  C25_45 
REMARK    5  A    between atoms: C13_27  and  C14_28 
REMARK       I    between atoms: C14_28  and  N8_30 
REMARK    6  A    between atoms: N8_30  and  C15_32 
REMARK    7  A    between atoms: C17_34  and  C18_35 
REMARK    8  A    between atoms: C25_45  and  O4_46 
REMARK    9  A    between atoms: C25_45  and  C27_49 
REMARK   10  A    between atoms: C27_49  and  O5_50 
REMARK   11  A    between atoms: C27_49  and  C28_52 
REMARK   12  A    between atoms: C28_52  and  O6_53 
REMARK   13  A    between atoms: C28_52  and  C29_55 
REMARK   14  A    between atoms: C29_55  and  O7_56 
ROOT
HETATM    1  O4  UNL     1      14.992  -7.611  -2.169  1.00  0.00    -0.273 OA
HETATM    2  C26 UNL     1      15.425  -8.880  -2.289  1.00  0.00     0.229 C 
HETATM    3  N11 UNL     1      15.800  -9.960  -2.373  1.00  0.00    -0.164 NA
ENDROOT
BRANCH   1   4
HETATM    4  C25 UNL     1      14.951  -6.672  -3.217  1.00  0.00     0.202 C 
BRANCH   4   5
HETATM    5  C8  UNL     1      15.917  -5.533  -3.005  1.00  0.00     0.175 C 
BRANCH   5   6
HETATM    6  N7  UNL     1      17.252  -5.988  -3.316  1.00  0.00    -0.274 N 
HETATM    7  C7  UNL     1      18.150  -6.539  -2.384  1.00  0.00     0.203 A 
HETATM    8  N6  UNL     1      19.357  -6.932  -2.658  1.00  0.00    -0.334 N 
HETATM    9  C5  UNL     1      19.837  -6.811  -3.989  1.00  0.00     0.169 A 
ATOM     10  H6  UNL     1      19.953  -7.322  -1.928  1.00  0.00     0.168 HD
HETATM   11  C4  UNL     1      19.013  -6.282  -4.951  1.00  0.00     0.190 A 
HETATM   12  N4  UNL     1      21.001  -7.113  -4.589  1.00  0.00    -0.172 N 
HETATM   13  N3  UNL     1      19.679  -6.264  -6.134  1.00  0.00    -0.107 N 
HETATM   14  N12 UNL     1      17.699  -5.854  -4.651  1.00  0.00    -0.278 N 
HETATM   15  C6  UNL     1      20.900  -6.777  -5.904  1.00  0.00     0.687 A 
HETATM   16  N5  UNL     1      21.806  -6.910  -6.820  1.00  0.00    -0.234 N 
ATOM     17  H52 UNL     1      21.731  -6.658  -7.805  1.00  0.00     0.174 HD
ATOM     18  H51 UNL     1      22.732  -7.299  -6.644  1.00  0.00     0.174 HD
ATOM     19  H12 UNL     1      17.093  -5.462  -5.372  1.00  0.00     0.189 HD
ATOM     20  H4  UNL     1      21.818  -7.524  -4.138  1.00  0.00     0.186 HD
BRANCH  13  21
HETATM   21  C3  UNL     1      19.144  -5.784  -7.359  1.00  0.00     0.205 A 
HETATM   22  N2  UNL     1      19.342  -4.525  -7.791  1.00  0.00    -0.281 N 
HETATM   23  C2  UNL     1      18.831  -4.087  -8.947  1.00  0.00     0.388 A 
ATOM     24  H2  UNL     1      19.897  -3.887  -7.220  1.00  0.00     0.173 HD
HETATM   25  O1  UNL     1      18.123  -4.915  -9.665  1.00  0.00    -0.176 OA
HETATM   26  O2  UNL     1      19.004  -2.900  -9.379  1.00  0.00    -0.236 OA
HETATM   27  N1  UNL     1      17.880  -6.153  -9.324  1.00  0.00    -0.213 N 
HETATM   28  C1  UNL     1      17.083  -6.985 -10.196  1.00  0.00     0.190 C 
HETATM   29  C30 UNL     1      18.388  -6.612  -8.159  1.00  0.00     0.312 A 
HETATM   30  O8  UNL     1      18.176  -7.786  -7.803  1.00  0.00    -0.262 OA
ENDBRANCH  13  21
ENDBRANCH   5   6
BRANCH   5  31
HETATM   31  C9  UNL     1      15.865  -4.884  -1.702  1.00  0.00    -0.030 A 
HETATM   32  C10 UNL     1      15.243  -5.400  -0.588  1.00  0.00     0.009 A 
HETATM   33  C11 UNL     1      15.223  -4.744   0.632  1.00  0.00     0.002 A 
HETATM   34  C12 UNL     1      15.836  -3.527   0.780  1.00  0.00     0.017 A 
HETATM   35  C13 UNL     1      16.460  -3.012  -0.338  1.00  0.00     0.032 A 
HETATM   36  C24 UNL     1      16.495  -3.637  -1.552  1.00  0.00     0.026 A 
BRANCH  35  37
HETATM   37  C14 UNL     1      17.137  -1.695  -0.215  1.00  0.00     0.253 C 
HETATM   38  O3  UNL     1      18.283  -1.649   0.262  1.00  0.00    -0.268 OA
HETATM   39  N8  UNL     1      16.454  -0.527  -0.647  1.00  0.00    -0.337 N 
ATOM     40  H8  UNL     1      15.513  -0.590  -1.036  1.00  0.00     0.164 HD
BRANCH  39  41
HETATM   41  C15 UNL     1      17.113   0.742  -0.524  1.00  0.00     0.204 C 
HETATM   42  C16 UNL     1      18.400   0.834  -1.302  1.00  0.00     0.103 C 
HETATM   43  C17 UNL     1      18.488   2.277  -1.602  1.00  0.00     0.035 C 
HETATM   44  N9  UNL     1      17.299   2.768  -1.527  1.00  0.00    -0.305 N 
HETATM   45  N10 UNL     1      16.364   1.806  -1.199  1.00  0.00    -0.115 NA
ATOM     46  H9  UNL     1      17.076   3.750  -1.691  1.00  0.00     0.182 HD
BRANCH  43  47
HETATM   47  C18 UNL     1      19.729   2.984  -1.924  1.00  0.00    -0.013 A 
HETATM   48  C19 UNL     1      20.937   2.585  -1.404  1.00  0.00     0.013 A 
HETATM   49  C20 UNL     1      22.112   3.269  -1.720  1.00  0.00     0.001 A 
HETATM   50  C21 UNL     1      22.096   4.362  -2.561  1.00  0.00     0.000 A 
HETATM   51  C22 UNL     1      20.893   4.761  -3.079  1.00  0.00     0.001 A 
HETATM   52  C23 UNL     1      19.719   4.074  -2.761  1.00  0.00     0.013 A 
ENDBRANCH  43  47
ENDBRANCH  39  41
ENDBRANCH  35  37
ENDBRANCH   5  31
ENDBRANCH   4   5
BRANCH   4  53
HETATM   53  C27 UNL     1      13.527  -6.126  -3.293  1.00  0.00     0.181 C 
BRANCH  53  54
HETATM   54  O5  UNL     1      12.743  -6.617  -2.242  1.00  0.00    -0.390 OA
ATOM     55  H5  UNL     1      11.963  -6.088  -2.122  1.00  0.00     0.210 HD
ENDBRANCH  53  54
BRANCH  53  56
HETATM   56  C28 UNL     1      12.966  -6.486  -4.632  1.00  0.00     0.173 C 
BRANCH  56  57
HETATM   57  O6  UNL     1      12.336  -5.353  -5.148  1.00  0.00    -0.391 OA
ATOM     58  H6  UNL     1      11.403  -5.447  -4.997  1.00  0.00     0.210 HD
ENDBRANCH  56  57
BRANCH  56  59
HETATM   59  C29 UNL     1      11.958  -7.608  -4.539  1.00  0.00     0.198 C 
BRANCH  59  60
HETATM   60  O7  UNL     1      12.554  -8.754  -4.059  1.00  0.00    -0.398 OA
ATOM     61  H7  UNL     1      12.465  -9.462  -4.685  1.00  0.00     0.209 HD
ENDBRANCH  59  60
ENDBRANCH  56  59
ENDBRANCH  53  56
ENDBRANCH   4  53
ENDBRANCH   1   4
TORSDOF 14
ENDMDL
MODEL 3
REMARK VINA RESULT: -10.550911439      3.229      6.725
REMARK  14 active torsions:
REMARK  status: ('A' for Active; 'I' for Inactive)
REMARK    1  A    between atoms: C3_8  and  N3_9 
REMARK    2  A    between atoms: N7_21  and  C8_22 
REMARK    3  A    between atoms: C8_22  and  C9_23 
REMARK    4  A    between atoms: C8_22  and  C25_45 
REMARK    5  A    between atoms: C13_27  and  C14_28 
REMARK       I    between atoms: C14_28  and  N8_30 
REMARK    6  A    between atoms: N8_30  and  C15_32 
REMARK    7  A    between atoms: C17_34  and  C18_35 
REMARK    8  A    between atoms: C25_45  and  O4_46 
REMARK    9  A    between atoms: C25_45  and  C27_49 
REMARK   10  A    between atoms: C27_49  and  O5_50 
REMARK   11  A    between atoms: C27_49  and  C28_52 
REMARK   12  A    between atoms: C28_52  and  O6_53 
REMARK   13  A    between atoms: C28_52  and  C29_55 
REMARK   14  A    between atoms: C29_55  and  O7_56 
ROOT
HETATM    1  O4  UNL     1      14.911  -0.016  -2.910  1.00  0.00    -0.273 OA
HETATM    2  C26 UNL     1      14.514   0.562  -4.058  1.00  0.00     0.229 C 
HETATM    3  N11 UNL     1      14.173   1.038  -5.045  1.00  0.00    -0.164 NA
ENDROOT
BRANCH   1   4
HETATM    4  C25 UNL     1      15.866   0.520  -2.026  1.00  0.00     0.202 C 
BRANCH   4   5
HETATM    5  C8  UNL     1      16.979  -0.451  -1.723  1.00  0.00     0.175 C 
BRANCH   5   6
HETATM    6  N7  UNL     1      16.432  -1.577  -1.002  1.00  0.00    -0.274 N 
HETATM    7  C7  UNL     1      16.043  -1.554   0.350  1.00  0.00     0.203 A 
HETATM    8  N6  UNL     1      15.568  -2.571   1.004  1.00  0.00    -0.334 N 
HETATM    9  C5  UNL     1      15.417  -3.813   0.334  1.00  0.00     0.169 A 
ATOM     10  H6  UNL     1      15.307  -2.478   1.986  1.00  0.00     0.168 HD
HETATM   11  C4  UNL     1      15.777  -3.908  -0.988  1.00  0.00     0.190 A 
HETATM   12  N4  UNL     1      14.971  -5.024   0.709  1.00  0.00    -0.172 N 
HETATM   13  N3  UNL     1      15.548  -5.178  -1.412  1.00  0.00    -0.107 N 
HETATM   14  N12 UNL     1      16.295  -2.800  -1.699  1.00  0.00    -0.278 N 
HETATM   15  C6  UNL     1      15.052  -5.857  -0.363  1.00  0.00     0.687 A 
HETATM   16  N5  UNL     1      14.719  -7.107  -0.414  1.00  0.00    -0.234 N 
ATOM     17  H52 UNL     1      14.780  -7.732  -1.217  1.00  0.00     0.174 HD
ATOM     18  H51 UNL     1      14.343  -7.623   0.382  1.00  0.00     0.174 HD
ATOM     19  H12 UNL     1      16.559  -2.880  -2.680  1.00  0.00     0.189 HD
ATOM     20  H4  UNL     1      14.630  -5.275   1.637  1.00  0.00     0.186 HD
BRANCH  13  21
HETATM   21  C3  UNL     1      15.801  -5.651  -2.727  1.00  0.00     0.205 A 
HETATM   22  N2  UNL     1      14.827  -6.127  -3.524  1.00  0.00    -0.281 N 
HETATM   23  C2  UNL     1      15.080  -6.570  -4.761  1.00  0.00     0.388 A 
ATOM     24  H2  UNL     1      13.868  -6.151  -3.175  1.00  0.00     0.173 HD
HETATM   25  O1  UNL     1      16.311  -6.533  -5.192  1.00  0.00    -0.176 OA
HETATM   26  O2  UNL     1      14.175  -7.024  -5.535  1.00  0.00    -0.236 OA
HETATM   27  N1  UNL     1      17.318  -6.088  -4.488  1.00  0.00    -0.213 N 
HETATM   28  C1  UNL     1      18.642  -6.093  -5.065  1.00  0.00     0.190 C 
HETATM   29  C30 UNL     1      17.081  -5.638  -3.237  1.00  0.00     0.312 A 
HETATM   30  O8  UNL     1      18.017  -5.208  -2.537  1.00  0.00    -0.262 OA
ENDBRANCH  13  21
ENDBRANCH   5   6
BRANCH   5  31
HETATM   31  C9  UNL     1      18.143   0.102  -1.043  1.00  0.00    -0.030 A 
HETATM   32  C10 UNL     1      18.709  -0.415   0.100  1.00  0.00     0.009 A 
HETATM   33  C11 UNL     1      19.819   0.148   0.708  1.00  0.00     0.002 A 
HETATM   34  C12 UNL     1      20.409   1.268   0.183  1.00  0.00     0.017 A 
HETATM   35  C13 UNL     1      19.840   1.785  -0.963  1.00  0.00     0.032 A 
HETATM   36  C24 UNL     1      18.747   1.250  -1.583  1.00  0.00     0.026 A 
BRANCH  35  37
HETATM   37  C14 UNL     1      20.454   2.998  -1.562  1.00  0.00     0.253 C 
HETATM   38  O3  UNL     1      21.639   3.264  -1.305  1.00  0.00    -0.268 OA
HETATM   39  N8  UNL     1      19.666   3.820  -2.411  1.00  0.00    -0.337 N 
ATOM     40  H8  UNL     1      18.694   3.581  -2.609  1.00  0.00     0.164 HD
BRANCH  39  41
HETATM   41  C15 UNL     1      20.263   4.991  -2.986  1.00  0.00     0.204 C 
HETATM   42  C16 UNL     1      20.266   4.993  -4.493  1.00  0.00     0.103 C 
HETATM   43  C17 UNL     1      20.236   6.434  -4.810  1.00  0.00     0.035 C 
HETATM   44  N9  UNL     1      19.757   7.052  -3.786  1.00  0.00    -0.305 N 
HETATM   45  N10 UNL     1      19.440   6.183  -2.760  1.00  0.00    -0.115 NA
ATOM     46  H9  UNL     1      19.626   8.063  -3.738  1.00  0.00     0.182 HD
BRANCH  43  47
HETATM   47  C18 UNL     1      20.680   7.015  -6.078  1.00  0.00    -0.013 A 
HETATM   48  C19 UNL     1      20.952   8.357  -6.195  1.00  0.00     0.013 A 
HETATM   49  C20 UNL     1      21.374   8.897  -7.411  1.00  0.00     0.001 A 
HETATM   50  C21 UNL     1      21.530   8.101  -8.528  1.00  0.00     0.000 A 
HETATM   51  C22 UNL     1      21.260   6.765  -8.412  1.00  0.00     0.001 A 
HETATM   52  C23 UNL     1      20.838   6.228  -7.194  1.00  0.00     0.013 A 
ENDBRANCH  43  47
ENDBRANCH  39  41
ENDBRANCH  35  37
ENDBRANCH   5  31
ENDBRANCH   4   5
BRANCH   4  53
HETATM   53  C27 UNL     1      15.143   0.888  -0.733  1.00  0.00     0.181 C 
BRANCH  53  54
HETATM   54  O5  UNL     1      13.837   0.384  -0.725  1.00  0.00    -0.390 OA
ATOM     55  H5  UNL     1      13.225   1.016  -1.084  1.00  0.00     0.210 HD
ENDBRANCH  53  54
BRANCH  53  56
HETATM   56  C28 UNL     1      15.174   2.377  -0.594  1.00  0.00     0.173 C 
BRANCH  56  57
HETATM   57  O6  UNL     1      15.138   2.925  -1.876  1.00  0.00    -0.391 OA
ATOM     58  H6  UNL     1      15.605   3.752  -1.851  1.00  0.00     0.210 HD
ENDBRANCH  56  57
BRANCH  56  59
HETATM   59  C29 UNL     1      16.425   2.854   0.107  1.00  0.00     0.198 C 
BRANCH  59  60
HETATM   60  O7  UNL     1      16.995   3.901  -0.585  1.00  0.00    -0.398 OA
ATOM     61  H7  UNL     1      17.694   4.294  -0.075  1.00  0.00     0.209 HD
ENDBRANCH  59  60
ENDBRANCH  56  59
ENDBRANCH  53  56
ENDBRANCH   4  53
ENDBRANCH   1   4
TORSDOF 14
ENDMDL
MODEL 4
REMARK VINA RESULT: -10.487359886      3.165      6.459
REMARK  14 active torsions:
REMARK  status: ('A' for Active; 'I' for Inactive)
REMARK    1  A    between atoms: C3_8  and  N3_9 
REMARK    2  A    between atoms: N7_21  and  C8_22 
REMARK    3  A    between atoms: C8_22  and  C9_23 
REMARK    4  A    between atoms: C8_22  and  C25_45 
REMARK    5  A    between atoms: C13_27  and  C14_28 
REMARK       I    between atoms: C14_28  and  N8_30 
REMARK    6  A    between atoms: N8_30  and  C15_32 
REMARK    7  A    between atoms: C17_34  and  C18_35 
REMARK    8  A    between atoms: C25_45  and  O4_46 
REMARK    9  A    between atoms: C25_45  and  C27_49 
REMARK   10  A    between atoms: C27_49  and  O5_50 
REMARK   11  A    between atoms: C27_49  and  C28_52 
REMARK   12  A    between atoms: C28_52  and  O6_53 
REMARK   13  A    between atoms: C28_52  and  C29_55 
REMARK   14  A    between atoms: C29_55  and  O7_56 
ROOT
HETATM    1  O4  UNL     1      15.937   1.881   0.116  1.00  0.00    -0.273 OA
HETATM    2  C26 UNL     1      16.321   2.977  -0.564  1.00  0.00     0.229 C 
HETATM    3  N11 UNL     1      16.642   3.922  -1.129  1.00  0.00    -0.164 NA
ENDROOT
BRANCH   1   4
HETATM    4  C25 UNL     1      15.439   0.702  -0.472  1.00  0.00     0.202 C 
BRANCH   4   5
HETATM    5  C8  UNL     1      16.536  -0.168  -1.032  1.00  0.00     0.175 C 
BRANCH   5   6
HETATM    6  N7  UNL     1      16.242  -1.548  -0.720  1.00  0.00    -0.274 N 
HETATM    7  C7  UNL     1      15.536  -1.983   0.416  1.00  0.00     0.203 A 
HETATM    8  N6  UNL     1      15.287  -3.224   0.706  1.00  0.00    -0.334 N 
HETATM    9  C5  UNL     1      15.748  -4.243  -0.168  1.00  0.00     0.169 A 
ATOM     10  H6  UNL     1      14.769  -3.463   1.551  1.00  0.00     0.168 HD
HETATM   11  C4  UNL     1      16.444  -3.891  -1.298  1.00  0.00     0.190 A 
HETATM   12  N4  UNL     1      15.662  -5.584  -0.160  1.00  0.00    -0.172 N 
HETATM   13  N3  UNL     1      16.780  -5.020  -1.973  1.00  0.00    -0.107 N 
HETATM   14  N12 UNL     1      16.715  -2.538  -1.612  1.00  0.00    -0.278 N 
HETATM   15  C6  UNL     1      16.296  -6.056  -1.268  1.00  0.00     0.687 A 
HETATM   16  N5  UNL     1      16.435  -7.293  -1.625  1.00  0.00    -0.234 N 
ATOM     17  H52 UNL     1      16.910  -7.647  -2.455  1.00  0.00     0.174 HD
ATOM     18  H51 UNL     1      16.068  -8.080  -1.090  1.00  0.00     0.174 HD
ATOM     19  H12 UNL     1      17.232  -2.286  -2.454  1.00  0.00     0.189 HD
ATOM     20  H4  UNL     1      15.202  -6.150   0.553  1.00  0.00     0.186 HD
BRANCH  13  21
HETATM   21  C3  UNL     1      17.507  -5.049  -3.193  1.00  0.00     0.205 A 
HETATM   22  N2  UNL     1      17.096  -4.396  -4.296  1.00  0.00    -0.281 N 
HETATM   23  C2  UNL     1      17.792  -4.432  -5.438  1.00  0.00     0.388 A 
ATOM     24  H2  UNL     1      16.231  -3.858  -4.259  1.00  0.00     0.173 HD
HETATM   25  O1  UNL     1      18.897  -5.126  -5.469  1.00  0.00    -0.176 OA
HETATM   26  O2  UNL     1      17.425  -3.822  -6.495  1.00  0.00    -0.236 OA
HETATM   27  N1  UNL     1      19.370  -5.790  -4.447  1.00  0.00    -0.213 N 
HETATM   28  C1  UNL     1      20.605  -6.526  -4.592  1.00  0.00     0.190 C 
HETATM   29  C30 UNL     1      18.681  -5.764  -3.286  1.00  0.00     0.312 A 
HETATM   30  O8  UNL     1      19.102  -6.386  -2.293  1.00  0.00    -0.262 OA
ENDBRANCH  13  21
ENDBRANCH   5   6
BRANCH   5  31
HETATM   31  C9  UNL     1      17.894   0.187  -0.645  1.00  0.00    -0.030 A 
HETATM   32  C10 UNL     1      18.600  -0.393   0.385  1.00  0.00     0.009 A 
HETATM   33  C11 UNL     1      19.893  -0.020   0.712  1.00  0.00     0.002 A 
HETATM   34  C12 UNL     1      20.535   0.965   0.008  1.00  0.00     0.017 A 
HETATM   35  C13 UNL     1      19.826   1.546  -1.025  1.00  0.00     0.032 A 
HETATM   36  C24 UNL     1      18.551   1.197  -1.369  1.00  0.00     0.026 A 
BRANCH  35  37
HETATM   37  C14 UNL     1      20.490   2.616  -1.813  1.00  0.00     0.253 C 
HETATM   38  O3  UNL     1      21.725   2.729  -1.756  1.00  0.00    -0.268 OA
HETATM   39  N8  UNL     1      19.692   3.480  -2.608  1.00  0.00    -0.337 N 
ATOM     40  H8  UNL     1      18.678   3.368  -2.640  1.00  0.00     0.164 HD
BRANCH  39  41
HETATM   41  C15 UNL     1      20.338   4.514  -3.366  1.00  0.00     0.204 C 
HETATM   42  C16 UNL     1      20.580   4.147  -4.808  1.00  0.00     0.103 C 
HETATM   43  C17 UNL     1      20.558   5.462  -5.478  1.00  0.00     0.035 C 
HETATM   44  N9  UNL     1      19.904   6.277  -4.724  1.00  0.00    -0.305 N 
HETATM   45  N10 UNL     1      19.455   5.666  -3.570  1.00  0.00    -0.115 NA
ATOM     46  H9  UNL     1      19.739   7.258  -4.952  1.00  0.00     0.182 HD
BRANCH  43  47
HETATM   47  C18 UNL     1      21.180   5.744  -6.773  1.00  0.00    -0.013 A 
HETATM   48  C19 UNL     1      20.768   6.799  -7.551  1.00  0.00     0.013 A 
HETATM   49  C20 UNL     1      21.370   7.055  -8.784  1.00  0.00     0.001 A 
HETATM   50  C21 UNL     1      22.394   6.259  -9.256  1.00  0.00     0.000 A 
HETATM   51  C22 UNL     1      22.805   5.208  -8.482  1.00  0.00     0.001 A 
HETATM   52  C23 UNL     1      22.199   4.954  -7.249  1.00  0.00     0.013 A 
ENDBRANCH  43  47
ENDBRANCH  39  41
ENDBRANCH  35  37
ENDBRANCH   5  31
ENDBRANCH   4   5
BRANCH   4  53
HETATM   53  C27 UNL     1      14.489   1.112  -1.595  1.00  0.00     0.181 C 
BRANCH  53  54
HETATM   54  O5  UNL     1      13.193   0.639  -1.355  1.00  0.00    -0.390 OA
ATOM     55  H5  UNL     1      12.848   0.187  -2.116  1.00  0.00     0.210 HD
ENDBRANCH  53  54
BRANCH  53  56
HETATM   56  C28 UNL     1      15.047   0.598  -2.883  1.00  0.00     0.173 C 
BRANCH  56  57
HETATM   57  O6  UNL     1      15.892   1.580  -3.403  1.00  0.00    -0.391 OA
ATOM     58  H6  UNL     1      16.743   1.182  -3.548  1.00  0.00     0.210 HD
ENDBRANCH  56  57
BRANCH  56  59
HETATM   59  C29 UNL     1      13.962   0.302  -3.892  1.00  0.00     0.198 C 
BRANCH  59  60
HETATM   60  O7  UNL     1      14.172   1.021  -5.050  1.00  0.00    -0.398 OA
ATOM     61  H7  UNL     1      13.878   0.527  -5.806  1.00  0.00     0.209 HD
ENDBRANCH  59  60
ENDBRANCH  56  59
ENDBRANCH  53  56
ENDBRANCH   4  53
ENDBRANCH   1   4
TORSDOF 14
ENDMDL
MODEL 5
REMARK VINA RESULT: -10.271477430      3.415      6.933
REMARK  14 active torsions:
REMARK  status: ('A' for Active; 'I' for Inactive)
REMARK    1  A    between atoms: C3_8  and  N3_9 
REMARK    2  A    between atoms: N7_21  and  C8_22 
REMARK    3  A    between atoms: C8_22  and  C9_23 
REMARK    4  A    between atoms: C8_22  and  C25_45 
REMARK    5  A    between atoms: C13_27  and  C14_28 
REMARK       I    between atoms: C14_28  and  N8_30 
REMARK    6  A    between atoms: N8_30  and  C15_32 
REMARK    7  A    between atoms: C17_34  and  C18_35 
REMARK    8  A    between atoms: C25_45  and  O4_46 
REMARK    9  A    between atoms: C25_45  and  C27_49 
REMARK   10  A    between atoms: C27_49  and  O5_50 
REMARK   11  A    between atoms: C27_49  and  C28_52 
REMARK   12  A    between atoms: C28_52  and  O6_53 
REMARK   13  A    between atoms: C28_52  and  C29_55 
REMARK   14  A    between atoms: C29_55  and  O7_56 
ROOT
HETATM    1  O4  UNL     1      16.094   2.237  -2.015  1.00  0.00    -0.273 OA
HETATM    2  C26 UNL     1      16.483   3.323  -1.322  1.00  0.00     0.229 C 
HETATM    3  N11 UNL     1      16.826   4.254  -0.747  1.00  0.00    -0.164 NA
ENDROOT
BRANCH   1   4
HETATM    4  C25 UNL     1      15.692   1.017  -1.440  1.00  0.00     0.202 C 
BRANCH   4   5
HETATM    5  C8  UNL     1      16.782  -0.025  -1.480  1.00  0.00     0.175 C 
BRANCH   5   6
HETATM    6  N7  UNL     1      16.324  -1.206  -0.787  1.00  0.00    -0.274 N 
HETATM    7  C7  UNL     1      15.868  -1.233   0.543  1.00  0.00     0.203 A 
HETATM    8  N6  UNL     1      15.473  -2.298   1.173  1.00  0.00    -0.334 N 
HETATM    9  C5  UNL     1      15.491  -3.546   0.496  1.00  0.00     0.169 A 
ATOM     10  H6  UNL     1      15.156  -2.239   2.140  1.00  0.00     0.168 HD
HETATM   11  C4  UNL     1      15.924  -3.594  -0.806  1.00  0.00     0.190 A 
HETATM   12  N4  UNL     1      15.159  -4.800   0.848  1.00  0.00    -0.172 N 
HETATM   13  N3  UNL     1      15.854  -4.879  -1.241  1.00  0.00    -0.107 N 
HETATM   14  N12 UNL     1      16.354  -2.433  -1.490  1.00  0.00    -0.278 N 
HETATM   15  C6  UNL     1      15.382  -5.613  -0.219  1.00  0.00     0.687 A 
HETATM   16  N5  UNL     1      15.189  -6.892  -0.286  1.00  0.00    -0.234 N 
ATOM     17  H52 UNL     1      15.356  -7.502  -1.085  1.00  0.00     0.174 HD
ATOM     18  H51 UNL     1      14.831  -7.449   0.490  1.00  0.00     0.174 HD
ATOM     19  H12 UNL     1      16.674  -2.479  -2.457  1.00  0.00     0.189 HD
ATOM     20  H4  UNL     1      14.801  -5.091   1.758  1.00  0.00     0.186 HD
BRANCH  13  21
HETATM   21  C3  UNL     1      16.221  -5.315  -2.542  1.00  0.00     0.205 A 
HETATM   22  N2  UNL     1      15.322  -5.780  -3.429  1.00  0.00    -0.281 N 
HETATM   23  C2  UNL     1      15.683  -6.187  -4.652  1.00  0.00     0.388 A 
ATOM     24  H2  UNL     1      14.339  -5.822  -3.162  1.00  0.00     0.173 HD
HETATM   25  O1  UNL     1      16.945  -6.127  -4.978  1.00  0.00    -0.176 OA
HETATM   26  O2  UNL     1      14.852  -6.631  -5.510  1.00  0.00    -0.236 OA
HETATM   27  N1  UNL     1      17.884  -5.691  -4.181  1.00  0.00    -0.213 N 
HETATM   28  C1  UNL     1      19.252  -5.667  -4.645  1.00  0.00     0.190 C 
HETATM   29  C30 UNL     1      17.538  -5.276  -2.943  1.00  0.00     0.312 A 
HETATM   30  O8  UNL     1      18.408  -4.854  -2.157  1.00  0.00    -0.262 OA
ENDBRANCH  13  21
ENDBRANCH   5   6
BRANCH   5  31
HETATM   31  C9  UNL     1      18.090   0.401  -1.000  1.00  0.00    -0.030 A 
HETATM   32  C10 UNL     1      18.724  -0.101   0.114  1.00  0.00     0.009 A 
HETATM   33  C11 UNL     1      19.971   0.337   0.529  1.00  0.00     0.002 A 
HETATM   34  C12 UNL     1      20.637   1.310  -0.170  1.00  0.00     0.017 A 
HETATM   35  C13 UNL     1      20.000   1.812  -1.287  1.00  0.00     0.032 A 
HETATM   36  C24 UNL     1      18.771   1.398  -1.718  1.00  0.00     0.026 A 
BRANCH  35  37
HETATM   37  C14 UNL     1      20.692   2.866  -2.071  1.00  0.00     0.253 C 
HETATM   38  O3  UNL     1      21.877   3.133  -1.810  1.00  0.00    -0.268 OA
HETATM   39  N8  UNL     1      19.979   3.540  -3.098  1.00  0.00    -0.337 N 
ATOM     40  H8  UNL     1      19.006   3.304  -3.295  1.00  0.00     0.164 HD
BRANCH  39  41
HETATM   41  C15 UNL     1      20.652   4.559  -3.851  1.00  0.00     0.204 C 
HETATM   42  C16 UNL     1      20.768   4.249  -5.321  1.00  0.00     0.103 C 
HETATM   43  C17 UNL     1      20.804   5.595  -5.928  1.00  0.00     0.035 C 
HETATM   44  N9  UNL     1      20.268   6.417  -5.094  1.00  0.00    -0.305 N 
HETATM   45  N10 UNL     1      19.850   5.783  -3.940  1.00  0.00    -0.115 NA
ATOM     46  H9  UNL     1      20.164   7.418  -5.265  1.00  0.00     0.182 HD
BRANCH  43  47
HETATM   47  C18 UNL     1      21.359   5.895  -7.249  1.00  0.00    -0.013 A 
HETATM   48  C19 UNL     1      20.724   6.750  -8.116  1.00  0.00     0.013 A 
HETATM   49  C20 UNL     1      21.264   7.026  -9.372  1.00  0.00     0.001 A 
HETATM   50  C21 UNL     1      22.449   6.450  -9.781  1.00  0.00     0.000 A 
HETATM   51  C22 UNL     1      23.084   5.597  -8.918  1.00  0.00     0.001 A 
HETATM   52  C23 UNL     1      22.539   5.323  -7.661  1.00  0.00     0.013 A 
ENDBRANCH  43  47
ENDBRANCH  39  41
ENDBRANCH  35  37
ENDBRANCH   5  31
ENDBRANCH   4   5
BRANCH   4  53
HETATM   53  C27 UNL     1      14.478   0.516  -2.220  1.00  0.00     0.181 C 
BRANCH  53  54
HETATM   54  O5  UNL     1      14.542   0.915  -3.560  1.00  0.00    -0.390 OA
ATOM     55  H5  UNL     1      13.672   0.991  -3.936  1.00  0.00     0.210 HD
ENDBRANCH  53  54
BRANCH  53  56
HETATM   56  C28 UNL     1      13.249   1.024  -1.538  1.00  0.00     0.173 C 
BRANCH  56  57
HETATM   57  O6  UNL     1      13.220   0.482  -0.252  1.00  0.00    -0.391 OA
ATOM     58  H6  UNL     1      12.461  -0.086  -0.194  1.00  0.00     0.210 HD
ENDBRANCH  56  57
BRANCH  56  59
HETATM   59  C29 UNL     1      11.989   0.619  -2.267  1.00  0.00     0.198 C 
BRANCH  59  60
HETATM   60  O7  UNL     1      10.897   0.712  -1.431  1.00  0.00    -0.398 OA
ATOM     61  H7  UNL     1      11.020   0.167  -0.662  1.00  0.00     0.209 HD
ENDBRANCH  59  60
ENDBRANCH  56  59
ENDBRANCH  53  56
ENDBRANCH   4  53
ENDBRANCH   1   4
TORSDOF 14
ENDMDL
