MODEL 1
REMARK VINA RESULT: -11.143533697      0.000      0.000
REMARK  12 active torsions:
REMARK  status: ('A' for Active; 'I' for Inactive)
REMARK    1  A    between atoms: C2_2  and  N1_3 
REMARK    2  A    between atoms: C2_2  and  C14_29 
REMARK    3  A    between atoms: N1_3  and  N2_4 
REMARK       I    between atoms: N2_4  and  C3_6 
REMARK    4  A    between atoms: C3_6  and  C4_8 
REMARK    5  A    between atoms: C6_11  and  C7_12 
REMARK    6  A    between atoms: C7_12  and  C8_14 
REMARK    7  A    between atoms: C10_18  and  O3_19 
REMARK    8  A    between atoms: O3_19  and  C11_20 
REMARK    9  A    between atoms: C14_29  and  C16_31 
REMARK       I    between atoms: C16_31  and  N8_33 
REMARK       I    between atoms: N8_33  and  C17_35 
REMARK   10  A    between atoms: C17_35  and  C18_37 
REMARK   11  A    between atoms: C18_37  and  N9_38 
REMARK   12  A    between atoms: C19_39  and  O7_40 
ROOT
HETATM    1  C1  UNL     1      17.948  -4.666  -5.071  1.00  0.00     0.083 C 
HETATM    2  C2  UNL     1      17.253  -5.910  -4.531  1.00  0.00     0.095 C 
ENDROOT
BRANCH   2   3
HETATM    3  N1  UNL     1      16.152  -6.239  -4.795  1.00  0.00    -0.331 NA
BRANCH   3   4
HETATM    4  N2  UNL     1      14.982  -6.611  -5.084  1.00  0.00    -0.198 N 
HETATM    5  C3  UNL     1      13.868  -6.535  -4.161  1.00  0.00     0.297 C 
HETATM    6  O1  UNL     1      14.099  -6.075  -3.030  1.00  0.00    -0.263 OA
ATOM      7  H2  UNL     1      14.810  -6.986  -6.017  1.00  0.00     0.205 HD
BRANCH   5   8
HETATM    8  C4  UNL     1      12.513  -6.996  -4.572  1.00  0.00     0.110 A 
HETATM    9  C5  UNL     1      11.657  -7.519  -3.633  1.00  0.00     0.087 A 
HETATM   10  S1  UNL     1      10.288  -7.888  -4.587  1.00  0.00    -0.078 SA
HETATM   11  C6  UNL     1      10.876  -7.365  -6.098  1.00  0.00     0.128 A 
HETATM   12  N7  UNL     1      12.097  -6.931  -5.792  1.00  0.00    -0.342 N 
ATOM     13  H7  UNL     1      12.701  -6.549  -6.519  1.00  0.00     0.167 HD
BRANCH  11  14
HETATM   14  C7  UNL     1      10.253  -7.368  -7.442  1.00  0.00     0.240 C 
HETATM   15  O2  UNL     1       9.038  -7.180  -7.598  1.00  0.00    -0.282 OA
BRANCH  14  16
HETATM   16  C8  UNL     1      11.131  -7.604  -8.588  1.00  0.00     0.148 A 
HETATM   17  C9  UNL     1      10.865  -8.124  -9.830  1.00  0.00     0.133 A 
HETATM   18  N3  UNL     1      12.029  -8.125 -10.507  1.00  0.00    -0.323 N 
HETATM   19  C10 UNL     1      12.976  -7.629  -9.719  1.00  0.00     0.271 A 
ATOM     20  H3  UNL     1      12.161  -8.453 -11.463  1.00  0.00     0.169 HD
HETATM   21  O4  UNL     1      12.438  -7.326  -8.596  1.00  0.00    -0.268 OA
BRANCH  19  22
HETATM   22  O3  UNL     1      14.330  -7.436  -9.989  1.00  0.00    -0.291 OA
BRANCH  22  23
HETATM   23  C11 UNL     1      14.994  -8.091 -11.050  1.00  0.00     0.262 C 
HETATM   24  N4  UNL     1      15.139  -9.470 -10.726  1.00  0.00    -0.095 NA
HETATM   25  N5  UNL     1      16.477  -9.755 -10.551  1.00  0.00    -0.037 NA
HETATM   26  N6  UNL     1      17.214  -8.713 -11.088  1.00  0.00    -0.121 NA
HETATM   27  C12 UNL     1      16.398  -7.541 -11.140  1.00  0.00     0.139 C 
HETATM   28  C13 UNL     1      16.708  -6.527 -10.086  1.00  0.00     0.033 C 
ENDBRANCH  22  23
ENDBRANCH  19  22
ENDBRANCH  14  16
ENDBRANCH  11  14
ENDBRANCH   5   8
ENDBRANCH   3   4
ENDBRANCH   2   3
BRANCH   2  29
HETATM   29  C14 UNL     1      18.082  -6.750  -3.563  1.00  0.00     0.136 C 
HETATM   30  C15 UNL     1      17.127  -7.899  -3.201  1.00  0.00     0.027 C 
BRANCH  29  31
HETATM   31  C16 UNL     1      18.342  -5.946  -2.366  1.00  0.00     0.234 C 
HETATM   32  O5  UNL     1      19.534  -5.918  -1.905  1.00  0.00    -0.272 OA
HETATM   33  N8  UNL     1      17.313  -5.207  -1.715  1.00  0.00    -0.296 N 
HETATM   34  C17 UNL     1      17.620  -4.466  -0.556  1.00  0.00     0.242 C 
ATOM     35  H8  UNL     1      16.362  -5.214  -2.084  1.00  0.00     0.171 HD
HETATM   36  O6  UNL     1      18.793  -4.456  -0.124  1.00  0.00    -0.271 OA
BRANCH  34  37
HETATM   37  C18 UNL     1      16.557  -3.708   0.145  1.00  0.00     0.237 C 
BRANCH  37  38
HETATM   38  N9  UNL     1      16.359  -2.405  -0.485  1.00  0.00    -0.284 N 
HETATM   39  C19 UNL     1      15.407  -2.305  -1.420  1.00  0.00     0.146 A 
HETATM   40  C20 UNL     1      15.225  -1.068  -2.012  1.00  0.00     0.075 A 
HETATM   41  C21 UNL     1      16.012   0.005  -1.629  1.00  0.00     0.069 A 
HETATM   42  C22 UNL     1      15.849   1.247  -2.202  1.00  0.00     0.262 A 
HETATM   43  C24 UNL     1      16.985  -0.130  -0.660  1.00  0.00     0.121 A 
HETATM   44  O8  UNL     1      14.961   1.396  -3.094  1.00  0.00    -0.267 OA
HETATM   45  N10 UNL     1      16.629   2.295  -1.813  1.00  0.00    -0.275 N 
HETATM   46  C23 UNL     1      17.568   2.140  -0.871  1.00  0.00     0.327 A 
ATOM     47  H10 UNL     1      16.497   3.209  -2.247  1.00  0.00     0.173 HD
HETATM   48  O9  UNL     1      18.264   3.135  -0.546  1.00  0.00    -0.247 OA
HETATM   49  N11 UNL     1      17.737   0.924  -0.299  1.00  0.00    -0.303 N 
ATOM     50  H11 UNL     1      18.450   0.805   0.420  1.00  0.00     0.171 HD
HETATM   51  C25 UNL     1      17.139  -1.393  -0.086  1.00  0.00     0.278 A 
HETATM   52  O10 UNL     1      18.027  -1.512   0.796  1.00  0.00    -0.265 OA
BRANCH  39  53
HETATM   53  O7  UNL     1      14.611  -3.367  -1.817  1.00  0.00    -0.346 OA
ATOM     54  H7  UNL     1      14.837  -3.955  -2.528  1.00  0.00     0.219 HD
ENDBRANCH  39  53
ENDBRANCH  37  38
ENDBRANCH  34  37
ENDBRANCH  29  31
ENDBRANCH   2  29
TORSDOF 12
ENDMDL
MODEL 2
REMARK VINA RESULT: -11.004772392      4.055     10.733
REMARK  12 active torsions:
REMARK  status: ('A' for Active; 'I' for Inactive)
REMARK    1  A    between atoms: C2_2  and  N1_3 
REMARK    2  A    between atoms: C2_2  and  C14_29 
REMARK    3  A    between atoms: N1_3  and  N2_4 
REMARK       I    between atoms: N2_4  and  C3_6 
REMARK    4  A    between atoms: C3_6  and  C4_8 
REMARK    5  A    between atoms: C6_11  and  C7_12 
REMARK    6  A    between atoms: C7_12  and  C8_14 
REMARK    7  A    between atoms: C10_18  and  O3_19 
REMARK    8  A    between atoms: O3_19  and  C11_20 
REMARK    9  A    between atoms: C14_29  and  C16_31 
REMARK       I    between atoms: C16_31  and  N8_33 
REMARK       I    between atoms: N8_33  and  C17_35 
REMARK   10  A    between atoms: C17_35  and  C18_37 
REMARK   11  A    between atoms: C18_37  and  N9_38 
REMARK   12  A    between atoms: C19_39  and  O7_40 
ROOT
HETATM    1  C1  UNL     1      12.899  -6.474  -3.407  1.00  0.00     0.083 C 
HETATM    2  C2  UNL     1      13.878  -6.070  -2.312  1.00  0.00     0.095 C 
ENDROOT
BRANCH   2   3
HETATM    3  N1  UNL     1      14.155  -4.961  -2.026  1.00  0.00    -0.331 NA
BRANCH   3   4
HETATM    4  N2  UNL     1      14.433  -3.767  -1.724  1.00  0.00    -0.198 N 
HETATM    5  C3  UNL     1      15.786  -3.272  -1.585  1.00  0.00     0.297 C 
HETATM    6  O1  UNL     1      16.709  -4.081  -1.776  1.00  0.00    -0.263 OA
ATOM      7  H2  UNL     1      13.662  -3.117  -1.572  1.00  0.00     0.205 HD
BRANCH   5   8
HETATM    8  C4  UNL     1      16.036  -1.849  -1.224  1.00  0.00     0.110 A 
HETATM    9  C5  UNL     1      14.999  -0.948  -1.236  1.00  0.00     0.087 A 
HETATM   10  S1  UNL     1      15.790   0.492  -0.769  1.00  0.00    -0.078 SA
HETATM   11  C6  UNL     1      17.368  -0.125  -0.589  1.00  0.00     0.128 A 
HETATM   12  N7  UNL     1      17.205  -1.411  -0.897  1.00  0.00    -0.342 N 
ATOM     13  H7  UNL     1      18.003  -2.047  -0.874  1.00  0.00     0.167 HD
BRANCH  11  14
HETATM   14  C7  UNL     1      18.636   0.535  -0.203  1.00  0.00     0.240 C 
HETATM   15  O2  UNL     1      19.518  -0.065   0.430  1.00  0.00    -0.282 OA
BRANCH  14  16
HETATM   16  C8  UNL     1      18.813   1.932  -0.598  1.00  0.00     0.148 A 
HETATM   17  C9  UNL     1      18.636   3.095   0.111  1.00  0.00     0.133 A 
HETATM   18  N3  UNL     1      18.934   4.107  -0.725  1.00  0.00    -0.323 N 
HETATM   19  C10 UNL     1      19.280   3.596  -1.902  1.00  0.00     0.271 A 
ATOM     20  H3  UNL     1      18.899   5.099  -0.494  1.00  0.00     0.169 HD
HETATM   21  O4  UNL     1      19.205   2.319  -1.815  1.00  0.00    -0.268 OA
BRANCH  19  22
HETATM   22  O3  UNL     1      19.668   4.257  -3.065  1.00  0.00    -0.291 OA
BRANCH  22  23
HETATM   23  C11 UNL     1      20.419   5.453  -3.045  1.00  0.00     0.262 C 
HETATM   24  N4  UNL     1      19.534   6.556  -2.888  1.00  0.00    -0.095 NA
HETATM   25  N5  UNL     1      19.545   7.313  -4.041  1.00  0.00    -0.037 NA
HETATM   26  N6  UNL     1      20.651   6.945  -4.788  1.00  0.00    -0.121 NA
HETATM   27  C12 UNL     1      21.060   5.632  -4.401  1.00  0.00     0.139 C 
HETATM   28  C13 UNL     1      20.695   4.560  -5.377  1.00  0.00     0.033 C 
ENDBRANCH  22  23
ENDBRANCH  19  22
ENDBRANCH  14  16
ENDBRANCH  11  14
ENDBRANCH   5   8
ENDBRANCH   3   4
ENDBRANCH   2   3
BRANCH   2  29
HETATM   29  C14 UNL     1      14.536  -7.230  -1.568  1.00  0.00     0.136 C 
HETATM   30  C15 UNL     1      15.057  -6.563  -0.284  1.00  0.00     0.027 C 
BRANCH  29  31
HETATM   31  C16 UNL     1      15.675  -7.697  -2.364  1.00  0.00     0.234 C 
HETATM   32  O5  UNL     1      15.664  -8.905  -2.782  1.00  0.00    -0.272 OA
HETATM   33  N8  UNL     1      16.775  -6.847  -2.676  1.00  0.00    -0.296 N 
HETATM   34  C17 UNL     1      17.851  -7.359  -3.430  1.00  0.00     0.242 C 
ATOM     35  H8  UNL     1      16.785  -5.879  -2.357  1.00  0.00     0.171 HD
HETATM   36  O6  UNL     1      17.817  -8.544  -3.826  1.00  0.00    -0.271 OA
BRANCH  34  37
HETATM   37  C18 UNL     1      19.013  -6.496  -3.747  1.00  0.00     0.237 C 
BRANCH  37  38
HETATM   38  N9  UNL     1      18.933  -6.018  -5.126  1.00  0.00    -0.284 N 
HETATM   39  C19 UNL     1      18.137  -4.972  -5.376  1.00  0.00     0.146 A 
HETATM   40  C20 UNL     1      18.068  -4.525  -6.684  1.00  0.00     0.075 A 
HETATM   41  C21 UNL     1      18.806  -5.156  -7.671  1.00  0.00     0.069 A 
HETATM   42  C22 UNL     1      18.755  -4.729  -8.980  1.00  0.00     0.262 A 
HETATM   43  C24 UNL     1      19.619  -6.233  -7.380  1.00  0.00     0.121 A 
HETATM   44  O8  UNL     1      18.016  -3.743  -9.271  1.00  0.00    -0.267 OA
HETATM   45  N10 UNL     1      19.488  -5.359  -9.941  1.00  0.00    -0.275 N 
HETATM   46  C23 UNL     1      20.270  -6.403  -9.635  1.00  0.00     0.327 A 
ATOM     47  H10 UNL     1      19.440  -5.032 -10.906  1.00  0.00     0.173 HD
HETATM   48  O9  UNL     1      20.926  -6.953 -10.555  1.00  0.00    -0.247 OA
HETATM   49  N11 UNL     1      20.329  -6.831  -8.351  1.00  0.00    -0.303 N 
ATOM     50  H11 UNL     1      20.926  -7.624  -8.116  1.00  0.00     0.171 HD
HETATM   51  C25 UNL     1      19.662  -6.655  -6.050  1.00  0.00     0.278 A 
HETATM   52  O10 UNL     1      20.404  -7.636  -5.789  1.00  0.00    -0.265 OA
BRANCH  39  53
HETATM   53  O7  UNL     1      17.392  -4.328  -4.403  1.00  0.00    -0.346 OA
ATOM     54  H7  UNL     1      16.456  -4.181  -4.471  1.00  0.00     0.219 HD
ENDBRANCH  39  53
ENDBRANCH  37  38
ENDBRANCH  34  37
ENDBRANCH  29  31
ENDBRANCH   2  29
TORSDOF 12
ENDMDL
MODEL 3
REMARK VINA RESULT: -10.979800282      5.027      8.911
REMARK  12 active torsions:
REMARK  status: ('A' for Active; 'I' for Inactive)
REMARK    1  A    between atoms: C2_2  and  N1_3 
REMARK    2  A    between atoms: C2_2  and  C14_29 
REMARK    3  A    between atoms: N1_3  and  N2_4 
REMARK       I    between atoms: N2_4  and  C3_6 
REMARK    4  A    between atoms: C3_6  and  C4_8 
REMARK    5  A    between atoms: C6_11  and  C7_12 
REMARK    6  A    between atoms: C7_12  and  C8_14 
REMARK    7  A    between atoms: C10_18  and  O3_19 
REMARK    8  A    between atoms: O3_19  and  C11_20 
REMARK    9  A    between atoms: C14_29  and  C16_31 
REMARK       I    between atoms: C16_31  and  N8_33 
REMARK       I    between atoms: N8_33  and  C17_35 
REMARK   10  A    between atoms: C17_35  and  C18_37 
REMARK   11  A    between atoms: C18_37  and  N9_38 
REMARK   12  A    between atoms: C19_39  and  O7_40 
ROOT
HETATM    1  C1  UNL     1      20.542   1.351  -0.582  1.00  0.00     0.083 C 
HETATM    2  C2  UNL     1      19.022   1.354  -0.479  1.00  0.00     0.095 C 
ENDROOT
BRANCH   2   3
HETATM    3  N1  UNL     1      18.323   0.445  -0.754  1.00  0.00    -0.331 NA
BRANCH   3   4
HETATM    4  N2  UNL     1      17.581  -0.526  -1.068  1.00  0.00    -0.198 N 
HETATM    5  C3  UNL     1      17.535  -1.769  -0.327  1.00  0.00     0.297 C 
HETATM    6  O1  UNL     1      18.274  -1.865   0.668  1.00  0.00    -0.263 OA
ATOM      7  H2  UNL     1      16.981  -0.430  -1.887  1.00  0.00     0.205 HD
BRANCH   5   8
HETATM    8  C4  UNL     1      16.636  -2.874  -0.760  1.00  0.00     0.110 A 
HETATM    9  C5  UNL     1      15.420  -3.046  -0.144  1.00  0.00     0.087 A 
HETATM   10  S1  UNL     1      14.804  -4.405  -0.976  1.00  0.00    -0.078 SA
HETATM   11  C6  UNL     1      16.107  -4.671  -2.040  1.00  0.00     0.128 A 
HETATM   12  N7  UNL     1      16.952  -3.699  -1.701  1.00  0.00    -0.342 N 
ATOM     13  H7  UNL     1      17.845  -3.606  -2.185  1.00  0.00     0.167 HD
BRANCH  11  14
HETATM   14  C7  UNL     1      16.319  -5.698  -3.086  1.00  0.00     0.240 C 
HETATM   15  O2  UNL     1      17.361  -5.740  -3.757  1.00  0.00    -0.282 OA
BRANCH  14  16
HETATM   16  C8  UNL     1      15.246  -6.669  -3.301  1.00  0.00     0.148 A 
HETATM   17  C9  UNL     1      14.999  -7.880  -2.704  1.00  0.00     0.133 A 
HETATM   18  N3  UNL     1      13.881  -8.370  -3.272  1.00  0.00    -0.323 N 
HETATM   19  C10 UNL     1      13.452  -7.502  -4.181  1.00  0.00     0.271 A 
ATOM     20  H3  UNL     1      13.437  -9.259  -3.042  1.00  0.00     0.169 HD
HETATM   21  O4  UNL     1      14.261  -6.507  -4.190  1.00  0.00    -0.268 OA
BRANCH  19  22
HETATM   22  O3  UNL     1      12.337  -7.581  -5.013  1.00  0.00    -0.291 OA
BRANCH  22  23
HETATM   23  C11 UNL     1      11.031  -7.289  -4.562  1.00  0.00     0.262 C 
HETATM   24  N4  UNL     1      10.536  -8.400  -3.822  1.00  0.00    -0.095 NA
HETATM   25  N5  UNL     1       9.489  -8.973  -4.513  1.00  0.00    -0.037 NA
HETATM   26  N6  UNL     1       9.067  -8.076  -5.479  1.00  0.00    -0.121 NA
HETATM   27  C12 UNL     1      10.131  -7.167  -5.768  1.00  0.00     0.139 C 
HETATM   28  C13 UNL     1      10.832  -7.431  -7.062  1.00  0.00     0.033 C 
ENDBRANCH  22  23
ENDBRANCH  19  22
ENDBRANCH  14  16
ENDBRANCH  11  14
ENDBRANCH   5   8
ENDBRANCH   3   4
ENDBRANCH   2   3
BRANCH   2  29
HETATM   29  C14 UNL     1      18.405   2.664   0.006  1.00  0.00     0.136 C 
HETATM   30  C15 UNL     1      16.911   2.317   0.123  1.00  0.00     0.027 C 
BRANCH  29  31
HETATM   31  C16 UNL     1      18.584   3.670  -1.044  1.00  0.00     0.234 C 
HETATM   32  O5  UNL     1      17.581   3.956  -1.783  1.00  0.00    -0.272 OA
HETATM   33  N8  UNL     1      19.831   4.326  -1.255  1.00  0.00    -0.296 N 
HETATM   34  C17 UNL     1      19.946   5.273  -2.293  1.00  0.00     0.242 C 
ATOM     35  H8  UNL     1      20.632   4.112  -0.661  1.00  0.00     0.171 HD
HETATM   36  O6  UNL     1      18.951   5.534  -3.003  1.00  0.00    -0.271 OA
BRANCH  34  37
HETATM   37  C18 UNL     1      21.241   5.950  -2.540  1.00  0.00     0.237 C 
BRANCH  37  38
HETATM   38  N9  UNL     1      21.676   5.735  -3.919  1.00  0.00    -0.284 N 
HETATM   39  C19 UNL     1      22.153   4.527  -4.239  1.00  0.00     0.146 A 
HETATM   40  C20 UNL     1      22.562   4.331  -5.547  1.00  0.00     0.075 A 
HETATM   41  C21 UNL     1      22.466   5.364  -6.463  1.00  0.00     0.069 A 
HETATM   42  C22 UNL     1      22.864   5.194  -7.771  1.00  0.00     0.262 A 
HETATM   43  C24 UNL     1      21.967   6.599  -6.102  1.00  0.00     0.121 A 
HETATM   44  O8  UNL     1      23.325   4.069  -8.127  1.00  0.00    -0.267 OA
HETATM   45  N10 UNL     1      22.762   6.219  -8.664  1.00  0.00    -0.275 N 
HETATM   46  C23 UNL     1      22.275   7.409  -8.290  1.00  0.00     0.327 A 
ATOM     47  H10 UNL     1      23.061   6.078  -9.629  1.00  0.00     0.173 HD
HETATM   48  O9  UNL     1      22.201   8.325  -9.148  1.00  0.00    -0.247 OA
HETATM   49  N11 UNL     1      21.878   7.588  -7.007  1.00  0.00    -0.303 N 
ATOM     50  H11 UNL     1      21.505   8.494  -6.722  1.00  0.00     0.171 HD
HETATM   51  C25 UNL     1      21.565   6.759  -4.775  1.00  0.00     0.278 A 
HETATM   52  O10 UNL     1      21.111   7.885  -4.449  1.00  0.00    -0.265 OA
BRANCH  39  53
HETATM   53  O7  UNL     1      22.258   3.482  -3.336  1.00  0.00    -0.346 OA
ATOM     54  H7  UNL     1      23.035   3.313  -2.816  1.00  0.00     0.219 HD
ENDBRANCH  39  53
ENDBRANCH  37  38
ENDBRANCH  34  37
ENDBRANCH  29  31
ENDBRANCH   2  29
TORSDOF 12
ENDMDL
MODEL 4
REMARK VINA RESULT: -10.966633541      1.507      2.073
REMARK  12 active torsions:
REMARK  status: ('A' for Active; 'I' for Inactive)
REMARK    1  A    between atoms: C2_2  and  N1_3 
REMARK    2  A    between atoms: C2_2  and  C14_29 
REMARK    3  A    between atoms: N1_3  and  N2_4 
REMARK       I    between atoms: N2_4  and  C3_6 
REMARK    4  A    between atoms: C3_6  and  C4_8 
REMARK    5  A    between atoms: C6_11  and  C7_12 
REMARK    6  A    between atoms: C7_12  and  C8_14 
REMARK    7  A    between atoms: C10_18  and  O3_19 
REMARK    8  A    between atoms: O3_19  and  C11_20 
REMARK    9  A    between atoms: C14_29  and  C16_31 
REMARK       I    between atoms: C16_31  and  N8_33 
REMARK       I    between atoms: N8_33  and  C17_35 
REMARK   10  A    between atoms: C17_35  and  C18_37 
REMARK   11  A    between atoms: C18_37  and  N9_38 
REMARK   12  A    between atoms: C19_39  and  O7_40 
ROOT
HETATM    1  C1  UNL     1      18.762  -6.346  -7.754  1.00  0.00     0.083 C 
HETATM    2  C2  UNL     1      18.111  -5.744  -6.515  1.00  0.00     0.095 C 
ENDROOT
BRANCH   2   3
HETATM    3  N1  UNL     1      16.987  -5.900  -6.196  1.00  0.00    -0.331 NA
BRANCH   3   4
HETATM    4  N2  UNL     1      15.785  -6.051  -5.842  1.00  0.00    -0.198 N 
HETATM    5  C3  UNL     1      15.373  -6.931  -4.768  1.00  0.00     0.297 C 
HETATM    6  O1  UNL     1      16.265  -7.562  -4.177  1.00  0.00    -0.263 OA
ATOM      7  H2  UNL     1      15.066  -5.525  -6.338  1.00  0.00     0.205 HD
BRANCH   5   8
HETATM    8  C4  UNL     1      13.934  -7.060  -4.408  1.00  0.00     0.110 A 
HETATM    9  C5  UNL     1      13.575  -7.283  -3.100  1.00  0.00     0.087 A 
HETATM   10  S1  UNL     1      11.873  -7.357  -3.220  1.00  0.00    -0.078 SA
HETATM   11  C6  UNL     1      11.720  -7.105  -4.898  1.00  0.00     0.128 A 
HETATM   12  N7  UNL     1      12.988  -6.975  -5.281  1.00  0.00    -0.342 N 
ATOM     13  H7  UNL     1      13.211  -6.809  -6.263  1.00  0.00     0.167 HD
BRANCH  11  14
HETATM   14  C7  UNL     1      10.524  -7.042  -5.770  1.00  0.00     0.240 C 
HETATM   15  O2  UNL     1       9.406  -6.742  -5.325  1.00  0.00    -0.282 OA
BRANCH  14  16
HETATM   16  C8  UNL     1      10.711  -7.348  -7.188  1.00  0.00     0.148 A 
HETATM   17  C9  UNL     1       9.824  -7.802  -8.133  1.00  0.00     0.133 A 
HETATM   18  N3  UNL     1      10.512  -7.921  -9.284  1.00  0.00    -0.323 N 
HETATM   19  C10 UNL     1      11.771  -7.558  -9.064  1.00  0.00     0.271 A 
ATOM     20  H3  UNL     1      10.131  -8.237 -10.175  1.00  0.00     0.169 HD
HETATM   21  O4  UNL     1      11.876  -7.224  -7.831  1.00  0.00    -0.268 OA
BRANCH  19  22
HETATM   22  O3  UNL     1      12.841  -7.517  -9.956  1.00  0.00    -0.291 OA
BRANCH  22  23
HETATM   23  C11 UNL     1      13.019  -8.480 -10.974  1.00  0.00     0.262 C 
HETATM   24  N4  UNL     1      12.531  -9.737 -10.515  1.00  0.00    -0.095 NA
HETATM   25  N5  UNL     1      13.591 -10.610 -10.377  1.00  0.00    -0.037 NA
HETATM   26  N6  UNL     1      14.675 -10.082 -11.057  1.00  0.00    -0.121 NA
HETATM   27  C12 UNL     1      14.501  -8.670 -11.191  1.00  0.00     0.139 C 
HETATM   28  C13 UNL     1      15.346  -7.855 -10.265  1.00  0.00     0.033 C 
ENDBRANCH  22  23
ENDBRANCH  19  22
ENDBRANCH  14  16
ENDBRANCH  11  14
ENDBRANCH   5   8
ENDBRANCH   3   4
ENDBRANCH   2   3
BRANCH   2  29
HETATM   29  C14 UNL     1      19.024  -4.865  -5.663  1.00  0.00     0.136 C 
HETATM   30  C15 UNL     1      20.415  -5.136  -6.258  1.00  0.00     0.027 C 
BRANCH  29  31
HETATM   31  C16 UNL     1      18.985  -5.363  -4.286  1.00  0.00     0.234 C 
HETATM   32  O5  UNL     1      19.899  -6.174  -3.911  1.00  0.00    -0.272 OA
HETATM   33  N8  UNL     1      17.967  -4.969  -3.370  1.00  0.00    -0.296 N 
HETATM   34  C17 UNL     1      17.971  -5.497  -2.063  1.00  0.00     0.242 C 
ATOM     35  H8  UNL     1      17.241  -4.313  -3.658  1.00  0.00     0.171 HD
HETATM   36  O6  UNL     1      18.876  -6.290  -1.721  1.00  0.00    -0.271 OA
BRANCH  34  37
HETATM   37  C18 UNL     1      16.908  -5.115  -1.103  1.00  0.00     0.237 C 
BRANCH  37  38
HETATM   38  N9  UNL     1      16.717  -3.666  -1.104  1.00  0.00    -0.284 N 
HETATM   39  C19 UNL     1      15.560  -3.193  -1.581  1.00  0.00     0.146 A 
HETATM   40  C20 UNL     1      15.386  -1.819  -1.577  1.00  0.00     0.075 A 
HETATM   41  C21 UNL     1      16.388  -0.996  -1.093  1.00  0.00     0.069 A 
HETATM   42  C22 UNL     1      16.238   0.373  -1.077  1.00  0.00     0.262 A 
HETATM   43  C24 UNL     1      17.570  -1.516  -0.607  1.00  0.00     0.121 A 
HETATM   44  O8  UNL     1      15.161   0.874  -1.518  1.00  0.00    -0.267 OA
HETATM   45  N10 UNL     1      17.232   1.172  -0.595  1.00  0.00    -0.275 N 
HETATM   46  C23 UNL     1      18.372   0.644  -0.129  1.00  0.00     0.327 A 
ATOM     47  H10 UNL     1      17.107   2.184  -0.590  1.00  0.00     0.173 HD
HETATM   48  O9  UNL     1      19.261   1.420   0.304  1.00  0.00    -0.247 OA
HETATM   49  N11 UNL     1      18.530  -0.701  -0.138  1.00  0.00    -0.303 N 
ATOM     50  H11 UNL     1      19.397  -1.104   0.219  1.00  0.00     0.171 HD
HETATM   51  C25 UNL     1      17.709  -2.905  -0.626  1.00  0.00     0.278 A 
HETATM   52  O10 UNL     1      18.788  -3.375  -0.183  1.00  0.00    -0.265 OA
BRANCH  39  53
HETATM   53  O7  UNL     1      14.546  -3.999  -2.070  1.00  0.00    -0.346 OA
ATOM     54  H7  UNL     1      14.387  -4.138  -2.996  1.00  0.00     0.219 HD
ENDBRANCH  39  53
ENDBRANCH  37  38
ENDBRANCH  34  37
ENDBRANCH  29  31
ENDBRANCH   2  29
TORSDOF 12
ENDMDL
MODEL 5
REMARK VINA RESULT: -10.942278705      1.121      1.980
REMARK  12 active torsions:
REMARK  status: ('A' for Active; 'I' for Inactive)
REMARK    1  A    between atoms: C2_2  and  N1_3 
REMARK    2  A    between atoms: C2_2  and  C14_29 
REMARK    3  A    between atoms: N1_3  and  N2_4 
REMARK       I    between atoms: N2_4  and  C3_6 
REMARK    4  A    between atoms: C3_6  and  C4_8 
REMARK    5  A    between atoms: C6_11  and  C7_12 
REMARK    6  A    between atoms: C7_12  and  C8_14 
REMARK    7  A    between atoms: C10_18  and  O3_19 
REMARK    8  A    between atoms: O3_19  and  C11_20 
REMARK    9  A    between atoms: C14_29  and  C16_31 
REMARK       I    between atoms: C16_31  and  N8_33 
REMARK       I    between atoms: N8_33  and  C17_35 
REMARK   10  A    between atoms: C17_35  and  C18_37 
REMARK   11  A    between atoms: C18_37  and  N9_38 
REMARK   12  A    between atoms: C19_39  and  O7_40 
ROOT
HETATM    1  C1  UNL     1      17.985  -4.605  -5.127  1.00  0.00     0.083 C 
HETATM    2  C2  UNL     1      17.329  -5.897  -4.656  1.00  0.00     0.095 C 
ENDROOT
BRANCH   2   3
HETATM    3  N1  UNL     1      16.217  -6.216  -4.886  1.00  0.00    -0.331 NA
BRANCH   3   4
HETATM    4  N2  UNL     1      15.028  -6.546  -5.150  1.00  0.00    -0.198 N 
HETATM    5  C3  UNL     1      13.988  -6.655  -4.150  1.00  0.00     0.297 C 
HETATM    6  O1  UNL     1      14.302  -6.404  -2.974  1.00  0.00    -0.263 OA
ATOM      7  H2  UNL     1      14.788  -6.747  -6.121  1.00  0.00     0.205 HD
BRANCH   5   8
HETATM    8  C4  UNL     1      12.606  -7.053  -4.537  1.00  0.00     0.110 A 
HETATM    9  C5  UNL     1      11.739  -7.526  -3.581  1.00  0.00     0.087 A 
HETATM   10  S1  UNL     1      10.340  -7.837  -4.512  1.00  0.00    -0.078 SA
HETATM   11  C6  UNL     1      10.930  -7.356  -6.035  1.00  0.00     0.128 A 
HETATM   12  N7  UNL     1      12.175  -6.979  -5.751  1.00  0.00    -0.342 N 
ATOM     13  H7  UNL     1      12.786  -6.632  -6.490  1.00  0.00     0.167 HD
BRANCH  11  14
HETATM   14  C7  UNL     1      10.288  -7.341  -7.370  1.00  0.00     0.240 C 
HETATM   15  O2  UNL     1       9.070  -7.153  -7.506  1.00  0.00    -0.282 OA
BRANCH  14  16
HETATM   16  C8  UNL     1      11.150  -7.557  -8.532  1.00  0.00     0.148 A 
HETATM   17  C9  UNL     1      10.888  -8.138  -9.748  1.00  0.00     0.133 A 
HETATM   18  N3  UNL     1      12.031  -8.084 -10.457  1.00  0.00    -0.323 N 
HETATM   19  C10 UNL     1      12.962  -7.497  -9.714  1.00  0.00     0.271 A 
ATOM     20  H3  UNL     1      12.160  -8.436 -11.406  1.00  0.00     0.169 HD
HETATM   21  O4  UNL     1      12.434  -7.192  -8.587  1.00  0.00    -0.268 OA
BRANCH  19  22
HETATM   22  O3  UNL     1      14.292  -7.223 -10.029  1.00  0.00    -0.291 OA
BRANCH  22  23
HETATM   23  C11 UNL     1      15.367  -7.970  -9.501  1.00  0.00     0.262 C 
HETATM   24  N4  UNL     1      15.611  -7.552  -8.162  1.00  0.00    -0.095 NA
HETATM   25  N5  UNL     1      16.840  -6.928  -8.100  1.00  0.00    -0.037 NA
HETATM   26  N6  UNL     1      17.540  -7.240  -9.253  1.00  0.00    -0.121 NA
HETATM   27  C12 UNL     1      16.615  -7.616 -10.275  1.00  0.00     0.139 C 
HETATM   28  C13 UNL     1      16.390  -6.568 -11.317  1.00  0.00     0.033 C 
ENDBRANCH  22  23
ENDBRANCH  19  22
ENDBRANCH  14  16
ENDBRANCH  11  14
ENDBRANCH   5   8
ENDBRANCH   3   4
ENDBRANCH   2   3
BRANCH   2  29
HETATM   29  C14 UNL     1      18.216  -6.806  -3.809  1.00  0.00     0.136 C 
HETATM   30  C15 UNL     1      17.407  -8.111  -3.742  1.00  0.00     0.027 C 
BRANCH  29  31
HETATM   31  C16 UNL     1      18.311  -6.230  -2.465  1.00  0.00     0.234 C 
HETATM   32  O5  UNL     1      19.390  -6.415  -1.804  1.00  0.00    -0.272 OA
HETATM   33  N8  UNL     1      17.245  -5.481  -1.889  1.00  0.00    -0.296 N 
HETATM   34  C17 UNL     1      17.388  -4.967  -0.583  1.00  0.00     0.242 C 
ATOM     35  H8  UNL     1      16.387  -5.318  -2.415  1.00  0.00     0.171 HD
HETATM   36  O6  UNL     1      18.452  -5.163   0.043  1.00  0.00    -0.271 OA
BRANCH  34  37
HETATM   37  C18 UNL     1      16.282  -4.202   0.039  1.00  0.00     0.237 C 
BRANCH  37  38
HETATM   38  N9  UNL     1      16.339  -2.799  -0.365  1.00  0.00    -0.284 N 
HETATM   39  C19 UNL     1      17.152  -1.988   0.321  1.00  0.00     0.146 A 
HETATM   40  C20 UNL     1      17.201  -0.660  -0.069  1.00  0.00     0.075 A 
HETATM   41  C21 UNL     1      16.428  -0.222  -1.131  1.00  0.00     0.069 A 
HETATM   42  C22 UNL     1      16.461   1.093  -1.539  1.00  0.00     0.262 A 
HETATM   43  C24 UNL     1      15.601  -1.085  -1.819  1.00  0.00     0.121 A 
HETATM   44  O8  UNL     1      17.214   1.905  -0.922  1.00  0.00    -0.267 OA
HETATM   45  N10 UNL     1      15.697   1.511  -2.587  1.00  0.00    -0.275 N 
HETATM   46  C23 UNL     1      14.900   0.654  -3.241  1.00  0.00     0.327 A 
ATOM     47  H10 UNL     1      15.731   2.487  -2.878  1.00  0.00     0.173 HD
HETATM   48  O9  UNL     1      14.213   1.085  -4.200  1.00  0.00    -0.247 OA
HETATM   49  N11 UNL     1      14.861  -0.642  -2.850  1.00  0.00    -0.303 N 
ATOM     50  H11 UNL     1      14.256  -1.296  -3.347  1.00  0.00     0.171 HD
HETATM   51  C25 UNL     1      15.578  -2.416  -1.397  1.00  0.00     0.278 A 
HETATM   52  O10 UNL     1      14.822  -3.199  -2.027  1.00  0.00    -0.265 OA
BRANCH  39  53
HETATM   53  O7  UNL     1      17.931  -2.407   1.386  1.00  0.00    -0.346 OA
ATOM     54  H7  UNL     1      18.733  -1.973   1.653  1.00  0.00     0.219 HD
ENDBRANCH  39  53
ENDBRANCH  37  38
ENDBRANCH  34  37
ENDBRANCH  29  31
ENDBRANCH   2  29
TORSDOF 12
ENDMDL
