MODEL 1
REMARK VINA RESULT: -10.587680236      0.000      0.000
REMARK  17 active torsions:
REMARK  status: ('A' for Active; 'I' for Inactive)
REMARK    1  A    between atoms: C2_2  and  N1_3 
REMARK    2  A    between atoms: C2_2  and  C13_26 
REMARK    3  A    between atoms: N1_3  and  C3_4 
REMARK    4  A    between atoms: C3_4  and  O1_5 
REMARK    5  A    between atoms: C3_4  and  C4_7 
REMARK    6  A    between atoms: C7_10  and  N2_11 
REMARK    7  A    between atoms: C9_13  and  C10_14 
REMARK    8  A    between atoms: C11_21  and  N6_22 
REMARK       I    between atoms: C13_26  and  N7_28 
REMARK    9  A    between atoms: N7_28  and  C14_30 
REMARK   10  A    between atoms: C14_30  and  C15_31 
REMARK   11  A    between atoms: C14_30  and  C21_55 
REMARK       I    between atoms: C15_31  and  N8_33 
REMARK   12  A    between atoms: N8_33  and  N9_35 
REMARK   13  A    between atoms: C16_36  and  C17_37 
REMARK   14  A    between atoms: C17_37  and  S1_38 
REMARK   15  A    between atoms: S1_38  and  C18_39 
REMARK   16  A    between atoms: C21_55  and  N15_56 
REMARK   17  A    between atoms: C21_55  and  O8_60 
ROOT
HETATM    1  C14 UNL     1      20.544   4.816  -2.111  1.00  0.00     0.235 C 
ENDROOT
BRANCH   1   2
HETATM    2  N7  UNL     1      19.270   4.139  -1.943  1.00  0.00    -0.338 N 
HETATM    3  C13 UNL     1      19.083   3.148  -0.930  1.00  0.00     0.278 C 
HETATM    4  O5  UNL     1      20.067   2.875  -0.206  1.00  0.00    -0.265 OA
ATOM      5  H7  UNL     1      18.494   4.376  -2.560  1.00  0.00     0.163 HD
BRANCH   3   6
HETATM    6  C2  UNL     1      17.823   2.453  -0.709  1.00  0.00     0.151 C 
HETATM    7  C1  UNL     1      16.575   3.294  -0.561  1.00  0.00     0.091 C 
BRANCH   6   8
HETATM    8  N1  UNL     1      17.774   1.247  -0.642  1.00  0.00    -0.379 NA
BRANCH   8   9
HETATM    9  C3  UNL     1      17.647   0.063  -0.666  1.00  0.00     0.225 C 
BRANCH   9  10
HETATM   10  O1  UNL     1      19.085  -0.172  -0.002  1.00  0.00    -0.335 OA
ATOM     11  H1  UNL     1      18.882  -1.075   0.213  1.00  0.00     0.220 HD
ENDBRANCH   9  10
BRANCH   9  12
HETATM   12  C4  UNL     1      17.374  -1.391  -0.750  1.00  0.00     0.032 A 
HETATM   13  C5  UNL     1      15.970  -1.657  -0.876  1.00  0.00     0.019 A 
HETATM   14  C6  UNL     1      15.503  -2.930  -1.007  1.00  0.00     0.035 A 
HETATM   15  C7  UNL     1      16.376  -3.991  -1.016  1.00  0.00     0.090 A 
HETATM   16  C11 UNL     1      17.716  -3.750  -0.890  1.00  0.00     0.132 A 
HETATM   17  C12 UNL     1      18.199  -2.430  -0.756  1.00  0.00     0.055 A 
BRANCH  15  18
HETATM   18  N2  UNL     1      15.865  -5.316  -1.161  1.00  0.00    -0.248 N 
HETATM   19  C8  UNL     1      15.927  -6.145  -2.198  1.00  0.00     0.154 A 
HETATM   20  C9  UNL     1      15.277  -7.320  -1.894  1.00  0.00     0.132 A 
HETATM   21  N4  UNL     1      14.826  -7.137  -0.613  1.00  0.00    -0.280 N 
HETATM   22  N5  UNL     1      15.188  -5.944  -0.211  1.00  0.00    -0.235 N 
ATOM     23  H4  UNL     1      14.299  -7.816  -0.064  1.00  0.00     0.189 HD
ATOM     24  H5  UNL     1      14.977  -5.552   0.706  1.00  0.00     0.209 HD
BRANCH  20  25
HETATM   25  C10 UNL     1      15.088  -8.510  -2.705  1.00  0.00     0.284 C 
HETATM   26  N3  UNL     1      15.783  -9.732  -2.466  1.00  0.00    -0.056 NA
HETATM   27  O2  UNL     1      14.286  -8.463  -3.671  1.00  0.00    -0.269 OA
ENDBRANCH  20  25
ENDBRANCH  15  18
BRANCH  16  28
HETATM   28  N6  UNL     1      18.644  -4.815  -0.877  1.00  0.00    -0.113 N 
HETATM   29  O3  UNL     1      18.926  -5.361   0.197  1.00  0.00    -0.532 OA
HETATM   30  O4  UNL     1      19.240  -5.259  -2.048  1.00  0.00    -0.532 OA
ENDBRANCH  16  28
ENDBRANCH   9  12
ENDBRANCH   8   9
ENDBRANCH   6   8
ENDBRANCH   3   6
ENDBRANCH   1   2
BRANCH   1  31
HETATM   31  C15 UNL     1      21.099   4.252  -3.400  1.00  0.00     0.263 C 
HETATM   32  O6  UNL     1      21.767   3.167  -3.238  1.00  0.00    -0.269 OA
HETATM   33  N8  UNL     1      20.946   4.793  -4.657  1.00  0.00    -0.256 N 
ATOM     34  H8  UNL     1      20.380   5.640  -4.697  1.00  0.00     0.191 HD
BRANCH  33  35
HETATM   35  N9  UNL     1      21.444   4.359  -5.878  1.00  0.00    -0.187 N 
HETATM   36  C16 UNL     1      22.633   4.770  -6.396  1.00  0.00     0.133 A 
HETATM   37  N13 UNL     1      22.828   4.129  -7.551  1.00  0.00    -0.283 N 
HETATM   38  N14 UNL     1      21.826   3.345  -7.773  1.00  0.00    -0.248 N 
ATOM     39  H13 UNL     1      23.639   4.241  -8.160  1.00  0.00     0.188 HD
HETATM   40  C20 UNL     1      20.958   3.470  -6.748  1.00  0.00     0.361 A 
ATOM     41  H14 UNL     1      21.712   2.737  -8.584  1.00  0.00     0.192 HD
HETATM   42  O7  UNL     1      19.888   2.787  -6.746  1.00  0.00    -0.243 OA
BRANCH  36  43
HETATM   43  C17 UNL     1      23.564   5.772  -5.822  1.00  0.00     0.161 C 
BRANCH  43  44
HETATM   44  S1  UNL     1      23.831   7.134  -6.988  1.00  0.00    -0.096 SA
BRANCH  44  45
HETATM   45  C18 UNL     1      22.332   7.478  -7.899  1.00  0.00     0.130 A 
HETATM   46  N10 UNL     1      22.218   7.486  -9.224  1.00  0.00    -0.286 N 
HETATM   47  N11 UNL     1      21.108   7.754  -9.779  1.00  0.00    -0.279 N 
ATOM     48  H10 UNL     1      23.032   7.273  -9.801  1.00  0.00     0.188 HD
HETATM   49  C19 UNL     1      20.054   8.029  -8.986  1.00  0.00     0.159 A 
ATOM     50  H11 UNL     1      21.017   7.762 -10.795  1.00  0.00     0.189 HD
HETATM   51  N12 UNL     1      18.831   8.333  -9.373  1.00  0.00    -0.379 N 
HETATM   52  S2  UNL     1      20.737   7.883  -7.428  1.00  0.00    -0.027 SA
ATOM     53 2H12 UNL     1      18.424   8.420 -10.304  1.00  0.00     0.158 HD
ATOM     54 1H12 UNL     1      18.033   8.541  -8.772  1.00  0.00     0.158 HD
ENDBRANCH  44  45
ENDBRANCH  43  44
ENDBRANCH  36  43
ENDBRANCH  33  35
ENDBRANCH   1  31
BRANCH   1  55
HETATM   55  C21 UNL     1      20.474   6.278  -2.022  1.00  0.00     0.348 C 
BRANCH  55  56
HETATM   56  N15 UNL     1      19.567   6.798  -3.066  1.00  0.00    -0.051 N 
ATOM     57 3H15 UNL     1      20.043   6.922  -3.960  1.00  0.00     0.277 HD
ATOM     58 2H15 UNL     1      18.881   6.103  -3.360  1.00  0.00     0.277 HD
ATOM     59 1H15 UNL     1      19.127   7.659  -2.743  1.00  0.00     0.277 HD
ENDBRANCH  55  56
BRANCH  55  60
HETATM   60  O8  UNL     1      21.745   6.777  -2.453  1.00  0.00    -0.368 OA
ATOM     61  H8  UNL     1      22.169   7.143  -1.685  1.00  0.00     0.212 HD
ENDBRANCH  55  60
ENDBRANCH   1  55
TORSDOF 17
ENDMDL
MODEL 2
REMARK VINA RESULT: -10.223922894      2.241      3.470
REMARK  17 active torsions:
REMARK  status: ('A' for Active; 'I' for Inactive)
REMARK    1  A    between atoms: C2_2  and  N1_3 
REMARK    2  A    between atoms: C2_2  and  C13_26 
REMARK    3  A    between atoms: N1_3  and  C3_4 
REMARK    4  A    between atoms: C3_4  and  O1_5 
REMARK    5  A    between atoms: C3_4  and  C4_7 
REMARK    6  A    between atoms: C7_10  and  N2_11 
REMARK    7  A    between atoms: C9_13  and  C10_14 
REMARK    8  A    between atoms: C11_21  and  N6_22 
REMARK       I    between atoms: C13_26  and  N7_28 
REMARK    9  A    between atoms: N7_28  and  C14_30 
REMARK   10  A    between atoms: C14_30  and  C15_31 
REMARK   11  A    between atoms: C14_30  and  C21_55 
REMARK       I    between atoms: C15_31  and  N8_33 
REMARK   12  A    between atoms: N8_33  and  N9_35 
REMARK   13  A    between atoms: C16_36  and  C17_37 
REMARK   14  A    between atoms: C17_37  and  S1_38 
REMARK   15  A    between atoms: S1_38  and  C18_39 
REMARK   16  A    between atoms: C21_55  and  N15_56 
REMARK   17  A    between atoms: C21_55  and  O8_60 
ROOT
HETATM    1  C14 UNL     1      20.885   4.272  -5.263  1.00  0.00     0.235 C 
ENDROOT
BRANCH   1   2
HETATM    2  N7  UNL     1      20.260   3.832  -4.028  1.00  0.00    -0.338 N 
HETATM    3  C13 UNL     1      19.510   4.735  -3.213  1.00  0.00     0.278 C 
HETATM    4  O5  UNL     1      19.428   5.924  -3.598  1.00  0.00    -0.265 OA
ATOM      5  H7  UNL     1      20.358   2.860  -3.737  1.00  0.00     0.163 HD
BRANCH   3   6
HETATM    6  C2  UNL     1      18.849   4.342  -1.976  1.00  0.00     0.151 C 
HETATM    7  C1  UNL     1      18.740   5.379  -0.881  1.00  0.00     0.091 C 
BRANCH   6   8
HETATM    8  N1  UNL     1      18.407   3.228  -1.827  1.00  0.00    -0.379 NA
BRANCH   8   9
HETATM    9  C3  UNL     1      17.892   2.177  -1.602  1.00  0.00     0.225 C 
BRANCH   9  10
HETATM   10  O1  UNL     1      16.421   2.798  -1.720  1.00  0.00    -0.335 OA
ATOM     11  H1  UNL     1      16.207   2.253  -2.469  1.00  0.00     0.220 HD
ENDBRANCH   9  10
BRANCH   9  12
HETATM   12  C4  UNL     1      17.369   0.822  -1.313  1.00  0.00     0.032 A 
HETATM   13  C5  UNL     1      16.038   0.651  -1.822  1.00  0.00     0.019 A 
HETATM   14  C6  UNL     1      15.383  -0.537  -1.696  1.00  0.00     0.035 A 
HETATM   15  C7  UNL     1      15.989  -1.600  -1.072  1.00  0.00     0.090 A 
HETATM   16  C11 UNL     1      17.255  -1.448  -0.578  1.00  0.00     0.132 A 
HETATM   17  C12 UNL     1      17.933  -0.217  -0.709  1.00  0.00     0.055 A 
BRANCH  15  18
HETATM   18  N2  UNL     1      15.286  -2.838  -0.958  1.00  0.00    -0.248 N 
HETATM   19  C8  UNL     1      15.124  -3.811  -1.849  1.00  0.00     0.154 A 
HETATM   20  C9  UNL     1      14.352  -4.814  -1.306  1.00  0.00     0.132 A 
HETATM   21  N4  UNL     1      14.066  -4.376  -0.040  1.00  0.00    -0.280 N 
HETATM   22  N5  UNL     1      14.629  -3.206   0.132  1.00  0.00    -0.235 N 
ATOM     23  H4  UNL     1      13.508  -4.876   0.652  1.00  0.00     0.189 HD
ATOM     24  H5  UNL     1      14.571  -2.654   0.988  1.00  0.00     0.209 HD
BRANCH  20  25
HETATM   25  C10 UNL     1      13.916  -6.068  -1.896  1.00  0.00     0.284 C 
HETATM   26  N3  UNL     1      13.110  -6.136  -3.071  1.00  0.00    -0.056 NA
HETATM   27  O2  UNL     1      14.252  -7.145  -1.344  1.00  0.00    -0.269 OA
ENDBRANCH  20  25
ENDBRANCH  15  18
BRANCH  16  28
HETATM   28  N6  UNL     1      17.904  -2.511   0.086  1.00  0.00    -0.113 N 
HETATM   29  O3  UNL     1      17.717  -2.675   1.298  1.00  0.00    -0.532 OA
HETATM   30  O4  UNL     1      18.745  -3.376  -0.599  1.00  0.00    -0.532 OA
ENDBRANCH  16  28
ENDBRANCH   9  12
ENDBRANCH   8   9
ENDBRANCH   6   8
ENDBRANCH   3   6
ENDBRANCH   1   2
BRANCH   1  31
HETATM   31  C15 UNL     1      22.150   4.967  -4.814  1.00  0.00     0.263 C 
HETATM   32  O6  UNL     1      23.130   4.164  -4.603  1.00  0.00    -0.269 OA
HETATM   33  N8  UNL     1      22.312   6.323  -4.627  1.00  0.00    -0.256 N 
ATOM     34  H8  UNL     1      21.491   6.889  -4.842  1.00  0.00     0.191 HD
BRANCH  33  35
HETATM   35  N9  UNL     1      23.421   7.034  -4.192  1.00  0.00    -0.187 N 
HETATM   36  C16 UNL     1      24.444   7.408  -5.007  1.00  0.00     0.133 A 
HETATM   37  N13 UNL     1      25.317   8.113  -4.283  1.00  0.00    -0.283 N 
HETATM   38  N14 UNL     1      24.889   8.195  -3.067  1.00  0.00    -0.248 N 
ATOM     39  H13 UNL     1      26.184   8.521  -4.633  1.00  0.00     0.188 HD
HETATM   40  C20 UNL     1      23.714   7.536  -2.989  1.00  0.00     0.361 A 
ATOM     41  H14 UNL     1      25.358   8.676  -2.299  1.00  0.00     0.192 HD
HETATM   42  O7  UNL     1      23.098   7.484  -1.881  1.00  0.00    -0.243 OA
BRANCH  36  43
HETATM   43  C17 UNL     1      24.609   7.087  -6.445  1.00  0.00     0.161 C 
BRANCH  43  44
HETATM   44  S1  UNL     1      24.108   8.493  -7.474  1.00  0.00    -0.096 SA
BRANCH  44  45
HETATM   45  C18 UNL     1      22.431   8.275  -8.054  1.00  0.00     0.130 A 
HETATM   46  N10 UNL     1      21.719   7.157  -7.955  1.00  0.00    -0.286 N 
HETATM   47  N11 UNL     1      20.535   7.098  -8.410  1.00  0.00    -0.279 N 
ATOM     48  H10 UNL     1      22.129   6.336  -7.508  1.00  0.00     0.188 HD
HETATM   49  C19 UNL     1      20.025   8.201  -8.992  1.00  0.00     0.159 A 
ATOM     50  H11 UNL     1      19.986   6.242  -8.336  1.00  0.00     0.189 HD
HETATM   51  N12 UNL     1      18.826   8.333  -9.523  1.00  0.00    -0.379 N 
HETATM   52  S2  UNL     1      21.320   9.304  -8.852  1.00  0.00    -0.027 SA
ATOM     53 2H12 UNL     1      18.052   7.673  -9.607  1.00  0.00     0.158 HD
ATOM     54 1H12 UNL     1      18.440   9.168  -9.964  1.00  0.00     0.158 HD
ENDBRANCH  44  45
ENDBRANCH  43  44
ENDBRANCH  36  43
ENDBRANCH  33  35
ENDBRANCH   1  31
BRANCH   1  55
HETATM   55  C21 UNL     1      21.049   3.219  -6.271  1.00  0.00     0.348 C 
BRANCH  55  56
HETATM   56  N15 UNL     1      22.045   3.643  -7.276  1.00  0.00    -0.051 N 
ATOM     57 3H15 UNL     1      21.877   4.594  -7.606  1.00  0.00     0.277 HD
ATOM     58 2H15 UNL     1      22.967   3.790  -6.865  1.00  0.00     0.277 HD
ATOM     59 1H15 UNL     1      22.070   2.970  -8.042  1.00  0.00     0.277 HD
ENDBRANCH  55  56
BRANCH  55  60
HETATM   60  O8  UNL     1      19.840   3.196  -7.039  1.00  0.00    -0.368 OA
ATOM     61  H8  UNL     1      20.097   3.216  -7.954  1.00  0.00     0.212 HD
ENDBRANCH  55  60
ENDBRANCH   1  55
TORSDOF 17
ENDMDL
MODEL 3
REMARK VINA RESULT: -10.136261660      2.180      3.717
REMARK  17 active torsions:
REMARK  status: ('A' for Active; 'I' for Inactive)
REMARK    1  A    between atoms: C2_2  and  N1_3 
REMARK    2  A    between atoms: C2_2  and  C13_26 
REMARK    3  A    between atoms: N1_3  and  C3_4 
REMARK    4  A    between atoms: C3_4  and  O1_5 
REMARK    5  A    between atoms: C3_4  and  C4_7 
REMARK    6  A    between atoms: C7_10  and  N2_11 
REMARK    7  A    between atoms: C9_13  and  C10_14 
REMARK    8  A    between atoms: C11_21  and  N6_22 
REMARK       I    between atoms: C13_26  and  N7_28 
REMARK    9  A    between atoms: N7_28  and  C14_30 
REMARK   10  A    between atoms: C14_30  and  C15_31 
REMARK   11  A    between atoms: C14_30  and  C21_55 
REMARK       I    between atoms: C15_31  and  N8_33 
REMARK   12  A    between atoms: N8_33  and  N9_35 
REMARK   13  A    between atoms: C16_36  and  C17_37 
REMARK   14  A    between atoms: C17_37  and  S1_38 
REMARK   15  A    between atoms: S1_38  and  C18_39 
REMARK   16  A    between atoms: C21_55  and  N15_56 
REMARK   17  A    between atoms: C21_55  and  O8_60 
ROOT
HETATM    1  C14 UNL     1      21.014   6.218  -3.526  1.00  0.00     0.235 C 
ENDROOT
BRANCH   1   2
HETATM    2  N7  UNL     1      19.812   5.844  -2.802  1.00  0.00    -0.338 N 
HETATM    3  C13 UNL     1      19.643   4.527  -2.274  1.00  0.00     0.278 C 
HETATM    4  O5  UNL     1      20.564   3.704  -2.477  1.00  0.00    -0.265 OA
ATOM      5  H7  UNL     1      19.074   6.535  -2.668  1.00  0.00     0.163 HD
BRANCH   3   6
HETATM    6  C2  UNL     1      18.466   4.106  -1.527  1.00  0.00     0.151 C 
HETATM    7  C1  UNL     1      17.554   5.186  -0.989  1.00  0.00     0.091 C 
BRANCH   6   8
HETATM    8  N1  UNL     1      18.227   2.936  -1.339  1.00  0.00    -0.379 NA
BRANCH   8   9
HETATM    9  C3  UNL     1      17.885   1.803  -1.208  1.00  0.00     0.225 C 
BRANCH   9  10
HETATM   10  O1  UNL     1      19.398   1.277  -1.206  1.00  0.00    -0.335 OA
ATOM     11  H1  UNL     1      19.144   0.426  -0.868  1.00  0.00     0.220 HD
ENDBRANCH   9  10
BRANCH   9  12
HETATM   12  C4  UNL     1      17.340   0.434  -1.047  1.00  0.00     0.032 A 
HETATM   13  C5  UNL     1      16.015   0.329  -1.586  1.00  0.00     0.019 A 
HETATM   14  C6  UNL     1      15.342  -0.856  -1.575  1.00  0.00     0.035 A 
HETATM   15  C7  UNL     1      15.925  -1.979  -1.040  1.00  0.00     0.090 A 
HETATM   16  C11 UNL     1      17.186  -1.889  -0.518  1.00  0.00     0.132 A 
HETATM   17  C12 UNL     1      17.882  -0.661  -0.530  1.00  0.00     0.055 A 
BRANCH  15  18
HETATM   18  N2  UNL     1      15.204  -3.212  -1.046  1.00  0.00    -0.248 N 
HETATM   19  C8  UNL     1      15.178  -4.180  -1.956  1.00  0.00     0.154 A 
HETATM   20  C9  UNL     1      14.323  -5.179  -1.549  1.00  0.00     0.132 A 
HETATM   21  N4  UNL     1      13.843  -4.744  -0.341  1.00  0.00    -0.280 N 
HETATM   22  N5  UNL     1      14.381  -3.579  -0.075  1.00  0.00    -0.235 N 
ATOM     23  H4  UNL     1      13.180  -5.243   0.252  1.00  0.00     0.189 HD
ATOM     24  H5  UNL     1      14.192  -3.030   0.763  1.00  0.00     0.209 HD
BRANCH  20  25
HETATM   25  C10 UNL     1      13.977  -6.426  -2.207  1.00  0.00     0.284 C 
HETATM   26  N3  UNL     1      14.918  -7.476  -2.427  1.00  0.00    -0.056 NA
HETATM   27  O2  UNL     1      12.801  -6.590  -2.614  1.00  0.00    -0.269 OA
ENDBRANCH  20  25
ENDBRANCH  15  18
BRANCH  16  28
HETATM   28  N6  UNL     1      17.811  -3.017   0.058  1.00  0.00    -0.113 N 
HETATM   29  O3  UNL     1      17.516  -3.353   1.211  1.00  0.00    -0.532 OA
HETATM   30  O4  UNL     1      18.749  -3.754  -0.650  1.00  0.00    -0.532 OA
ENDBRANCH  16  28
ENDBRANCH   9  12
ENDBRANCH   8   9
ENDBRANCH   6   8
ENDBRANCH   3   6
ENDBRANCH   1   2
BRANCH   1  31
HETATM   31  C15 UNL     1      20.568   7.341  -4.436  1.00  0.00     0.263 C 
HETATM   32  O6  UNL     1      19.619   8.052  -3.944  1.00  0.00    -0.269 OA
HETATM   33  N8  UNL     1      21.080   7.632  -5.681  1.00  0.00    -0.256 N 
ATOM     34  H8  UNL     1      21.848   7.033  -5.983  1.00  0.00     0.191 HD
BRANCH  33  35
HETATM   35  N9  UNL     1      20.711   8.616  -6.586  1.00  0.00    -0.187 N 
HETATM   36  C16 UNL     1      20.359   8.361  -7.876  1.00  0.00     0.133 A 
HETATM   37  N13 UNL     1      20.019   9.518  -8.451  1.00  0.00    -0.283 N 
HETATM   38  N14 UNL     1      20.140  10.471  -7.588  1.00  0.00    -0.248 N 
ATOM     39  H13 UNL     1      19.712   9.630  -9.417  1.00  0.00     0.188 HD
HETATM   40  C20 UNL     1      20.565   9.935  -6.425  1.00  0.00     0.361 A 
ATOM     41  H14 UNL     1      19.947  11.458  -7.757  1.00  0.00     0.192 HD
HETATM   42  O7  UNL     1      20.754  10.687  -5.420  1.00  0.00    -0.243 OA
BRANCH  36  43
HETATM   43  C17 UNL     1      20.365   7.048  -8.565  1.00  0.00     0.161 C 
BRANCH  43  44
HETATM   44  S1  UNL     1      22.055   6.399  -8.682  1.00  0.00    -0.096 SA
BRANCH  44  45
HETATM   45  C18 UNL     1      22.384   5.272  -7.333  1.00  0.00     0.130 A 
HETATM   46  N10 UNL     1      23.511   5.218  -6.630  1.00  0.00    -0.286 N 
HETATM   47  N11 UNL     1      23.653   4.370  -5.696  1.00  0.00    -0.279 N 
ATOM     48  H10 UNL     1      24.271   5.865  -6.844  1.00  0.00     0.188 HD
HETATM   49  C19 UNL     1      22.629   3.532  -5.440  1.00  0.00     0.159 A 
ATOM     50  H11 UNL     1      24.516   4.325  -5.154  1.00  0.00     0.189 HD
HETATM   51  N12 UNL     1      22.590   2.589  -4.520  1.00  0.00    -0.379 N 
HETATM   52  S2  UNL     1      21.475   4.022  -6.598  1.00  0.00    -0.027 SA
ATOM     53 2H12 UNL     1      23.281   2.296  -3.828  1.00  0.00     0.158 HD
ATOM     54 1H12 UNL     1      21.815   1.955  -4.326  1.00  0.00     0.158 HD
ENDBRANCH  44  45
ENDBRANCH  43  44
ENDBRANCH  36  43
ENDBRANCH  33  35
ENDBRANCH   1  31
BRANCH   1  55
HETATM   55  C21 UNL     1      22.176   6.499  -2.676  1.00  0.00     0.348 C 
BRANCH  55  56
HETATM   56  N15 UNL     1      22.884   7.694  -3.178  1.00  0.00    -0.051 N 
ATOM     57 3H15 UNL     1      23.727   7.450  -3.699  1.00  0.00     0.277 HD
ATOM     58 2H15 UNL     1      22.373   8.155  -3.931  1.00  0.00     0.277 HD
ATOM     59 1H15 UNL     1      23.081   8.328  -2.404  1.00  0.00     0.277 HD
ENDBRANCH  55  56
BRANCH  55  60
HETATM   60  O8  UNL     1      23.128   5.458  -2.926  1.00  0.00    -0.368 OA
ATOM     61  H8  UNL     1      23.870   5.866  -3.357  1.00  0.00     0.212 HD
ENDBRANCH  55  60
ENDBRANCH   1  55
TORSDOF 17
ENDMDL
MODEL 4
REMARK VINA RESULT: -10.123277768      4.893     12.588
REMARK  17 active torsions:
REMARK  status: ('A' for Active; 'I' for Inactive)
REMARK    1  A    between atoms: C2_2  and  N1_3 
REMARK    2  A    between atoms: C2_2  and  C13_26 
REMARK    3  A    between atoms: N1_3  and  C3_4 
REMARK    4  A    between atoms: C3_4  and  O1_5 
REMARK    5  A    between atoms: C3_4  and  C4_7 
REMARK    6  A    between atoms: C7_10  and  N2_11 
REMARK    7  A    between atoms: C9_13  and  C10_14 
REMARK    8  A    between atoms: C11_21  and  N6_22 
REMARK       I    between atoms: C13_26  and  N7_28 
REMARK    9  A    between atoms: N7_28  and  C14_30 
REMARK   10  A    between atoms: C14_30  and  C15_31 
REMARK   11  A    between atoms: C14_30  and  C21_55 
REMARK       I    between atoms: C15_31  and  N8_33 
REMARK   12  A    between atoms: N8_33  and  N9_35 
REMARK   13  A    between atoms: C16_36  and  C17_37 
REMARK   14  A    between atoms: C17_37  and  S1_38 
REMARK   15  A    between atoms: S1_38  and  C18_39 
REMARK   16  A    between atoms: C21_55  and  N15_56 
REMARK   17  A    between atoms: C21_55  and  O8_60 
ROOT
HETATM    1  C14 UNL     1      15.240  -6.413  -2.805  1.00  0.00     0.235 C 
ENDROOT
BRANCH   1   2
HETATM    2  N7  UNL     1      15.712  -5.693  -1.636  1.00  0.00    -0.338 N 
HETATM    3  C13 UNL     1      15.066  -4.500  -1.187  1.00  0.00     0.278 C 
HETATM    4  O5  UNL     1      14.087  -4.091  -1.853  1.00  0.00    -0.265 OA
ATOM      5  H7  UNL     1      16.521  -6.045  -1.125  1.00  0.00     0.163 HD
BRANCH   3   6
HETATM    6  C2  UNL     1      15.487  -3.750  -0.012  1.00  0.00     0.151 C 
HETATM    7  C1  UNL     1      15.011  -4.238   1.338  1.00  0.00     0.091 C 
BRANCH   6   8
HETATM    8  N1  UNL     1      16.189  -2.772  -0.110  1.00  0.00    -0.379 NA
BRANCH   8   9
HETATM    9  C3  UNL     1      16.805  -1.768  -0.291  1.00  0.00     0.225 C 
BRANCH   9  10
HETATM   10  O1  UNL     1      17.768  -2.056   0.956  1.00  0.00    -0.335 OA
ATOM     11  H1  UNL     1      18.177  -2.795   0.520  1.00  0.00     0.220 HD
ENDBRANCH   9  10
BRANCH   9  12
HETATM   12  C4  UNL     1      17.493  -0.497  -0.614  1.00  0.00     0.032 A 
HETATM   13  C5  UNL     1      16.562   0.518  -1.018  1.00  0.00     0.019 A 
HETATM   14  C6  UNL     1      16.982   1.777  -1.324  1.00  0.00     0.035 A 
HETATM   15  C7  UNL     1      18.316   2.099  -1.254  1.00  0.00     0.090 A 
HETATM   16  C11 UNL     1      19.213   1.140  -0.877  1.00  0.00     0.132 A 
HETATM   17  C12 UNL     1      18.777  -0.165  -0.559  1.00  0.00     0.055 A 
BRANCH  15  18
HETATM   18  N2  UNL     1      18.732   3.428  -1.573  1.00  0.00    -0.248 N 
HETATM   19  C8  UNL     1      19.334   3.894  -2.663  1.00  0.00     0.154 A 
HETATM   20  C9  UNL     1      19.564   5.244  -2.525  1.00  0.00     0.132 A 
HETATM   21  N4  UNL     1      19.061   5.551  -1.288  1.00  0.00    -0.280 N 
HETATM   22  N5  UNL     1      18.581   4.456  -0.752  1.00  0.00    -0.235 N 
ATOM     23  H4  UNL     1      19.060   6.475  -0.857  1.00  0.00     0.189 HD
ATOM     24  H5  UNL     1      18.150   4.403   0.171  1.00  0.00     0.209 HD
BRANCH  20  25
HETATM   25  C10 UNL     1      20.187   6.176  -3.450  1.00  0.00     0.284 C 
HETATM   26  N3  UNL     1      19.540   7.360  -3.914  1.00  0.00    -0.056 NA
HETATM   27  O2  UNL     1      21.343   5.927  -3.873  1.00  0.00    -0.269 OA
ENDBRANCH  20  25
ENDBRANCH  15  18
BRANCH  16  28
HETATM   28  N6  UNL     1      20.594   1.426  -0.811  1.00  0.00    -0.113 N 
HETATM   29  O3  UNL     1      21.407   0.606  -1.255  1.00  0.00    -0.532 OA
HETATM   30  O4  UNL     1      21.053   2.614  -0.260  1.00  0.00    -0.532 OA
ENDBRANCH  16  28
ENDBRANCH   9  12
ENDBRANCH   8   9
ENDBRANCH   6   8
ENDBRANCH   3   6
ENDBRANCH   1   2
BRANCH   1  31
HETATM   31  C15 UNL     1      16.494  -6.689  -3.605  1.00  0.00     0.263 C 
HETATM   32  O6  UNL     1      16.342  -7.599  -4.498  1.00  0.00    -0.269 OA
HETATM   33  N8  UNL     1      17.714  -6.068  -3.447  1.00  0.00    -0.256 N 
ATOM     34  H8  UNL     1      17.739  -5.340  -2.733  1.00  0.00     0.191 HD
BRANCH  33  35
HETATM   35  N9  UNL     1      18.912  -6.281  -4.113  1.00  0.00    -0.187 N 
HETATM   36  C16 UNL     1      19.732  -7.340  -3.870  1.00  0.00     0.133 A 
HETATM   37  N13 UNL     1      20.767  -7.266  -4.710  1.00  0.00    -0.283 N 
HETATM   38  N14 UNL     1      20.631  -6.222  -5.458  1.00  0.00    -0.248 N 
ATOM     39  H13 UNL     1      21.541  -7.929  -4.754  1.00  0.00     0.188 HD
HETATM   40  C20 UNL     1      19.488  -5.598  -5.107  1.00  0.00     0.361 A 
ATOM     41  H14 UNL     1      21.277  -5.922  -6.189  1.00  0.00     0.192 HD
HETATM   42  O7  UNL     1      19.140  -4.539  -5.714  1.00  0.00    -0.243 OA
BRANCH  36  43
HETATM   43  C17 UNL     1      19.554  -8.395  -2.843  1.00  0.00     0.161 C 
BRANCH  43  44
HETATM   44  S1  UNL     1      19.321 -10.013  -3.627  1.00  0.00    -0.096 SA
BRANCH  44  45
HETATM   45  C18 UNL     1      17.785 -10.752  -3.087  1.00  0.00     0.130 A 
HETATM   46  N10 UNL     1      16.806 -10.119  -2.449  1.00  0.00    -0.286 N 
HETATM   47  N11 UNL     1      15.755 -10.737  -2.095  1.00  0.00    -0.279 N 
ATOM     48  H10 UNL     1      16.900  -9.124  -2.241  1.00  0.00     0.188 HD
HETATM   49  C19 UNL     1      15.664 -12.049  -2.387  1.00  0.00     0.159 A 
ATOM     50  H11 UNL     1      15.002 -10.255  -1.604  1.00  0.00     0.189 HD
HETATM   51  N12 UNL     1      14.661 -12.855  -2.100  1.00  0.00    -0.379 N 
HETATM   52  S2  UNL     1      17.147 -12.337  -3.182  1.00  0.00    -0.027 SA
ATOM     53 2H12 UNL     1      13.775 -12.682  -1.625  1.00  0.00     0.158 HD
ATOM     54 1H12 UNL     1      14.592 -13.849  -2.322  1.00  0.00     0.158 HD
ENDBRANCH  44  45
ENDBRANCH  43  44
ENDBRANCH  36  43
ENDBRANCH  33  35
ENDBRANCH   1  31
BRANCH   1  55
HETATM   55  C21 UNL     1      14.395  -7.573  -2.507  1.00  0.00     0.348 C 
BRANCH  55  56
HETATM   56  N15 UNL     1      12.996  -7.136  -2.322  1.00  0.00    -0.051 N 
ATOM     57 3H15 UNL     1      12.810  -6.839  -1.364  1.00  0.00     0.277 HD
ATOM     58 2H15 UNL     1      12.805  -6.251  -2.791  1.00  0.00     0.277 HD
ATOM     59 1H15 UNL     1      12.362  -7.875  -2.625  1.00  0.00     0.277 HD
ENDBRANCH  55  56
BRANCH  55  60
HETATM   60  O8  UNL     1      14.749  -8.010  -1.189  1.00  0.00    -0.368 OA
ATOM     61  H8  UNL     1      14.889  -8.948  -1.242  1.00  0.00     0.212 HD
ENDBRANCH  55  60
ENDBRANCH   1  55
TORSDOF 17
ENDMDL
MODEL 5
REMARK VINA RESULT: -10.088758665      2.735      3.806
REMARK  17 active torsions:
REMARK  status: ('A' for Active; 'I' for Inactive)
REMARK    1  A    between atoms: C2_2  and  N1_3 
REMARK    2  A    between atoms: C2_2  and  C13_26 
REMARK    3  A    between atoms: N1_3  and  C3_4 
REMARK    4  A    between atoms: C3_4  and  O1_5 
REMARK    5  A    between atoms: C3_4  and  C4_7 
REMARK    6  A    between atoms: C7_10  and  N2_11 
REMARK    7  A    between atoms: C9_13  and  C10_14 
REMARK    8  A    between atoms: C11_21  and  N6_22 
REMARK       I    between atoms: C13_26  and  N7_28 
REMARK    9  A    between atoms: N7_28  and  C14_30 
REMARK   10  A    between atoms: C14_30  and  C15_31 
REMARK   11  A    between atoms: C14_30  and  C21_55 
REMARK       I    between atoms: C15_31  and  N8_33 
REMARK   12  A    between atoms: N8_33  and  N9_35 
REMARK   13  A    between atoms: C16_36  and  C17_37 
REMARK   14  A    between atoms: C17_37  and  S1_38 
REMARK   15  A    between atoms: S1_38  and  C18_39 
REMARK   16  A    between atoms: C21_55  and  N15_56 
REMARK   17  A    between atoms: C21_55  and  O8_60 
ROOT
HETATM    1  C14 UNL     1      21.098   5.490  -3.958  1.00  0.00     0.235 C 
ENDROOT
BRANCH   1   2
HETATM    2  N7  UNL     1      19.959   5.200  -3.106  1.00  0.00    -0.338 N 
HETATM    3  C13 UNL     1      19.907   4.013  -2.313  1.00  0.00     0.278 C 
HETATM    4  O5  UNL     1      20.876   3.223  -2.396  1.00  0.00    -0.265 OA
ATOM      5  H7  UNL     1      19.180   5.858  -3.072  1.00  0.00     0.163 HD
BRANCH   3   6
HETATM    6  C2  UNL     1      18.797   3.683  -1.429  1.00  0.00     0.151 C 
HETATM    7  C1  UNL     1      18.046   4.830  -0.791  1.00  0.00     0.091 C 
BRANCH   6   8
HETATM    8  N1  UNL     1      18.489   2.536  -1.209  1.00  0.00    -0.379 NA
BRANCH   8   9
HETATM    9  C3  UNL     1      18.083   1.427  -1.053  1.00  0.00     0.225 C 
BRANCH   9  10
HETATM   10  O1  UNL     1      19.286   1.054  -0.064  1.00  0.00    -0.335 OA
ATOM     11  H1  UNL     1      19.942   1.289  -0.711  1.00  0.00     0.220 HD
ENDBRANCH   9  10
BRANCH   9  12
HETATM   12  C4  UNL     1      17.483   0.077  -0.938  1.00  0.00     0.032 A 
HETATM   13  C5  UNL     1      16.116   0.070  -1.375  1.00  0.00     0.019 A 
HETATM   14  C6  UNL     1      15.387  -1.081  -1.388  1.00  0.00     0.035 A 
HETATM   15  C7  UNL     1      15.952  -2.264  -0.977  1.00  0.00     0.090 A 
HETATM   16  C11 UNL     1      17.252  -2.268  -0.553  1.00  0.00     0.132 A 
HETATM   17  C12 UNL     1      18.007  -1.076  -0.541  1.00  0.00     0.055 A 
BRANCH  15  18
HETATM   18  N2  UNL     1      15.171  -3.460  -1.005  1.00  0.00    -0.248 N 
HETATM   19  C8  UNL     1      15.124  -4.425  -1.918  1.00  0.00     0.154 A 
HETATM   20  C9  UNL     1      14.208  -5.380  -1.537  1.00  0.00     0.132 A 
HETATM   21  N4  UNL     1      13.715  -4.922  -0.343  1.00  0.00    -0.280 N 
HETATM   22  N5  UNL     1      14.302  -3.785  -0.060  1.00  0.00    -0.235 N 
ATOM     23  H4  UNL     1      13.011  -5.387   0.229  1.00  0.00     0.189 HD
ATOM     24  H5  UNL     1      14.116  -3.228   0.774  1.00  0.00     0.209 HD
BRANCH  20  25
HETATM   25  C10 UNL     1      13.820  -6.609  -2.207  1.00  0.00     0.284 C 
HETATM   26  N3  UNL     1      14.724  -7.688  -2.436  1.00  0.00    -0.056 NA
HETATM   27  O2  UNL     1      12.639  -6.729  -2.616  1.00  0.00    -0.269 OA
ENDBRANCH  20  25
ENDBRANCH  15  18
BRANCH  16  28
HETATM   28  N6  UNL     1      17.862  -3.461  -0.105  1.00  0.00    -0.113 N 
HETATM   29  O3  UNL     1      18.902  -3.852  -0.649  1.00  0.00    -0.532 OA
HETATM   30  O4  UNL     1      17.316  -4.195   0.937  1.00  0.00    -0.532 OA
ENDBRANCH  16  28
ENDBRANCH   9  12
ENDBRANCH   8   9
ENDBRANCH   6   8
ENDBRANCH   3   6
ENDBRANCH   1   2
BRANCH   1  31
HETATM   31  C15 UNL     1      20.607   6.586  -4.878  1.00  0.00     0.263 C 
HETATM   32  O6  UNL     1      19.572   7.202  -4.433  1.00  0.00    -0.269 OA
HETATM   33  N8  UNL     1      21.162   6.944  -6.086  1.00  0.00    -0.256 N 
ATOM     34  H8  UNL     1      21.996   6.420  -6.351  1.00  0.00     0.191 HD
BRANCH  33  35
HETATM   35  N9  UNL     1      20.760   7.909  -6.998  1.00  0.00    -0.187 N 
HETATM   36  C16 UNL     1      20.860   9.248  -6.772  1.00  0.00     0.133 A 
HETATM   37  N13 UNL     1      20.431   9.887  -7.864  1.00  0.00    -0.283 N 
HETATM   38  N14 UNL     1      20.074   9.018  -8.750  1.00  0.00    -0.248 N 
ATOM     39  H13 UNL     1      20.392  10.900  -7.979  1.00  0.00     0.188 HD
HETATM   40  C20 UNL     1      20.272   7.786  -8.236  1.00  0.00     0.361 A 
ATOM     41  H14 UNL     1      19.707   9.227  -9.678  1.00  0.00     0.192 HD
HETATM   42  O7  UNL     1      19.993   6.763  -8.934  1.00  0.00    -0.243 OA
BRANCH  36  43
HETATM   43  C17 UNL     1      21.331   9.916  -5.535  1.00  0.00     0.161 C 
BRANCH  43  44
HETATM   44  S1  UNL     1      22.985  10.618  -5.781  1.00  0.00    -0.096 SA
BRANCH  44  45
HETATM   45  C18 UNL     1      24.195   9.709  -4.828  1.00  0.00     0.130 A 
HETATM   46  N10 UNL     1      24.646   8.492  -5.114  1.00  0.00    -0.286 N 
HETATM   47  N11 UNL     1      25.500   7.924  -4.366  1.00  0.00    -0.279 N 
ATOM     48  H10 UNL     1      24.303   8.008  -5.945  1.00  0.00     0.188 HD
HETATM   49  C19 UNL     1      25.933   8.592  -3.278  1.00  0.00     0.159 A 
ATOM     50  H11 UNL     1      25.849   6.990  -4.581  1.00  0.00     0.189 HD
HETATM   51  N12 UNL     1      26.807   8.169  -2.387  1.00  0.00    -0.379 N 
HETATM   52  S2  UNL     1      25.058  10.053  -3.391  1.00  0.00    -0.027 SA
ATOM     53 2H12 UNL     1      27.330   7.296  -2.320  1.00  0.00     0.158 HD
ATOM     54 1H12 UNL     1      27.135   8.675  -1.563  1.00  0.00     0.158 HD
ENDBRANCH  44  45
ENDBRANCH  43  44
ENDBRANCH  36  43
ENDBRANCH  33  35
ENDBRANCH   1  31
BRANCH   1  55
HETATM   55  C21 UNL     1      22.346   5.761  -3.237  1.00  0.00     0.348 C 
BRANCH  55  56
HETATM   56  N15 UNL     1      22.321   7.137  -2.699  1.00  0.00    -0.051 N 
ATOM     57 3H15 UNL     1      22.401   7.153  -1.682  1.00  0.00     0.277 HD
ATOM     58 2H15 UNL     1      23.172   7.652  -2.923  1.00  0.00     0.277 HD
ATOM     59 1H15 UNL     1      21.483   7.619  -3.025  1.00  0.00     0.277 HD
ENDBRANCH  55  56
BRANCH  55  60
HETATM   60  O8  UNL     1      23.380   5.844  -4.225  1.00  0.00    -0.368 OA
ATOM     61  H8  UNL     1      24.069   5.251  -3.948  1.00  0.00     0.212 HD
ENDBRANCH  55  60
ENDBRANCH   1  55
TORSDOF 17
ENDMDL
