MODEL 1
REMARK VINA RESULT: -8.153477691      0.000      0.000
REMARK  11 active torsions:
REMARK  status: ('A' for Active; 'I' for Inactive)
REMARK    1  A    between atoms: C2_2  and  C3_3 
REMARK    2  A    between atoms: C3_3  and  C5_5 
REMARK    3  A    between atoms: C5_5  and  N1_6 
REMARK    4  A    between atoms: C5_5  and  C13_17 
REMARK       I    between atoms: N1_6  and  C6_8 
REMARK    5  A    between atoms: C6_8  and  C7_10 
REMARK    6  A    between atoms: C8_11  and  C9_12 
REMARK    7  A    between atoms: C13_17  and  C14_19 
REMARK       I    between atoms: C14_19  and  N2_21 
REMARK    8  A    between atoms: N2_21  and  C15_23 
REMARK    9  A    between atoms: C15_23  and  C16_24 
REMARK   10  A    between atoms: C15_23  and  C20_28 
REMARK   11  A    between atoms: C16_24  and  C17_25 
ROOT
HETATM    1  C5  UNL     1      31.447  42.125  39.166  1.00  0.00     0.168 C 
ENDROOT
BRANCH   1   2
HETATM    2  C3  UNL     1      32.160  40.942  38.584  1.00  0.00     0.012 C 
HETATM    3  C4  UNL     1      31.372  40.220  37.513  1.00  0.00     0.012 C 
BRANCH   2   4
HETATM    4  C2  UNL     1      33.556  41.253  38.140  1.00  0.00     0.002 C 
HETATM    5  C1  UNL     1      34.178  42.244  39.113  1.00  0.00     0.005 C 
ENDBRANCH   2   4
ENDBRANCH   1   2
BRANCH   1   6
HETATM    6  N1  UNL     1      30.612  42.679  38.094  1.00  0.00    -0.345 N 
HETATM    7  C6  UNL     1      30.974  43.872  37.422  1.00  0.00     0.241 C 
HETATM    8  O1  UNL     1      32.022  44.518  37.700  1.00  0.00    -0.269 OA
ATOM      9  H1  UNL     1      29.755  42.196  37.828  1.00  0.00     0.163 HD
BRANCH   7  10
HETATM   10  C7  UNL     1      30.115  44.382  36.373  1.00  0.00     0.071 C 
HETATM   11  C8  UNL     1      30.450  45.446  35.673  1.00  0.00    -0.006 C 
BRANCH  11  12
HETATM   12  C9  UNL     1      29.585  45.954  34.620  1.00  0.00     0.070 C 
HETATM   13  C10 UNL     1      30.374  46.395  33.381  1.00  0.00     0.020 C 
HETATM   14  C11 UNL     1      29.339  46.493  32.277  1.00  0.00     0.012 C 
HETATM   15  C12 UNL     1      28.759  45.092  32.105  1.00  0.00     0.074 C 
HETATM   16  S1  UNL     1      28.603  44.595  33.868  1.00  0.00    -0.160 SA
ENDBRANCH  11  12
ENDBRANCH   7  10
ENDBRANCH   1   6
BRANCH   1  17
HETATM   17  C13 UNL     1      30.608  41.802  40.348  1.00  0.00     0.239 C 
HETATM   18  O2  UNL     1      29.423  41.405  40.077  1.00  0.00    -0.285 OA
BRANCH  17  19
HETATM   19  C14 UNL     1      31.082  41.928  41.708  1.00  0.00     0.290 C 
HETATM   20  O3  UNL     1      30.319  42.432  42.559  1.00  0.00    -0.264 OA
HETATM   21  N2  UNL     1      32.358  41.503  42.084  1.00  0.00    -0.340 N 
ATOM     22  H2  UNL     1      32.944  41.102  41.353  1.00  0.00     0.163 HD
BRANCH  21  23
HETATM   23  C15 UNL     1      32.929  41.577  43.414  1.00  0.00     0.186 C 
BRANCH  23  24
HETATM   24  C16 UNL     1      34.297  41.010  43.488  1.00  0.00     0.040 C 
BRANCH  24  25
HETATM   25  C17 UNL     1      35.401  41.987  43.801  1.00  0.00    -0.020 C 
HETATM   26  C18 UNL     1      35.597  43.025  42.719  1.00  0.00     0.009 C 
HETATM   27  C19 UNL     1      36.745  41.227  43.855  1.00  0.00     0.009 C 
ENDBRANCH  24  25
ENDBRANCH  23  24
BRANCH  23  28
HETATM   28  C20 UNL     1      31.948  40.937  44.322  1.00  0.00     0.196 C 
HETATM   29  O4  UNL     1      31.599  39.737  44.231  1.00  0.00    -0.646 OA
HETATM   30  O5  UNL     1      31.342  41.650  45.354  1.00  0.00    -0.646 OA
ENDBRANCH  23  28
ENDBRANCH  21  23
ENDBRANCH  17  19
ENDBRANCH   1  17
TORSDOF 11
ENDMDL
MODEL 2
REMARK VINA RESULT: -8.150119201      1.959      2.551
REMARK  11 active torsions:
REMARK  status: ('A' for Active; 'I' for Inactive)
REMARK    1  A    between atoms: C2_2  and  C3_3 
REMARK    2  A    between atoms: C3_3  and  C5_5 
REMARK    3  A    between atoms: C5_5  and  N1_6 
REMARK    4  A    between atoms: C5_5  and  C13_17 
REMARK       I    between atoms: N1_6  and  C6_8 
REMARK    5  A    between atoms: C6_8  and  C7_10 
REMARK    6  A    between atoms: C8_11  and  C9_12 
REMARK    7  A    between atoms: C13_17  and  C14_19 
REMARK       I    between atoms: C14_19  and  N2_21 
REMARK    8  A    between atoms: N2_21  and  C15_23 
REMARK    9  A    between atoms: C15_23  and  C16_24 
REMARK   10  A    between atoms: C15_23  and  C20_28 
REMARK   11  A    between atoms: C16_24  and  C17_25 
ROOT
HETATM    1  C5  UNL     1      31.925  43.142  38.608  1.00  0.00     0.168 C 
ENDROOT
BRANCH   1   2
HETATM    2  C3  UNL     1      32.660  42.078  37.851  1.00  0.00     0.012 C 
HETATM    3  C4  UNL     1      34.126  41.972  38.213  1.00  0.00     0.012 C 
BRANCH   2   4
HETATM    4  C2  UNL     1      31.976  40.746  37.888  1.00  0.00     0.002 C 
HETATM    5  C1  UNL     1      32.983  39.681  38.293  1.00  0.00     0.005 C 
ENDBRANCH   2   4
ENDBRANCH   1   2
BRANCH   1   6
HETATM    6  N1  UNL     1      31.072  43.834  37.636  1.00  0.00    -0.345 N 
HETATM    7  C6  UNL     1      31.551  44.939  36.891  1.00  0.00     0.241 C 
HETATM    8  O1  UNL     1      32.724  45.386  37.017  1.00  0.00    -0.269 OA
ATOM      9  H1  UNL     1      30.115  43.512  37.494  1.00  0.00     0.163 HD
BRANCH   7  10
HETATM   10  C7  UNL     1      30.669  45.591  35.945  1.00  0.00     0.071 C 
HETATM   11  C8  UNL     1      31.140  46.397  35.015  1.00  0.00    -0.006 C 
BRANCH  11  12
HETATM   12  C9  UNL     1      30.252  47.049  34.068  1.00  0.00     0.070 C 
HETATM   13  C10 UNL     1      31.019  47.819  32.985  1.00  0.00     0.020 C 
HETATM   14  C11 UNL     1      30.000  48.070  31.891  1.00  0.00     0.012 C 
HETATM   15  C12 UNL     1      29.554  46.698  31.395  1.00  0.00     0.074 C 
HETATM   16  S1  UNL     1      29.412  45.811  32.999  1.00  0.00    -0.160 SA
ENDBRANCH  11  12
ENDBRANCH   7  10
ENDBRANCH   1   6
BRANCH   1  17
HETATM   17  C13 UNL     1      31.101  42.625  39.730  1.00  0.00     0.239 C 
HETATM   18  O2  UNL     1      29.837  42.717  39.559  1.00  0.00    -0.285 OA
BRANCH  17  19
HETATM   19  C14 UNL     1      31.672  42.060  40.932  1.00  0.00     0.290 C 
HETATM   20  O3  UNL     1      32.815  42.429  41.278  1.00  0.00    -0.264 OA
HETATM   21  N2  UNL     1      30.982  41.124  41.704  1.00  0.00    -0.340 N 
ATOM     22  H2  UNL     1      30.055  40.852  41.379  1.00  0.00     0.163 HD
BRANCH  21  23
HETATM   23  C15 UNL     1      31.457  40.501  42.924  1.00  0.00     0.186 C 
BRANCH  23  24
HETATM   24  C16 UNL     1      30.936  39.125  43.110  1.00  0.00     0.040 C 
BRANCH  24  25
HETATM   25  C17 UNL     1      31.974  38.041  43.256  1.00  0.00    -0.020 C 
HETATM   26  C18 UNL     1      32.500  37.911  44.668  1.00  0.00     0.009 C 
HETATM   27  C19 UNL     1      33.214  38.416  42.414  1.00  0.00     0.009 C 
ENDBRANCH  24  25
ENDBRANCH  23  24
BRANCH  23  28
HETATM   28  C20 UNL     1      31.125  41.438  44.023  1.00  0.00     0.196 C 
HETATM   29  O4  UNL     1      30.319  42.389  43.905  1.00  0.00    -0.646 OA
HETATM   30  O5  UNL     1      31.707  41.313  45.283  1.00  0.00    -0.646 OA
ENDBRANCH  23  28
ENDBRANCH  21  23
ENDBRANCH  17  19
ENDBRANCH   1  17
TORSDOF 11
ENDMDL
MODEL 3
REMARK VINA RESULT: -8.125693575      1.370      1.722
REMARK  11 active torsions:
REMARK  status: ('A' for Active; 'I' for Inactive)
REMARK    1  A    between atoms: C2_2  and  C3_3 
REMARK    2  A    between atoms: C3_3  and  C5_5 
REMARK    3  A    between atoms: C5_5  and  N1_6 
REMARK    4  A    between atoms: C5_5  and  C13_17 
REMARK       I    between atoms: N1_6  and  C6_8 
REMARK    5  A    between atoms: C6_8  and  C7_10 
REMARK    6  A    between atoms: C8_11  and  C9_12 
REMARK    7  A    between atoms: C13_17  and  C14_19 
REMARK       I    between atoms: C14_19  and  N2_21 
REMARK    8  A    between atoms: N2_21  and  C15_23 
REMARK    9  A    between atoms: C15_23  and  C16_24 
REMARK   10  A    between atoms: C15_23  and  C20_28 
REMARK   11  A    between atoms: C16_24  and  C17_25 
ROOT
HETATM    1  C5  UNL     1      32.015  40.663  38.801  1.00  0.00     0.168 C 
ENDROOT
BRANCH   1   2
HETATM    2  C3  UNL     1      31.765  39.343  38.137  1.00  0.00     0.012 C 
HETATM    3  C4  UNL     1      31.018  39.451  36.825  1.00  0.00     0.012 C 
BRANCH   2   4
HETATM    4  C2  UNL     1      32.997  38.501  38.013  1.00  0.00     0.002 C 
HETATM    5  C1  UNL     1      33.123  37.620  39.247  1.00  0.00     0.005 C 
ENDBRANCH   2   4
ENDBRANCH   1   2
BRANCH   1   6
HETATM    6  N1  UNL     1      31.340  41.677  37.984  1.00  0.00    -0.345 N 
HETATM    7  C6  UNL     1      32.014  42.849  37.562  1.00  0.00     0.241 C 
HETATM    8  O1  UNL     1      33.218  43.085  37.858  1.00  0.00    -0.269 OA
ATOM      9  H1  UNL     1      30.367  41.535  37.715  1.00  0.00     0.163 HD
BRANCH   7  10
HETATM   10  C7  UNL     1      31.304  43.824  36.759  1.00  0.00     0.071 C 
HETATM   11  C8  UNL     1      29.988  43.838  36.709  1.00  0.00    -0.006 C 
BRANCH  11  12
HETATM   12  C9  UNL     1      29.278  44.817  35.902  1.00  0.00     0.070 C 
HETATM   13  C10 UNL     1      30.233  45.754  35.151  1.00  0.00     0.020 C 
HETATM   14  C11 UNL     1      29.377  46.403  34.081  1.00  0.00     0.012 C 
HETATM   15  C12 UNL     1      28.878  45.273  33.185  1.00  0.00     0.074 C 
HETATM   16  S1  UNL     1      28.469  44.014  34.461  1.00  0.00    -0.160 SA
ENDBRANCH  11  12
ENDBRANCH   7  10
ENDBRANCH   1   6
BRANCH   1  17
HETATM   17  C13 UNL     1      31.528  40.734  40.203  1.00  0.00     0.239 C 
HETATM   18  O2  UNL     1      30.412  40.149  40.418  1.00  0.00    -0.285 OA
BRANCH  17  19
HETATM   19  C14 UNL     1      32.252  41.414  41.253  1.00  0.00     0.290 C 
HETATM   20  O3  UNL     1      32.676  42.568  41.033  1.00  0.00    -0.264 OA
HETATM   21  N2  UNL     1      32.483  40.815  42.493  1.00  0.00    -0.340 N 
ATOM     22  H2  UNL     1      32.121  39.871  42.624  1.00  0.00     0.163 HD
BRANCH  21  23
HETATM   23  C15 UNL     1      33.189  41.406  43.613  1.00  0.00     0.186 C 
BRANCH  23  24
HETATM   24  C16 UNL     1      34.561  40.870  43.779  1.00  0.00     0.040 C 
BRANCH  24  25
HETATM   25  C17 UNL     1      35.654  41.893  43.954  1.00  0.00    -0.020 C 
HETATM   26  C18 UNL     1      35.660  42.944  42.866  1.00  0.00     0.009 C 
HETATM   27  C19 UNL     1      37.025  41.192  43.821  1.00  0.00     0.009 C 
ENDBRANCH  24  25
ENDBRANCH  23  24
BRANCH  23  28
HETATM   28  C20 UNL     1      32.313  41.230  44.795  1.00  0.00     0.196 C 
HETATM   29  O4  UNL     1      32.680  40.670  45.853  1.00  0.00    -0.646 OA
HETATM   30  O5  UNL     1      30.997  41.687  44.797  1.00  0.00    -0.646 OA
ENDBRANCH  23  28
ENDBRANCH  21  23
ENDBRANCH  17  19
ENDBRANCH   1  17
TORSDOF 11
ENDMDL
MODEL 4
REMARK VINA RESULT: -8.059941001      3.080      9.136
REMARK  11 active torsions:
REMARK  status: ('A' for Active; 'I' for Inactive)
REMARK    1  A    between atoms: C2_2  and  C3_3 
REMARK    2  A    between atoms: C3_3  and  C5_5 
REMARK    3  A    between atoms: C5_5  and  N1_6 
REMARK    4  A    between atoms: C5_5  and  C13_17 
REMARK       I    between atoms: N1_6  and  C6_8 
REMARK    5  A    between atoms: C6_8  and  C7_10 
REMARK    6  A    between atoms: C8_11  and  C9_12 
REMARK    7  A    between atoms: C13_17  and  C14_19 
REMARK       I    between atoms: C14_19  and  N2_21 
REMARK    8  A    between atoms: N2_21  and  C15_23 
REMARK    9  A    between atoms: C15_23  and  C16_24 
REMARK   10  A    between atoms: C15_23  and  C20_28 
REMARK   11  A    between atoms: C16_24  and  C17_25 
ROOT
HETATM    1  C5  UNL     1      30.869  42.237  38.409  1.00  0.00     0.168 C 
ENDROOT
BRANCH   1   2
HETATM    2  C3  UNL     1      31.882  41.419  37.668  1.00  0.00     0.012 C 
HETATM    3  C4  UNL     1      33.300  41.610  38.160  1.00  0.00     0.012 C 
BRANCH   2   4
HETATM    4  C2  UNL     1      31.513  39.971  37.567  1.00  0.00     0.002 C 
HETATM    5  C1  UNL     1      32.544  39.143  38.320  1.00  0.00     0.005 C 
ENDBRANCH   2   4
ENDBRANCH   1   2
BRANCH   1   6
HETATM    6  N1  UNL     1      31.307  42.280  39.808  1.00  0.00    -0.345 N 
HETATM    7  C6  UNL     1      30.626  41.553  40.815  1.00  0.00     0.241 C 
HETATM    8  O1  UNL     1      29.618  40.834  40.570  1.00  0.00    -0.269 OA
ATOM      9  H1  UNL     1      32.118  42.844  40.060  1.00  0.00     0.163 HD
BRANCH   7  10
HETATM   10  C7  UNL     1      31.095  41.629  42.183  1.00  0.00     0.071 C 
HETATM   11  C8  UNL     1      32.381  41.582  42.468  1.00  0.00    -0.006 C 
BRANCH  11  12
HETATM   12  C9  UNL     1      32.848  41.659  43.842  1.00  0.00     0.070 C 
HETATM   13  C10 UNL     1      32.877  40.286  44.525  1.00  0.00     0.020 C 
HETATM   14  C11 UNL     1      33.749  40.480  45.751  1.00  0.00     0.012 C 
HETATM   15  C12 UNL     1      35.129  40.881  45.237  1.00  0.00     0.074 C 
HETATM   16  S1  UNL     1      34.644  42.047  43.901  1.00  0.00    -0.160 SA
ENDBRANCH  11  12
ENDBRANCH   7  10
ENDBRANCH   1   6
BRANCH   1  17
HETATM   17  C13 UNL     1      30.708  43.618  37.885  1.00  0.00     0.239 C 
HETATM   18  O2  UNL     1      31.651  44.425  38.192  1.00  0.00    -0.285 OA
BRANCH  17  19
HETATM   19  C14 UNL     1      29.573  44.031  37.091  1.00  0.00     0.290 C 
HETATM   20  O3  UNL     1      28.575  43.282  37.044  1.00  0.00    -0.264 OA
HETATM   21  N2  UNL     1      29.570  45.236  36.385  1.00  0.00    -0.340 N 
ATOM     22  H2  UNL     1      30.409  45.811  36.452  1.00  0.00     0.163 HD
BRANCH  21  23
HETATM   23  C15 UNL     1      28.488  45.747  35.566  1.00  0.00     0.186 C 
BRANCH  23  24
HETATM   24  C16 UNL     1      28.937  46.176  34.219  1.00  0.00     0.040 C 
BRANCH  24  25
HETATM   25  C17 UNL     1      29.270  45.071  33.250  1.00  0.00    -0.020 C 
HETATM   26  C18 UNL     1      29.061  45.466  31.806  1.00  0.00     0.009 C 
HETATM   27  C19 UNL     1      28.292  43.895  33.474  1.00  0.00     0.009 C 
ENDBRANCH  24  25
ENDBRANCH  23  24
BRANCH  23  28
HETATM   28  C20 UNL     1      27.832  46.810  36.363  1.00  0.00     0.196 C 
HETATM   29  O4  UNL     1      26.671  47.225  36.142  1.00  0.00    -0.646 OA
HETATM   30  O5  UNL     1      28.485  47.425  37.429  1.00  0.00    -0.646 OA
ENDBRANCH  23  28
ENDBRANCH  21  23
ENDBRANCH  17  19
ENDBRANCH   1  17
TORSDOF 11
ENDMDL
MODEL 5
REMARK VINA RESULT: -7.990439954      3.204      9.118
REMARK  11 active torsions:
REMARK  status: ('A' for Active; 'I' for Inactive)
REMARK    1  A    between atoms: C2_2  and  C3_3 
REMARK    2  A    between atoms: C3_3  and  C5_5 
REMARK    3  A    between atoms: C5_5  and  N1_6 
REMARK    4  A    between atoms: C5_5  and  C13_17 
REMARK       I    between atoms: N1_6  and  C6_8 
REMARK    5  A    between atoms: C6_8  and  C7_10 
REMARK    6  A    between atoms: C8_11  and  C9_12 
REMARK    7  A    between atoms: C13_17  and  C14_19 
REMARK       I    between atoms: C14_19  and  N2_21 
REMARK    8  A    between atoms: N2_21  and  C15_23 
REMARK    9  A    between atoms: C15_23  and  C16_24 
REMARK   10  A    between atoms: C15_23  and  C20_28 
REMARK   11  A    between atoms: C16_24  and  C17_25 
ROOT
HETATM    1  C5  UNL     1      30.583  42.415  38.504  1.00  0.00     0.168 C 
ENDROOT
BRANCH   1   2
HETATM    2  C3  UNL     1      31.792  42.412  37.620  1.00  0.00     0.012 C 
HETATM    3  C4  UNL     1      32.500  43.748  37.547  1.00  0.00     0.012 C 
BRANCH   2   4
HETATM    4  C2  UNL     1      32.740  41.291  37.917  1.00  0.00     0.002 C 
HETATM    5  C1  UNL     1      34.121  41.867  38.188  1.00  0.00     0.005 C 
ENDBRANCH   2   4
ENDBRANCH   1   2
BRANCH   1   6
HETATM    6  N1  UNL     1      31.066  42.210  39.874  1.00  0.00    -0.345 N 
HETATM    7  C6  UNL     1      30.297  41.497  40.827  1.00  0.00     0.241 C 
HETATM    8  O1  UNL     1      29.169  41.002  40.556  1.00  0.00    -0.269 OA
ATOM      9  H1  UNL     1      31.973  42.588  40.146  1.00  0.00     0.163 HD
BRANCH   7  10
HETATM   10  C7  UNL     1      30.816  41.324  42.168  1.00  0.00     0.071 C 
HETATM   11  C8  UNL     1      32.039  41.699  42.481  1.00  0.00    -0.006 C 
BRANCH  11  12
HETATM   12  C9  UNL     1      32.557  41.524  43.828  1.00  0.00     0.070 C 
HETATM   13  C10 UNL     1      32.552  40.054  44.267  1.00  0.00     0.020 C 
HETATM   14  C11 UNL     1      33.473  40.005  45.471  1.00  0.00     0.012 C 
HETATM   15  C12 UNL     1      34.850  40.439  44.976  1.00  0.00     0.074 C 
HETATM   16  S1  UNL     1      34.368  41.833  43.879  1.00  0.00    -0.160 SA
ENDBRANCH  11  12
ENDBRANCH   7  10
ENDBRANCH   1   6
BRANCH   1  17
HETATM   17  C13 UNL     1      29.783  43.664  38.430  1.00  0.00     0.239 C 
HETATM   18  O2  UNL     1      29.739  44.343  39.512  1.00  0.00    -0.285 OA
BRANCH  17  19
HETATM   19  C14 UNL     1      29.097  44.089  37.230  1.00  0.00     0.290 C 
HETATM   20  O3  UNL     1      28.403  43.253  36.614  1.00  0.00    -0.264 OA
HETATM   21  N2  UNL     1      29.193  45.398  36.753  1.00  0.00    -0.340 N 
ATOM     22  H2  UNL     1      29.775  46.042  37.288  1.00  0.00     0.163 HD
BRANCH  21  23
HETATM   23  C15 UNL     1      28.546  45.929  35.570  1.00  0.00     0.186 C 
BRANCH  23  24
HETATM   24  C16 UNL     1      29.510  46.392  34.543  1.00  0.00     0.040 C 
BRANCH  24  25
HETATM   25  C17 UNL     1      29.662  45.507  33.332  1.00  0.00    -0.020 C 
HETATM   26  C18 UNL     1      29.511  46.258  32.027  1.00  0.00     0.009 C 
HETATM   27  C19 UNL     1      28.514  44.473  33.318  1.00  0.00     0.009 C 
ENDBRANCH  24  25
ENDBRANCH  23  24
BRANCH  23  28
HETATM   28  C20 UNL     1      27.605  46.970  36.044  1.00  0.00     0.196 C 
HETATM   29  O4  UNL     1      26.359  46.865  35.968  1.00  0.00    -0.646 OA
HETATM   30  O5  UNL     1      28.062  48.156  36.615  1.00  0.00    -0.646 OA
ENDBRANCH  23  28
ENDBRANCH  21  23
ENDBRANCH  17  19
ENDBRANCH   1  17
TORSDOF 11
ENDMDL
