MODEL 1
REMARK VINA RESULT: -7.275355309      0.000      0.000
REMARK  10 active torsions:
REMARK  status: ('A' for Active; 'I' for Inactive)
REMARK    1  A    between atoms: N1_2  and  C2_5 
REMARK    2  A    between atoms: C2_5  and  C3_6 
REMARK    3  A    between atoms: C2_5  and  C19_33 
REMARK       I    between atoms: C3_6  and  N2_8 
REMARK    4  A    between atoms: N2_8  and  C4_10 
REMARK    5  A    between atoms: C4_10  and  C5_11 
REMARK    6  A    between atoms: C4_10  and  C16_30 
REMARK    7  A    between atoms: C5_11  and  C6_13 
REMARK    8  A    between atoms: C6_13  and  N3_14 
REMARK    9  A    between atoms: C7_15  and  C8_16 
REMARK   10  A    between atoms: C12_26  and  C13_27 
ROOT
HETATM    1  C5  UNL     1      32.792  46.122  36.254  1.00  0.00     0.177 C 
HETATM    2  O2  UNL     1      33.673  45.946  37.078  1.00  0.00    -0.294 OA
ENDROOT
BRANCH   1   3
HETATM    3  C4  UNL     1      32.924  47.275  35.347  1.00  0.00     0.159 C 
BRANCH   3   4
HETATM    4  N2  UNL     1      32.194  46.908  34.122  1.00  0.00    -0.347 N 
HETATM    5  C3  UNL     1      30.918  47.404  33.817  1.00  0.00     0.249 C 
HETATM    6  O1  UNL     1      30.413  48.205  34.676  1.00  0.00    -0.271 OA
ATOM      7  H2  UNL     1      32.635  46.263  33.467  1.00  0.00     0.163 HD
BRANCH   5   8
HETATM    8  C2  UNL     1      30.134  47.090  32.627  1.00  0.00     0.279 C 
BRANCH   8   9
HETATM    9  N1  UNL     1      30.647  47.823  31.457  1.00  0.00    -0.066 N 
HETATM   10  C1  UNL     1      29.657  48.563  30.758  1.00  0.00     0.267 C 
ATOM     11  H12 UNL     1      31.133  47.189  30.822  1.00  0.00     0.277 HD
ATOM     12  H11 UNL     1      31.423  48.427  31.725  1.00  0.00     0.277 HD
ENDBRANCH   8   9
BRANCH   8  13
HETATM   13  C19 UNL     1      30.096  45.628  32.245  1.00  0.00     0.017 C 
HETATM   14  C20 UNL     1      31.005  45.515  31.008  1.00  0.00     0.012 C 
HETATM   15  C21 UNL     1      28.759  45.081  31.915  1.00  0.00     0.012 C 
ENDBRANCH   8  13
ENDBRANCH   5   8
ENDBRANCH   3   4
BRANCH   3  16
HETATM   16  C16 UNL     1      34.301  47.697  34.989  1.00  0.00     0.007 C 
HETATM   17  C17 UNL     1      34.511  49.156  34.851  1.00  0.00     0.012 C 
HETATM   18  C18 UNL     1      34.635  47.067  33.627  1.00  0.00     0.012 C 
ENDBRANCH   3  16
ENDBRANCH   1   3
BRANCH   1  19
HETATM   19  C6  UNL     1      31.663  45.203  36.188  1.00  0.00     0.354 C 
BRANCH  19  20
HETATM   20  N3  UNL     1      31.221  44.727  37.509  1.00  0.00     0.111 N 
HETATM   21  C7  UNL     1      29.775  44.636  37.498  1.00  0.00     0.276 C 
HETATM   22  C10 UNL     1      29.432  43.455  36.654  1.00  0.00     0.044 C 
HETATM   23  C11 UNL     1      30.596  42.514  36.942  1.00  0.00     0.038 C 
HETATM   24  C12 UNL     1      31.618  43.351  37.705  1.00  0.00     0.228 C 
BRANCH  21  25
HETATM   25  C8  UNL     1      29.091  45.876  37.108  1.00  0.00     0.077 A 
HETATM   26  C9  UNL     1      28.088  45.968  36.173  1.00  0.00     0.137 A 
HETATM   27  N4  UNL     1      27.720  47.269  36.113  1.00  0.00    -0.296 N 
HETATM   28  N5  UNL     1      28.450  47.959  36.962  1.00  0.00    -0.243 N 
ATOM     29  H4  UNL     1      26.994  47.652  35.507  1.00  0.00     0.187 HD
HETATM   30  N6  UNL     1      29.285  47.115  37.569  1.00  0.00    -0.287 N 
ATOM     31  H5  UNL     1      28.388  48.964  37.126  1.00  0.00     0.208 HD
ATOM     32  H6  UNL     1      29.969  47.376  38.279  1.00  0.00     0.188 HD
ENDBRANCH  21  25
BRANCH  24  33
HETATM   33  C13 UNL     1      31.520  42.991  39.146  1.00  0.00     0.011 C 
HETATM   34  C14 UNL     1      30.947  41.567  39.188  1.00  0.00     0.011 C 
HETATM   35  C15 UNL     1      32.815  43.060  39.913  1.00  0.00     0.011 C 
ENDBRANCH  24  33
ENDBRANCH  19  20
ENDBRANCH   1  19
TORSDOF 10
ENDMDL
MODEL 2
REMARK VINA RESULT: -7.122366146      1.660      4.104
REMARK  10 active torsions:
REMARK  status: ('A' for Active; 'I' for Inactive)
REMARK    1  A    between atoms: N1_2  and  C2_5 
REMARK    2  A    between atoms: C2_5  and  C3_6 
REMARK    3  A    between atoms: C2_5  and  C19_33 
REMARK       I    between atoms: C3_6  and  N2_8 
REMARK    4  A    between atoms: N2_8  and  C4_10 
REMARK    5  A    between atoms: C4_10  and  C5_11 
REMARK    6  A    between atoms: C4_10  and  C16_30 
REMARK    7  A    between atoms: C5_11  and  C6_13 
REMARK    8  A    between atoms: C6_13  and  N3_14 
REMARK    9  A    between atoms: C7_15  and  C8_16 
REMARK   10  A    between atoms: C12_26  and  C13_27 
ROOT
HETATM    1  C5  UNL     1      30.497  47.082  34.629  1.00  0.00     0.177 C 
HETATM    2  O2  UNL     1      30.086  48.163  35.017  1.00  0.00    -0.294 OA
ENDROOT
BRANCH   1   3
HETATM    3  C4  UNL     1      31.565  47.082  33.614  1.00  0.00     0.159 C 
BRANCH   3   4
HETATM    4  N2  UNL     1      32.378  48.278  33.888  1.00  0.00    -0.347 N 
HETATM    5  C3  UNL     1      33.567  48.238  34.631  1.00  0.00     0.249 C 
HETATM    6  O1  UNL     1      33.911  47.087  35.067  1.00  0.00    -0.271 OA
ATOM      7  H2  UNL     1      32.063  49.176  33.522  1.00  0.00     0.163 HD
BRANCH   5   8
HETATM    8  C2  UNL     1      34.427  49.375  34.942  1.00  0.00     0.279 C 
BRANCH   8   9
HETATM    9  N1  UNL     1      35.346  49.654  33.826  1.00  0.00    -0.066 N 
HETATM   10  C1  UNL     1      36.618  49.037  33.956  1.00  0.00     0.267 C 
ATOM     11  H12 UNL     1      35.450  50.660  33.690  1.00  0.00     0.277 HD
ATOM     12  H11 UNL     1      34.915  49.403  32.936  1.00  0.00     0.277 HD
ENDBRANCH   8   9
BRANCH   8  13
HETATM   13  C19 UNL     1      33.704  50.668  35.247  1.00  0.00     0.017 C 
HETATM   14  C20 UNL     1      33.922  51.549  34.003  1.00  0.00     0.012 C 
HETATM   15  C21 UNL     1      34.169  51.401  36.447  1.00  0.00     0.012 C 
ENDBRANCH   8  13
ENDBRANCH   5   8
ENDBRANCH   3   4
BRANCH   3  16
HETATM   16  C16 UNL     1      31.143  47.092  32.192  1.00  0.00     0.007 C 
HETATM   17  C17 UNL     1      30.178  48.149  31.814  1.00  0.00     0.012 C 
HETATM   18  C18 UNL     1      30.464  45.744  31.904  1.00  0.00     0.012 C 
ENDBRANCH   3  16
ENDBRANCH   1   3
BRANCH   1  19
HETATM   19  C6  UNL     1      29.937  45.852  35.172  1.00  0.00     0.354 C 
BRANCH  19  20
HETATM   20  N3  UNL     1      30.515  45.472  36.471  1.00  0.00     0.111 N 
HETATM   21  C7  UNL     1      29.435  45.340  37.428  1.00  0.00     0.276 C 
HETATM   22  C10 UNL     1      28.708  44.086  37.076  1.00  0.00     0.044 C 
HETATM   23  C11 UNL     1      29.838  43.204  36.557  1.00  0.00     0.038 C 
HETATM   24  C12 UNL     1      31.043  44.128  36.412  1.00  0.00     0.228 C 
BRANCH  21  25
HETATM   25  C8  UNL     1      28.574  46.526  37.538  1.00  0.00     0.077 A 
HETATM   26  C9  UNL     1      28.594  47.426  38.576  1.00  0.00     0.137 A 
HETATM   27  N4  UNL     1      27.668  48.373  38.298  1.00  0.00    -0.296 N 
HETATM   28  N5  UNL     1      27.096  48.086  37.150  1.00  0.00    -0.243 N 
ATOM     29  H4  UNL     1      27.449  49.178  38.885  1.00  0.00     0.187 HD
HETATM   30  N6  UNL     1      27.645  46.964  36.684  1.00  0.00    -0.287 N 
ATOM     31  H5  UNL     1      26.361  48.628  36.695  1.00  0.00     0.208 HD
ATOM     32  H6  UNL     1      27.393  46.508  35.807  1.00  0.00     0.188 HD
ENDBRANCH  21  25
BRANCH  24  33
HETATM   33  C13 UNL     1      31.949  43.882  37.567  1.00  0.00     0.011 C 
HETATM   34  C14 UNL     1      32.247  42.376  37.558  1.00  0.00     0.011 C 
HETATM   35  C15 UNL     1      33.232  44.672  37.554  1.00  0.00     0.011 C 
ENDBRANCH  24  33
ENDBRANCH  19  20
ENDBRANCH   1  19
TORSDOF 10
ENDMDL
MODEL 3
REMARK VINA RESULT: -7.058581063      2.296      6.110
REMARK  10 active torsions:
REMARK  status: ('A' for Active; 'I' for Inactive)
REMARK    1  A    between atoms: N1_2  and  C2_5 
REMARK    2  A    between atoms: C2_5  and  C3_6 
REMARK    3  A    between atoms: C2_5  and  C19_33 
REMARK       I    between atoms: C3_6  and  N2_8 
REMARK    4  A    between atoms: N2_8  and  C4_10 
REMARK    5  A    between atoms: C4_10  and  C5_11 
REMARK    6  A    between atoms: C4_10  and  C16_30 
REMARK    7  A    between atoms: C5_11  and  C6_13 
REMARK    8  A    between atoms: C6_13  and  N3_14 
REMARK    9  A    between atoms: C7_15  and  C8_16 
REMARK   10  A    between atoms: C12_26  and  C13_27 
ROOT
HETATM    1  C5  UNL     1      31.270  48.775  33.769  1.00  0.00     0.177 C 
HETATM    2  O2  UNL     1      31.021  49.960  33.624  1.00  0.00    -0.294 OA
ENDROOT
BRANCH   1   3
HETATM    3  C4  UNL     1      30.409  47.806  33.069  1.00  0.00     0.159 C 
BRANCH   3   4
HETATM    4  N2  UNL     1      30.604  46.522  33.764  1.00  0.00    -0.347 N 
HETATM    5  C3  UNL     1      29.766  46.080  34.797  1.00  0.00     0.249 C 
HETATM    6  O1  UNL     1      28.809  46.866  35.112  1.00  0.00    -0.271 OA
ATOM      7  H2  UNL     1      31.383  45.928  33.481  1.00  0.00     0.163 HD
BRANCH   5   8
HETATM    8  C2  UNL     1      29.892  44.824  35.531  1.00  0.00     0.279 C 
BRANCH   8   9
HETATM    9  N1  UNL     1      30.487  45.054  36.859  1.00  0.00    -0.066 N 
HETATM   10  C1  UNL     1      31.889  45.279  36.833  1.00  0.00     0.267 C 
ATOM     11  H12 UNL     1      30.260  44.287  37.491  1.00  0.00     0.277 HD
ATOM     12  H11 UNL     1      30.010  45.819  37.337  1.00  0.00     0.277 HD
ENDBRANCH   8   9
BRANCH   8  13
HETATM   13  C19 UNL     1      28.599  44.075  35.756  1.00  0.00     0.017 C 
HETATM   14  C20 UNL     1      28.601  43.717  37.253  1.00  0.00     0.012 C 
HETATM   15  C21 UNL     1      28.423  42.837  34.961  1.00  0.00     0.012 C 
ENDBRANCH   8  13
ENDBRANCH   5   8
ENDBRANCH   3   4
BRANCH   3  16
HETATM   16  C16 UNL     1      30.648  47.617  31.617  1.00  0.00     0.007 C 
HETATM   17  C17 UNL     1      29.563  48.078  30.721  1.00  0.00     0.012 C 
HETATM   18  C18 UNL     1      30.822  46.111  31.370  1.00  0.00     0.012 C 
ENDBRANCH   3  16
ENDBRANCH   1   3
BRANCH   1  19
HETATM   19  C6  UNL     1      32.389  48.363  34.606  1.00  0.00     0.354 C 
BRANCH  19  20
HETATM   20  N3  UNL     1      33.666  48.293  33.878  1.00  0.00     0.111 N 
HETATM   21  C7  UNL     1      34.637  49.102  34.588  1.00  0.00     0.276 C 
HETATM   22  C10 UNL     1      34.989  48.351  35.828  1.00  0.00     0.044 C 
HETATM   23  C11 UNL     1      34.888  46.904  35.357  1.00  0.00     0.038 C 
HETATM   24  C12 UNL     1      34.232  46.967  33.982  1.00  0.00     0.228 C 
BRANCH  21  25
HETATM   25  C8  UNL     1      34.216  50.490  34.821  1.00  0.00     0.077 A 
HETATM   26  C9  UNL     1      34.221  51.125  36.040  1.00  0.00     0.137 A 
HETATM   27  N4  UNL     1      33.777  52.387  35.830  1.00  0.00    -0.296 N 
HETATM   28  N5  UNL     1      33.507  52.538  34.553  1.00  0.00    -0.243 N 
ATOM     29  H4  UNL     1      33.669  53.103  36.548  1.00  0.00     0.187 HD
HETATM   30  N6  UNL     1      33.773  51.387  33.935  1.00  0.00    -0.287 N 
ATOM     31  H5  UNL     1      33.156  53.389  34.111  1.00  0.00     0.208 HD
ATOM     32  H6  UNL     1      33.657  51.216  32.937  1.00  0.00     0.188 HD
ENDBRANCH  21  25
BRANCH  24  33
HETATM   33  C13 UNL     1      35.296  46.783  32.958  1.00  0.00     0.011 C 
HETATM   34  C14 UNL     1      36.366  45.898  33.615  1.00  0.00     0.011 C 
HETATM   35  C15 UNL     1      34.837  46.177  31.658  1.00  0.00     0.011 C 
ENDBRANCH  24  33
ENDBRANCH  19  20
ENDBRANCH   1  19
TORSDOF 10
ENDMDL
MODEL 4
REMARK VINA RESULT: -7.027540490      2.959      7.898
REMARK  10 active torsions:
REMARK  status: ('A' for Active; 'I' for Inactive)
REMARK    1  A    between atoms: N1_2  and  C2_5 
REMARK    2  A    between atoms: C2_5  and  C3_6 
REMARK    3  A    between atoms: C2_5  and  C19_33 
REMARK       I    between atoms: C3_6  and  N2_8 
REMARK    4  A    between atoms: N2_8  and  C4_10 
REMARK    5  A    between atoms: C4_10  and  C5_11 
REMARK    6  A    between atoms: C4_10  and  C16_30 
REMARK    7  A    between atoms: C5_11  and  C6_13 
REMARK    8  A    between atoms: C6_13  and  N3_14 
REMARK    9  A    between atoms: C7_15  and  C8_16 
REMARK   10  A    between atoms: C12_26  and  C13_27 
ROOT
HETATM    1  C5  UNL     1      30.598  43.931  38.279  1.00  0.00     0.177 C 
HETATM    2  O2  UNL     1      29.879  44.488  39.091  1.00  0.00    -0.294 OA
ENDROOT
BRANCH   1   3
HETATM    3  C4  UNL     1      31.046  42.562  38.588  1.00  0.00     0.159 C 
BRANCH   3   4
HETATM    4  N2  UNL     1      31.913  42.681  39.773  1.00  0.00    -0.347 N 
HETATM    5  C3  UNL     1      31.791  41.848  40.893  1.00  0.00     0.249 C 
HETATM    6  O1  UNL     1      30.869  40.964  40.832  1.00  0.00    -0.271 OA
ATOM      7  H2  UNL     1      32.633  43.403  39.778  1.00  0.00     0.163 HD
BRANCH   5   8
HETATM    8  C2  UNL     1      32.609  41.902  42.100  1.00  0.00     0.279 C 
BRANCH   8   9
HETATM    9  N1  UNL     1      32.205  40.852  43.051  1.00  0.00    -0.066 N 
HETATM   10  C1  UNL     1      31.610  41.348  44.242  1.00  0.00     0.267 C 
ATOM     11  H12 UNL     1      32.995  40.246  43.272  1.00  0.00     0.277 HD
ATOM     12  H11 UNL     1      31.590  40.176  42.598  1.00  0.00     0.277 HD
ENDBRANCH   8   9
BRANCH   8  13
HETATM   13  C19 UNL     1      34.097  41.743  41.881  1.00  0.00     0.017 C 
HETATM   14  C20 UNL     1      34.367  40.238  42.055  1.00  0.00     0.012 C 
HETATM   15  C21 UNL     1      34.971  42.503  42.805  1.00  0.00     0.012 C 
ENDBRANCH   8  13
ENDBRANCH   5   8
ENDBRANCH   3   4
BRANCH   3  16
HETATM   16  C16 UNL     1      31.774  41.833  37.520  1.00  0.00     0.007 C 
HETATM   17  C17 UNL     1      31.423  40.403  37.363  1.00  0.00     0.012 C 
HETATM   18  C18 UNL     1      33.271  41.891  37.862  1.00  0.00     0.012 C 
ENDBRANCH   3  16
ENDBRANCH   1   3
BRANCH   1  19
HETATM   19  C6  UNL     1      30.981  44.618  37.053  1.00  0.00     0.354 C 
BRANCH  19  20
HETATM   20  N3  UNL     1      30.442  45.985  36.958  1.00  0.00     0.111 N 
HETATM   21  C7  UNL     1      30.982  46.604  35.765  1.00  0.00     0.276 C 
HETATM   22  C10 UNL     1      30.298  45.960  34.606  1.00  0.00     0.044 C 
HETATM   23  C11 UNL     1      28.912  45.682  35.175  1.00  0.00     0.038 C 
HETATM   24  C12 UNL     1      29.025  45.946  36.673  1.00  0.00     0.228 C 
BRANCH  21  25
HETATM   25  C8  UNL     1      32.449  46.589  35.685  1.00  0.00     0.077 A 
HETATM   26  C9  UNL     1      33.187  46.929  34.576  1.00  0.00     0.137 A 
HETATM   27  N4  UNL     1      34.491  46.797  34.912  1.00  0.00    -0.296 N 
HETATM   28  N5  UNL     1      34.572  46.396  36.161  1.00  0.00    -0.243 N 
ATOM     29  H4  UNL     1      35.283  46.979  34.295  1.00  0.00     0.187 HD
HETATM   30  N6  UNL     1      33.332  46.269  36.635  1.00  0.00    -0.287 N 
ATOM     31  H5  UNL     1      35.433  46.214  36.678  1.00  0.00     0.208 HD
ATOM     32  H6  UNL     1      33.094  45.971  37.581  1.00  0.00     0.188 HD
ENDBRANCH  21  25
BRANCH  24  33
HETATM   33  C13 UNL     1      28.411  47.274  36.951  1.00  0.00     0.011 C 
HETATM   34  C14 UNL     1      26.997  47.218  36.355  1.00  0.00     0.011 C 
HETATM   35  C15 UNL     1      28.354  47.661  38.406  1.00  0.00     0.011 C 
ENDBRANCH  24  33
ENDBRANCH  19  20
ENDBRANCH   1  19
TORSDOF 10
ENDMDL
MODEL 5
REMARK VINA RESULT: -6.990722317      2.289      6.119
REMARK  10 active torsions:
REMARK  status: ('A' for Active; 'I' for Inactive)
REMARK    1  A    between atoms: N1_2  and  C2_5 
REMARK    2  A    between atoms: C2_5  and  C3_6 
REMARK    3  A    between atoms: C2_5  and  C19_33 
REMARK       I    between atoms: C3_6  and  N2_8 
REMARK    4  A    between atoms: N2_8  and  C4_10 
REMARK    5  A    between atoms: C4_10  and  C5_11 
REMARK    6  A    between atoms: C4_10  and  C16_30 
REMARK    7  A    between atoms: C5_11  and  C6_13 
REMARK    8  A    between atoms: C6_13  and  N3_14 
REMARK    9  A    between atoms: C7_15  and  C8_16 
REMARK   10  A    between atoms: C12_26  and  C13_27 
ROOT
HETATM    1  C5  UNL     1      31.222  48.611  33.875  1.00  0.00     0.177 C 
HETATM    2  O2  UNL     1      30.996  49.781  33.616  1.00  0.00    -0.294 OA
ENDROOT
BRANCH   1   3
HETATM    3  C4  UNL     1      30.291  47.601  33.343  1.00  0.00     0.159 C 
BRANCH   3   4
HETATM    4  N2  UNL     1      30.345  46.470  34.285  1.00  0.00    -0.347 N 
HETATM    5  C3  UNL     1      29.446  46.322  35.351  1.00  0.00     0.249 C 
HETATM    6  O1  UNL     1      28.562  47.239  35.465  1.00  0.00    -0.271 OA
ATOM      7  H2  UNL     1      31.068  45.764  34.156  1.00  0.00     0.163 HD
BRANCH   5   8
HETATM    8  C2  UNL     1      29.433  45.232  36.322  1.00  0.00     0.279 C 
BRANCH   8   9
HETATM    9  N1  UNL     1      28.362  44.270  36.010  1.00  0.00    -0.066 N 
HETATM   10  C1  UNL     1      28.340  43.847  34.655  1.00  0.00     0.267 C 
ATOM     11  H12 UNL     1      27.453  44.644  36.283  1.00  0.00     0.277 HD
ATOM     12  H11 UNL     1      28.412  43.465  36.636  1.00  0.00     0.277 HD
ENDBRANCH   8   9
BRANCH   8  13
HETATM   13  C19 UNL     1      30.717  44.440  36.422  1.00  0.00     0.017 C 
HETATM   14  C20 UNL     1      30.407  43.303  37.412  1.00  0.00     0.012 C 
HETATM   15  C21 UNL     1      31.902  45.190  36.899  1.00  0.00     0.012 C 
ENDBRANCH   8  13
ENDBRANCH   5   8
ENDBRANCH   3   4
BRANCH   3  16
HETATM   16  C16 UNL     1      30.546  47.106  31.968  1.00  0.00     0.007 C 
HETATM   17  C17 UNL     1      29.788  47.781  30.890  1.00  0.00     0.012 C 
HETATM   18  C18 UNL     1      30.148  45.622  31.932  1.00  0.00     0.012 C 
ENDBRANCH   3  16
ENDBRANCH   1   3
BRANCH   1  19
HETATM   19  C6  UNL     1      32.383  48.253  34.680  1.00  0.00     0.354 C 
BRANCH  19  20
HETATM   20  N3  UNL     1      33.637  48.217  33.910  1.00  0.00     0.111 N 
HETATM   21  C7  UNL     1      34.613  49.043  34.592  1.00  0.00     0.276 C 
HETATM   22  C10 UNL     1      35.022  48.293  35.815  1.00  0.00     0.044 C 
HETATM   23  C11 UNL     1      34.938  46.847  35.339  1.00  0.00     0.038 C 
HETATM   24  C12 UNL     1      34.235  46.903  33.986  1.00  0.00     0.228 C 
BRANCH  21  25
HETATM   25  C8  UNL     1      34.168  50.420  34.848  1.00  0.00     0.077 A 
HETATM   26  C9  UNL     1      34.240  51.063  36.060  1.00  0.00     0.137 A 
HETATM   27  N4  UNL     1      33.746  52.310  35.877  1.00  0.00    -0.296 N 
HETATM   28  N5  UNL     1      33.383  52.446  34.621  1.00  0.00    -0.243 N 
ATOM     29  H4  UNL     1      33.668  53.028  36.598  1.00  0.00     0.187 HD
HETATM   30  N6  UNL     1      33.639  51.298  33.992  1.00  0.00    -0.287 N 
ATOM     31  H5  UNL     1      32.977  53.282  34.201  1.00  0.00     0.208 HD
ATOM     32  H6  UNL     1      33.458  51.118  33.005  1.00  0.00     0.188 HD
ENDBRANCH  21  25
BRANCH  24  33
HETATM   33  C13 UNL     1      35.269  46.749  32.927  1.00  0.00     0.011 C 
HETATM   34  C14 UNL     1      36.372  45.873  33.537  1.00  0.00     0.011 C 
HETATM   35  C15 UNL     1      34.777  46.151  31.634  1.00  0.00     0.011 C 
ENDBRANCH  24  33
ENDBRANCH  19  20
ENDBRANCH   1  19
TORSDOF 10
ENDMDL
