MODEL 1
REMARK VINA RESULT: -7.133291992      0.000      0.000
REMARK  11 active torsions:
REMARK  status: ('A' for Active; 'I' for Inactive)
REMARK    1  A    between atoms: C2_2  and  C3_3 
REMARK    2  A    between atoms: C3_3  and  C4_4 
REMARK    3  A    between atoms: C4_4  and  C5_5 
REMARK    4  A    between atoms: C4_4  and  C21_29 
REMARK    5  A    between atoms: C8_11  and  O2_12 
REMARK    6  A    between atoms: C8_11  and  C9_14 
REMARK    7  A    between atoms: C13_18  and  C14_19 
REMARK    8  A    between atoms: C14_19  and  C15_20 
REMARK    9  A    between atoms: C15_20  and  C16_21 
REMARK   10  A    between atoms: C15_20  and  N2_26 
REMARK   11  A    between atoms: C17_22  and  C19_24 
ROOT
HETATM    1  C5  UNL     1      32.604  39.833  41.944  1.00  0.00     0.000 C 
HETATM    2  C6  UNL     1      32.511  38.596  42.662  1.00  0.00     0.011 C 
HETATM    3  C7  UNL     1      31.296  38.091  43.265  1.00  0.00     0.250 C 
HETATM    4  O1  UNL     1      30.201  38.622  43.388  1.00  0.00    -0.268 OA
HETATM    5  N1  UNL     1      31.433  36.744  43.795  1.00  0.00    -0.325 N 
ATOM      6  H1  UNL     1      30.696  36.335  44.370  1.00  0.00     0.165 HD
HETATM    7  C8  UNL     1      32.644  35.987  43.490  1.00  0.00     0.137 C 
HETATM    8  C12 UNL     1      33.902  36.812  43.632  1.00  0.00     0.071 C 
HETATM    9  C13 UNL     1      33.714  38.292  43.602  1.00  0.00     0.031 C 
ENDROOT
BRANCH   9  10
HETATM   10  C14 UNL     1      33.577  38.923  44.897  1.00  0.00     0.045 C 
BRANCH  10  11
HETATM   11  C15 UNL     1      34.674  39.611  45.608  1.00  0.00     0.179 C 
BRANCH  11  12
HETATM   12  C16 UNL     1      34.688  41.040  45.036  1.00  0.00     0.007 C 
HETATM   13  C17 UNL     1      35.489  41.425  44.091  1.00  0.00    -0.086 C 
HETATM   14  C18 UNL     1      35.369  42.867  43.645  1.00  0.00     0.043 C 
BRANCH  13  15
HETATM   15  C19 UNL     1      36.516  40.629  43.393  1.00  0.00     0.029 C 
HETATM   16  C20 UNL     1      37.844  40.766  44.143  1.00  0.00     0.010 C 
ENDBRANCH  13  15
ENDBRANCH  11  12
BRANCH  11  17
HETATM   17  N2  UNL     1      34.623  39.782  47.030  1.00  0.00    -0.147 N 
HETATM   18  O3  UNL     1      34.696  40.927  47.564  1.00  0.00    -0.536 OA
HETATM   19  O4  UNL     1      34.461  38.736  47.903  1.00  0.00    -0.536 OA
ENDBRANCH  11  17
ENDBRANCH  10  11
ENDBRANCH   9  10
BRANCH   1  20
HETATM   20  C4  UNL     1      32.339  41.176  42.418  1.00  0.00     0.101 C 
BRANCH  20  21
HETATM   21  C3  UNL     1      32.628  42.076  41.166  1.00  0.00     0.044 C 
BRANCH  21  22
HETATM   22  C2  UNL     1      33.870  41.663  40.507  1.00  0.00    -0.036 C 
HETATM   23  C1  UNL     1      34.213  42.210  39.351  1.00  0.00     0.007 C 
ENDBRANCH  21  22
ENDBRANCH  20  21
BRANCH  20  24
HETATM   24  C21 UNL     1      30.978  41.578  42.773  1.00  0.00     0.239 C 
HETATM   25  N3  UNL     1      30.589  42.070  44.045  1.00  0.00    -0.062 NA
HETATM   26  O5  UNL     1      30.038  41.496  41.907  1.00  0.00    -0.276 OA
ENDBRANCH  20  24
ENDBRANCH   1  20
BRANCH   7  27
HETATM   27  O2  UNL     1      32.543  35.428  42.188  1.00  0.00    -0.370 OA
ATOM     28  H2  UNL     1      33.291  34.866  42.023  1.00  0.00     0.212 HD
ENDBRANCH   7  27
BRANCH   7  29
HETATM   29  C9  UNL     1      32.672  34.765  44.384  1.00  0.00     0.033 C 
HETATM   30  C10 UNL     1      33.366  35.081  45.699  1.00  0.00     0.014 C 
HETATM   31  C11 UNL     1      31.314  34.246  44.710  1.00  0.00     0.014 C 
ENDBRANCH   7  29
TORSDOF 11
ENDMDL
MODEL 2
REMARK VINA RESULT: -7.023458380      2.705      6.723
REMARK  11 active torsions:
REMARK  status: ('A' for Active; 'I' for Inactive)
REMARK    1  A    between atoms: C2_2  and  C3_3 
REMARK    2  A    between atoms: C3_3  and  C4_4 
REMARK    3  A    between atoms: C4_4  and  C5_5 
REMARK    4  A    between atoms: C4_4  and  C21_29 
REMARK    5  A    between atoms: C8_11  and  O2_12 
REMARK    6  A    between atoms: C8_11  and  C9_14 
REMARK    7  A    between atoms: C13_18  and  C14_19 
REMARK    8  A    between atoms: C14_19  and  C15_20 
REMARK    9  A    between atoms: C15_20  and  C16_21 
REMARK   10  A    between atoms: C15_20  and  N2_26 
REMARK   11  A    between atoms: C17_22  and  C19_24 
ROOT
HETATM    1  C5  UNL     1      33.269  41.603  42.482  1.00  0.00     0.000 C 
HETATM    2  C6  UNL     1      32.764  41.893  41.172  1.00  0.00     0.011 C 
HETATM    3  C7  UNL     1      31.377  42.179  40.875  1.00  0.00     0.250 C 
HETATM    4  O1  UNL     1      30.392  42.122  41.598  1.00  0.00    -0.268 OA
HETATM    5  N1  UNL     1      31.155  42.594  39.499  1.00  0.00    -0.325 N 
ATOM      6  H1  UNL     1      30.208  42.683  39.130  1.00  0.00     0.165 HD
HETATM    7  C8  UNL     1      32.311  42.883  38.656  1.00  0.00     0.137 C 
HETATM    8  C12 UNL     1      33.410  41.855  38.797  1.00  0.00     0.071 C 
HETATM    9  C13 UNL     1      33.362  41.018  40.031  1.00  0.00     0.031 C 
ENDROOT
BRANCH   9  10
HETATM   10  C14 UNL     1      32.678  39.750  39.891  1.00  0.00     0.045 C 
BRANCH  10  11
HETATM   11  C15 UNL     1      33.359  38.448  39.746  1.00  0.00     0.179 C 
BRANCH  11  12
HETATM   12  C16 UNL     1      32.965  37.648  41.000  1.00  0.00     0.007 C 
HETATM   13  C17 UNL     1      33.764  37.448  42.002  1.00  0.00    -0.086 C 
HETATM   14  C18 UNL     1      33.214  36.639  43.158  1.00  0.00     0.043 C 
BRANCH  13  15
HETATM   15  C19 UNL     1      35.157  37.910  42.157  1.00  0.00     0.029 C 
HETATM   16  C20 UNL     1      35.694  37.420  43.505  1.00  0.00     0.010 C 
ENDBRANCH  13  15
ENDBRANCH  11  12
BRANCH  11  17
HETATM   17  N2  UNL     1      33.049  37.585  38.644  1.00  0.00    -0.147 N 
HETATM   18  O3  UNL     1      32.903  36.337  38.799  1.00  0.00    -0.536 OA
HETATM   19  O4  UNL     1      32.859  38.045  37.366  1.00  0.00    -0.536 OA
ENDBRANCH  11  17
ENDBRANCH  10  11
ENDBRANCH   9  10
BRANCH   1  20
HETATM   20  C4  UNL     1      32.907  40.520  43.371  1.00  0.00     0.101 C 
BRANCH  20  21
HETATM   21  C3  UNL     1      33.933  40.648  44.551  1.00  0.00     0.044 C 
BRANCH  21  22
HETATM   22  C2  UNL     1      35.107  41.419  44.134  1.00  0.00    -0.036 C 
HETATM   23  C1  UNL     1      36.321  40.957  44.392  1.00  0.00     0.007 C 
ENDBRANCH  21  22
ENDBRANCH  20  21
BRANCH  20  24
HETATM   24  C21 UNL     1      31.626  40.542  44.079  1.00  0.00     0.239 C 
HETATM   25  N3  UNL     1      31.172  41.613  44.890  1.00  0.00    -0.062 NA
HETATM   26  O5  UNL     1      30.827  39.545  43.989  1.00  0.00    -0.276 OA
ENDBRANCH  20  24
ENDBRANCH   1  20
BRANCH   7  27
HETATM   27  O2  UNL     1      32.795  44.188  38.937  1.00  0.00    -0.370 OA
ATOM     28  H2  UNL     1      33.566  44.131  39.490  1.00  0.00     0.212 HD
ENDBRANCH   7  27
BRANCH   7  29
HETATM   29  C9  UNL     1      31.833  42.998  37.224  1.00  0.00     0.033 C 
HETATM   30  C10 UNL     1      30.601  42.135  37.003  1.00  0.00     0.014 C 
HETATM   31  C11 UNL     1      31.476  44.392  36.837  1.00  0.00     0.014 C 
ENDBRANCH   7  29
TORSDOF 11
ENDMDL
MODEL 3
REMARK VINA RESULT: -6.980711461      2.865      6.872
REMARK  11 active torsions:
REMARK  status: ('A' for Active; 'I' for Inactive)
REMARK    1  A    between atoms: C2_2  and  C3_3 
REMARK    2  A    between atoms: C3_3  and  C4_4 
REMARK    3  A    between atoms: C4_4  and  C5_5 
REMARK    4  A    between atoms: C4_4  and  C21_29 
REMARK    5  A    between atoms: C8_11  and  O2_12 
REMARK    6  A    between atoms: C8_11  and  C9_14 
REMARK    7  A    between atoms: C13_18  and  C14_19 
REMARK    8  A    between atoms: C14_19  and  C15_20 
REMARK    9  A    between atoms: C15_20  and  C16_21 
REMARK   10  A    between atoms: C15_20  and  N2_26 
REMARK   11  A    between atoms: C17_22  and  C19_24 
ROOT
HETATM    1  C5  UNL     1      33.375  41.563  42.506  1.00  0.00     0.000 C 
HETATM    2  C6  UNL     1      32.866  41.881  41.204  1.00  0.00     0.011 C 
HETATM    3  C7  UNL     1      31.490  42.232  40.928  1.00  0.00     0.250 C 
HETATM    4  O1  UNL     1      30.514  42.219  41.665  1.00  0.00    -0.268 OA
HETATM    5  N1  UNL     1      31.268  42.663  39.557  1.00  0.00    -0.325 N 
ATOM      6  H1  UNL     1      30.321  42.797  39.202  1.00  0.00     0.165 HD
HETATM    7  C8  UNL     1      32.424  42.899  38.698  1.00  0.00     0.137 C 
HETATM    8  C12 UNL     1      33.475  41.820  38.820  1.00  0.00     0.071 C 
HETATM    9  C13 UNL     1      33.405  40.982  40.052  1.00  0.00     0.031 C 
ENDROOT
BRANCH   9  10
HETATM   10  C14 UNL     1      32.661  39.749  39.919  1.00  0.00     0.045 C 
BRANCH  10  11
HETATM   11  C15 UNL     1      33.269  38.436  39.622  1.00  0.00     0.179 C 
BRANCH  11  12
HETATM   12  C16 UNL     1      32.912  37.548  40.827  1.00  0.00     0.007 C 
HETATM   13  C17 UNL     1      33.797  36.993  41.596  1.00  0.00    -0.086 C 
HETATM   14  C18 UNL     1      33.272  36.150  42.739  1.00  0.00     0.043 C 
BRANCH  13  15
HETATM   15  C19 UNL     1      35.267  37.076  41.492  1.00  0.00     0.029 C 
HETATM   16  C20 UNL     1      35.767  35.924  40.616  1.00  0.00     0.010 C 
ENDBRANCH  13  15
ENDBRANCH  11  12
BRANCH  11  17
HETATM   17  N2  UNL     1      32.855  37.686  38.474  1.00  0.00    -0.147 N 
HETATM   18  O3  UNL     1      32.616  38.248  37.365  1.00  0.00    -0.536 OA
HETATM   19  O4  UNL     1      32.719  36.321  38.482  1.00  0.00    -0.536 OA
ENDBRANCH  11  17
ENDBRANCH  10  11
ENDBRANCH   9  10
BRANCH   1  20
HETATM   20  C4  UNL     1      32.976  40.494  43.397  1.00  0.00     0.101 C 
BRANCH  20  21
HETATM   21  C3  UNL     1      34.336  39.846  43.833  1.00  0.00     0.044 C 
BRANCH  21  22
HETATM   22  C2  UNL     1      35.458  40.480  43.138  1.00  0.00    -0.036 C 
HETATM   23  C1  UNL     1      36.667  40.448  43.677  1.00  0.00     0.007 C 
ENDBRANCH  21  22
ENDBRANCH  20  21
BRANCH  20  24
HETATM   24  C21 UNL     1      32.358  40.802  44.688  1.00  0.00     0.239 C 
HETATM   25  N3  UNL     1      31.185  41.582  44.855  1.00  0.00    -0.062 NA
HETATM   26  O5  UNL     1      32.880  40.359  45.770  1.00  0.00    -0.276 OA
ENDBRANCH  20  24
ENDBRANCH   1  20
BRANCH   7  27
HETATM   27  O2  UNL     1      32.972  44.180  38.976  1.00  0.00    -0.370 OA
ATOM     28  H2  UNL     1      33.911  44.104  39.105  1.00  0.00     0.212 HD
ENDBRANCH   7  27
BRANCH   7  29
HETATM   29  C9  UNL     1      31.931  43.042  37.274  1.00  0.00     0.033 C 
HETATM   30  C10 UNL     1      30.664  42.227  37.063  1.00  0.00     0.014 C 
HETATM   31  C11 UNL     1      31.622  44.451  36.900  1.00  0.00     0.014 C 
ENDBRANCH   7  29
TORSDOF 11
ENDMDL
MODEL 4
REMARK VINA RESULT: -6.956585866      6.927     10.393
REMARK  11 active torsions:
REMARK  status: ('A' for Active; 'I' for Inactive)
REMARK    1  A    between atoms: C2_2  and  C3_3 
REMARK    2  A    between atoms: C3_3  and  C4_4 
REMARK    3  A    between atoms: C4_4  and  C5_5 
REMARK    4  A    between atoms: C4_4  and  C21_29 
REMARK    5  A    between atoms: C8_11  and  O2_12 
REMARK    6  A    between atoms: C8_11  and  C9_14 
REMARK    7  A    between atoms: C13_18  and  C14_19 
REMARK    8  A    between atoms: C14_19  and  C15_20 
REMARK    9  A    between atoms: C15_20  and  C16_21 
REMARK   10  A    between atoms: C15_20  and  N2_26 
REMARK   11  A    between atoms: C17_22  and  C19_24 
ROOT
HETATM    1  C5  UNL     1      29.083  44.849  36.148  1.00  0.00     0.000 C 
HETATM    2  C6  UNL     1      30.034  44.273  37.053  1.00  0.00     0.011 C 
HETATM    3  C7  UNL     1      30.062  44.524  38.477  1.00  0.00     0.250 C 
HETATM    4  O1  UNL     1      29.410  45.312  39.148  1.00  0.00    -0.268 OA
HETATM    5  N1  UNL     1      31.023  43.697  39.190  1.00  0.00    -0.325 N 
ATOM      6  H1  UNL     1      31.239  43.881  40.170  1.00  0.00     0.165 HD
HETATM    7  C8  UNL     1      31.672  42.600  38.478  1.00  0.00     0.137 C 
HETATM    8  C12 UNL     1      32.135  42.992  37.095  1.00  0.00     0.071 C 
HETATM    9  C13 UNL     1      31.494  44.208  36.515  1.00  0.00     0.031 C 
ENDROOT
BRANCH   9  10
HETATM   10  C14 UNL     1      32.214  45.445  36.723  1.00  0.00     0.045 C 
BRANCH  10  11
HETATM   11  C15 UNL     1      33.010  46.131  35.685  1.00  0.00     0.179 C 
BRANCH  11  12
HETATM   12  C16 UNL     1      32.207  47.396  35.334  1.00  0.00     0.007 C 
HETATM   13  C17 UNL     1      31.791  47.671  34.137  1.00  0.00    -0.086 C 
HETATM   14  C18 UNL     1      31.012  48.959  33.969  1.00  0.00     0.043 C 
BRANCH  13  15
HETATM   15  C19 UNL     1      31.988  46.884  32.905  1.00  0.00     0.029 C 
HETATM   16  C20 UNL     1      31.010  47.381  31.838  1.00  0.00     0.010 C 
ENDBRANCH  13  15
ENDBRANCH  11  12
BRANCH  11  17
HETATM   17  N2  UNL     1      34.333  46.600  35.974  1.00  0.00    -0.147 N 
HETATM   18  O3  UNL     1      34.568  47.352  36.965  1.00  0.00    -0.536 OA
HETATM   19  O4  UNL     1      35.430  46.249  35.229  1.00  0.00    -0.536 OA
ENDBRANCH  11  17
ENDBRANCH  10  11
ENDBRANCH   9  10
BRANCH   1  20
HETATM   20  C4  UNL     1      28.844  46.247  35.855  1.00  0.00     0.101 C 
BRANCH  20  21
HETATM   21  C3  UNL     1      28.453  46.247  34.336  1.00  0.00     0.044 C 
BRANCH  21  22
HETATM   22  C2  UNL     1      28.720  44.940  33.732  1.00  0.00    -0.036 C 
HETATM   23  C1  UNL     1      28.748  44.820  32.414  1.00  0.00     0.007 C 
ENDBRANCH  21  22
ENDBRANCH  20  21
BRANCH  20  24
HETATM   24  C21 UNL     1      27.709  46.944  36.462  1.00  0.00     0.239 C 
HETATM   25  N3  UNL     1      27.801  47.817  37.576  1.00  0.00    -0.062 NA
HETATM   26  O5  UNL     1      26.531  46.783  35.988  1.00  0.00    -0.276 OA
ENDBRANCH  20  24
ENDBRANCH   1  20
BRANCH   7  27
HETATM   27  O2  UNL     1      30.798  41.481  38.426  1.00  0.00    -0.370 OA
ATOM     28  H2  UNL     1      30.698  41.112  39.296  1.00  0.00     0.212 HD
ENDBRANCH   7  27
BRANCH   7  29
HETATM   29  C9  UNL     1      32.817  42.098  39.332  1.00  0.00     0.033 C 
HETATM   30  C10 UNL     1      33.949  41.583  38.457  1.00  0.00     0.014 C 
HETATM   31  C11 UNL     1      33.385  43.146  40.225  1.00  0.00     0.014 C 
ENDBRANCH   7  29
TORSDOF 11
ENDMDL
MODEL 5
REMARK VINA RESULT: -6.815573819      2.693      4.984
REMARK  11 active torsions:
REMARK  status: ('A' for Active; 'I' for Inactive)
REMARK    1  A    between atoms: C2_2  and  C3_3 
REMARK    2  A    between atoms: C3_3  and  C4_4 
REMARK    3  A    between atoms: C4_4  and  C5_5 
REMARK    4  A    between atoms: C4_4  and  C21_29 
REMARK    5  A    between atoms: C8_11  and  O2_12 
REMARK    6  A    between atoms: C8_11  and  C9_14 
REMARK    7  A    between atoms: C13_18  and  C14_19 
REMARK    8  A    between atoms: C14_19  and  C15_20 
REMARK    9  A    between atoms: C15_20  and  C16_21 
REMARK   10  A    between atoms: C15_20  and  N2_26 
REMARK   11  A    between atoms: C17_22  and  C19_24 
ROOT
HETATM    1  C5  UNL     1      34.103  37.632  40.273  1.00  0.00     0.000 C 
HETATM    2  C6  UNL     1      34.070  37.952  41.671  1.00  0.00     0.011 C 
HETATM    3  C7  UNL     1      33.361  37.181  42.668  1.00  0.00     0.250 C 
HETATM    4  O1  UNL     1      32.598  36.234  42.533  1.00  0.00    -0.268 OA
HETATM    5  N1  UNL     1      33.617  37.625  44.030  1.00  0.00    -0.325 N 
ATOM      6  H1  UNL     1      33.068  37.258  44.807  1.00  0.00     0.165 HD
HETATM    7  C8  UNL     1      34.674  38.604  44.263  1.00  0.00     0.137 C 
HETATM    8  C12 UNL     1      34.657  39.736  43.262  1.00  0.00     0.071 C 
HETATM    9  C13 UNL     1      33.920  39.468  41.993  1.00  0.00     0.031 C 
ENDROOT
BRANCH   9  10
HETATM   10  C14 UNL     1      32.539  39.902  41.976  1.00  0.00     0.045 C 
BRANCH  10  11
HETATM   11  C15 UNL     1      32.080  41.236  42.413  1.00  0.00     0.179 C 
BRANCH  11  12
HETATM   12  C16 UNL     1      31.434  41.865  41.166  1.00  0.00     0.007 C 
HETATM   13  C17 UNL     1      32.104  42.499  40.255  1.00  0.00    -0.086 C 
HETATM   14  C18 UNL     1      31.310  43.055  39.092  1.00  0.00     0.043 C 
BRANCH  13  15
HETATM   15  C19 UNL     1      33.557  42.756  40.211  1.00  0.00     0.029 C 
HETATM   16  C20 UNL     1      34.098  42.306  38.852  1.00  0.00     0.010 C 
ENDBRANCH  13  15
ENDBRANCH  11  12
BRANCH  11  17
HETATM   17  N2  UNL     1      31.094  41.363  43.446  1.00  0.00    -0.147 N 
HETATM   18  O3  UNL     1      30.929  40.463  44.320  1.00  0.00    -0.536 OA
HETATM   19  O4  UNL     1      30.291  42.467  43.579  1.00  0.00    -0.536 OA
ENDBRANCH  11  17
ENDBRANCH  10  11
ENDBRANCH   9  10
BRANCH   1  20
HETATM   20  C4  UNL     1      32.998  37.535  39.342  1.00  0.00     0.101 C 
BRANCH  20  21
HETATM   21  C3  UNL     1      33.040  38.900  38.571  1.00  0.00     0.044 C 
BRANCH  21  22
HETATM   22  C2  UNL     1      31.690  39.447  38.414  1.00  0.00    -0.036 C 
HETATM   23  C1  UNL     1      31.269  39.820  37.215  1.00  0.00     0.007 C 
ENDBRANCH  21  22
ENDBRANCH  20  21
BRANCH  20  24
HETATM   24  C21 UNL     1      33.041  36.565  38.246  1.00  0.00     0.239 C 
HETATM   25  N3  UNL     1      31.898  36.007  37.618  1.00  0.00    -0.062 NA
HETATM   26  O5  UNL     1      34.168  36.163  37.790  1.00  0.00    -0.276 OA
ENDBRANCH  20  24
ENDBRANCH   1  20
BRANCH   7  27
HETATM   27  O2  UNL     1      35.936  37.952  44.274  1.00  0.00    -0.370 OA
ATOM     28  H2  UNL     1      36.504  38.343  43.620  1.00  0.00     0.212 HD
ENDBRANCH   7  27
BRANCH   7  29
HETATM   29  C9  UNL     1      34.541  39.111  45.683  1.00  0.00     0.033 C 
HETATM   30  C10 UNL     1      34.123  40.573  45.692  1.00  0.00     0.014 C 
HETATM   31  C11 UNL     1      33.536  38.355  46.483  1.00  0.00     0.014 C 
ENDBRANCH   7  29
TORSDOF 11
ENDMDL
