MODEL 1
REMARK VINA RESULT: -7.182641244      0.000      0.000
REMARK  17 active torsions:
REMARK  status: ('A' for Active; 'I' for Inactive)
REMARK    1  A    between atoms: C3_4  and  O2_5 
REMARK    2  A    between atoms: O2_5  and  C4_6 
REMARK    3  A    between atoms: C11_14  and  C12_15 
REMARK    4  A    between atoms: C12_15  and  N1_16 
REMARK    5  A    between atoms: C12_15  and  O4_20 
REMARK    6  A    between atoms: N1_16  and  N2_17 
REMARK    7  A    between atoms: O4_20  and  C13_21 
REMARK    8  A    between atoms: C13_21  and  C14_22 
REMARK    9  A    between atoms: C14_22  and  C15_23 
REMARK   10  A    between atoms: C15_23  and  C16_24 
REMARK   11  A    between atoms: C16_24  and  C17_25 
REMARK   12  A    between atoms: C17_25  and  C18_26 
REMARK   13  A    between atoms: C18_26  and  C19_27 
REMARK   14  A    between atoms: C19_27  and  N3_28 
REMARK   15  A    between atoms: C20_32  and  O5_33 
REMARK   16  A    between atoms: C21_35  and  O6_36 
REMARK   17  A    between atoms: C22_38  and  O7_39 
ROOT
HETATM    1  C4  UNL     1      23.879  66.443  45.000  1.00  0.00     0.166 C 
HETATM    2  C5  UNL     1      23.185  67.795  45.059  1.00  0.00     0.073 C 
HETATM    3  C6  UNL     1      21.792  67.396  45.429  1.00  0.00     0.064 C 
HETATM    4  C7  UNL     1      21.007  68.536  46.044  1.00  0.00     0.038 C 
HETATM    5  C8  UNL     1      19.808  68.763  45.140  1.00  0.00     0.003 C 
HETATM    6  C9  UNL     1      19.569  67.352  44.596  1.00  0.00     0.003 C 
HETATM    7  C10 UNL     1      20.985  66.930  44.242  1.00  0.00     0.038 C 
HETATM    8  O3  UNL     1      21.961  66.374  46.319  1.00  0.00    -0.363 OA
HETATM    9  C11 UNL     1      23.140  65.721  46.113  1.00  0.00     0.243 C 
ENDROOT
BRANCH   9  10
HETATM   10  C12 UNL     1      23.917  65.752  47.406  1.00  0.00     0.247 C 
BRANCH  10  11
HETATM   11  N1  UNL     1      25.089  65.770  47.426  1.00  0.00    -0.309 NA
BRANCH  11  12
HETATM   12  N2  UNL     1      26.392  65.773  47.516  1.00  0.00    -0.278 N 
ATOM     13  H22 UNL     1      26.104  65.047  46.860  1.00  0.00     0.191 HD
ATOM     14  H21 UNL     1      27.406  65.816  47.621  1.00  0.00     0.191 HD
ENDBRANCH  11  12
ENDBRANCH  10  11
BRANCH  10  15
HETATM   15  O4  UNL     1      23.121  65.756  48.548  1.00  0.00    -0.325 OA
BRANCH  15  16
HETATM   16  C13 UNL     1      22.598  64.594  49.091  1.00  0.00     0.178 C 
BRANCH  16  17
HETATM   17  C14 UNL     1      21.112  64.565  49.290  1.00  0.00     0.027 C 
BRANCH  17  18
HETATM   18  C15 UNL     1      20.453  63.805  48.155  1.00  0.00     0.002 C 
BRANCH  18  19
HETATM   19  C16 UNL     1      19.361  64.573  47.478  1.00  0.00     0.000 C 
BRANCH  19  20
HETATM   20  C17 UNL     1      19.035  65.881  48.174  1.00  0.00     0.002 C 
BRANCH  20  21
HETATM   21  C18 UNL     1      17.556  66.181  47.981  1.00  0.00     0.027 C 
BRANCH  21  22
HETATM   22  C19 UNL     1      17.085  65.376  46.796  1.00  0.00     0.229 C 
BRANCH  22  23
HETATM   23  N3  UNL     1      15.680  65.010  46.982  1.00  0.00    -0.079 N 
ATOM     24  H33 UNL     1      15.469  64.086  46.604  1.00  0.00     0.274 HD
ATOM     25  H32 UNL     1      15.457  64.821  47.959  1.00  0.00     0.274 HD
ATOM     26  H31 UNL     1      15.084  65.735  46.583  1.00  0.00     0.274 HD
ENDBRANCH  22  23
ENDBRANCH  21  22
ENDBRANCH  20  21
ENDBRANCH  19  20
ENDBRANCH  18  19
ENDBRANCH  17  18
ENDBRANCH  16  17
ENDBRANCH  15  16
ENDBRANCH  10  15
ENDBRANCH   9  10
BRANCH   1  27
HETATM   27  O2  UNL     1      23.604  65.753  43.844  1.00  0.00    -0.350 OA
BRANCH  27  28
HETATM   28  C3  UNL     1      24.194  64.513  43.748  1.00  0.00     0.292 C 
HETATM   29  O1  UNL     1      23.249  63.508  43.602  1.00  0.00    -0.351 OA
HETATM   30  C2  UNL     1      22.777  63.354  42.308  1.00  0.00     0.152 C 
HETATM   31  C1  UNL     1      21.778  62.206  42.349  1.00  0.00     0.042 C 
HETATM   32  C22 UNL     1      23.866  63.022  41.331  1.00  0.00     0.178 C 
HETATM   33  C21 UNL     1      25.200  63.089  42.056  1.00  0.00     0.183 C 
HETATM   34  C20 UNL     1      25.320  64.439  42.775  1.00  0.00     0.204 C 
BRANCH  32  35
HETATM   35  O7  UNL     1      23.682  61.831  40.675  1.00  0.00    -0.390 OA
ATOM     36  H7  UNL     1      22.848  61.762  40.226  1.00  0.00     0.210 HD
ENDBRANCH  32  35
BRANCH  33  37
HETATM   37  O6  UNL     1      25.224  62.022  42.942  1.00  0.00    -0.390 OA
ATOM     38  H6  UNL     1      26.093  61.648  43.027  1.00  0.00     0.210 HD
ENDBRANCH  33  37
BRANCH  34  39
HETATM   39  O5  UNL     1      25.221  65.387  41.754  1.00  0.00    -0.388 OA
ATOM     40  H5  UNL     1      25.348  65.015  40.888  1.00  0.00     0.210 HD
ENDBRANCH  34  39
ENDBRANCH  27  28
ENDBRANCH   1  27
TORSDOF 17
ENDMDL
MODEL 2
REMARK VINA RESULT: -7.162125533      3.295      5.047
REMARK  17 active torsions:
REMARK  status: ('A' for Active; 'I' for Inactive)
REMARK    1  A    between atoms: C3_4  and  O2_5 
REMARK    2  A    between atoms: O2_5  and  C4_6 
REMARK    3  A    between atoms: C11_14  and  C12_15 
REMARK    4  A    between atoms: C12_15  and  N1_16 
REMARK    5  A    between atoms: C12_15  and  O4_20 
REMARK    6  A    between atoms: N1_16  and  N2_17 
REMARK    7  A    between atoms: O4_20  and  C13_21 
REMARK    8  A    between atoms: C13_21  and  C14_22 
REMARK    9  A    between atoms: C14_22  and  C15_23 
REMARK   10  A    between atoms: C15_23  and  C16_24 
REMARK   11  A    between atoms: C16_24  and  C17_25 
REMARK   12  A    between atoms: C17_25  and  C18_26 
REMARK   13  A    between atoms: C18_26  and  C19_27 
REMARK   14  A    between atoms: C19_27  and  N3_28 
REMARK   15  A    between atoms: C20_32  and  O5_33 
REMARK   16  A    between atoms: C21_35  and  O6_36 
REMARK   17  A    between atoms: C22_38  and  O7_39 
ROOT
HETATM    1  C4  UNL     1      21.821  65.301  44.107  1.00  0.00     0.166 C 
HETATM    2  C5  UNL     1      21.625  66.609  44.857  1.00  0.00     0.073 C 
HETATM    3  C6  UNL     1      20.634  67.306  43.981  1.00  0.00     0.064 C 
HETATM    4  C7  UNL     1      19.877  68.395  44.714  1.00  0.00     0.038 C 
HETATM    5  C8  UNL     1      20.180  69.691  43.981  1.00  0.00     0.003 C 
HETATM    6  C9  UNL     1      20.389  69.186  42.551  1.00  0.00     0.003 C 
HETATM    7  C10 UNL     1      21.278  67.978  42.792  1.00  0.00     0.038 C 
HETATM    8  O3  UNL     1      19.794  66.312  43.567  1.00  0.00    -0.363 OA
HETATM    9  C11 UNL     1      20.419  65.100  43.559  1.00  0.00     0.243 C 
ENDROOT
BRANCH   9  10
HETATM   10  C12 UNL     1      19.615  64.162  44.424  1.00  0.00     0.247 C 
BRANCH  10  11
HETATM   11  N1  UNL     1      18.642  64.507  44.979  1.00  0.00    -0.309 NA
BRANCH  11  12
HETATM   12  N2  UNL     1      17.563  64.954  45.565  1.00  0.00    -0.278 N 
ATOM     13  H22 UNL     1      18.359  65.523  45.853  1.00  0.00     0.191 HD
ATOM     14  H21 UNL     1      16.693  65.264  45.997  1.00  0.00     0.191 HD
ENDBRANCH  11  12
ENDBRANCH  10  11
BRANCH  10  15
HETATM   15  O4  UNL     1      20.133  62.871  44.499  1.00  0.00    -0.325 OA
BRANCH  15  16
HETATM   16  C13 UNL     1      19.981  61.951  43.475  1.00  0.00     0.178 C 
BRANCH  16  17
HETATM   17  C14 UNL     1      18.704  61.165  43.474  1.00  0.00     0.027 C 
BRANCH  17  18
HETATM   18  C15 UNL     1      18.085  61.183  42.090  1.00  0.00     0.002 C 
BRANCH  18  19
HETATM   19  C16 UNL     1      17.557  62.525  41.691  1.00  0.00     0.000 C 
BRANCH  19  20
HETATM   20  C17 UNL     1      17.832  62.864  40.238  1.00  0.00     0.002 C 
BRANCH  20  21
HETATM   21  C18 UNL     1      19.173  63.577  40.150  1.00  0.00     0.027 C 
BRANCH  21  22
HETATM   22  C19 UNL     1      20.026  62.812  39.169  1.00  0.00     0.229 C 
BRANCH  22  23
HETATM   23  N3  UNL     1      20.916  61.907  39.898  1.00  0.00    -0.079 N 
ATOM     24  H33 UNL     1      20.464  61.497  40.715  1.00  0.00     0.274 HD
ATOM     25  H32 UNL     1      21.095  61.045  39.383  1.00  0.00     0.274 HD
ATOM     26  H31 UNL     1      21.777  62.398  40.139  1.00  0.00     0.274 HD
ENDBRANCH  22  23
ENDBRANCH  21  22
ENDBRANCH  20  21
ENDBRANCH  19  20
ENDBRANCH  18  19
ENDBRANCH  17  18
ENDBRANCH  16  17
ENDBRANCH  15  16
ENDBRANCH  10  15
ENDBRANCH   9  10
BRANCH   1  27
HETATM   27  O2  UNL     1      22.645  65.432  43.015  1.00  0.00    -0.350 OA
BRANCH  27  28
HETATM   28  C3  UNL     1      22.847  64.278  42.292  1.00  0.00     0.292 C 
HETATM   29  O1  UNL     1      22.500  64.444  40.959  1.00  0.00    -0.351 OA
HETATM   30  C2  UNL     1      23.473  65.063  40.190  1.00  0.00     0.152 C 
HETATM   31  C1  UNL     1      22.920  65.134  38.774  1.00  0.00     0.042 C 
HETATM   32  C22 UNL     1      24.767  64.304  40.174  1.00  0.00     0.178 C 
HETATM   33  C21 UNL     1      24.650  63.132  41.135  1.00  0.00     0.183 C 
HETATM   34  C20 UNL     1      24.178  63.641  42.502  1.00  0.00     0.204 C 
BRANCH  32  35
HETATM   35  O7  UNL     1      25.172  63.919  38.921  1.00  0.00    -0.390 OA
ATOM     36  H7  UNL     1      26.108  63.997  38.777  1.00  0.00     0.210 HD
ENDBRANCH  32  35
BRANCH  33  37
HETATM   37  O6  UNL     1      23.747  62.244  40.569  1.00  0.00    -0.390 OA
ATOM     38  H6  UNL     1      23.763  62.274  39.620  1.00  0.00     0.210 HD
ENDBRANCH  33  37
BRANCH  34  39
HETATM   39  O5  UNL     1      25.162  64.553  42.893  1.00  0.00    -0.388 OA
ATOM     40  H5  UNL     1      25.343  64.525  43.826  1.00  0.00     0.210 HD
ENDBRANCH  34  39
ENDBRANCH  27  28
ENDBRANCH   1  27
TORSDOF 17
ENDMDL
MODEL 3
REMARK VINA RESULT: -7.111208311      2.489      4.025
REMARK  17 active torsions:
REMARK  status: ('A' for Active; 'I' for Inactive)
REMARK    1  A    between atoms: C3_4  and  O2_5 
REMARK    2  A    between atoms: O2_5  and  C4_6 
REMARK    3  A    between atoms: C11_14  and  C12_15 
REMARK    4  A    between atoms: C12_15  and  N1_16 
REMARK    5  A    between atoms: C12_15  and  O4_20 
REMARK    6  A    between atoms: N1_16  and  N2_17 
REMARK    7  A    between atoms: O4_20  and  C13_21 
REMARK    8  A    between atoms: C13_21  and  C14_22 
REMARK    9  A    between atoms: C14_22  and  C15_23 
REMARK   10  A    between atoms: C15_23  and  C16_24 
REMARK   11  A    between atoms: C16_24  and  C17_25 
REMARK   12  A    between atoms: C17_25  and  C18_26 
REMARK   13  A    between atoms: C18_26  and  C19_27 
REMARK   14  A    between atoms: C19_27  and  N3_28 
REMARK   15  A    between atoms: C20_32  and  O5_33 
REMARK   16  A    between atoms: C21_35  and  O6_36 
REMARK   17  A    between atoms: C22_38  and  O7_39 
ROOT
HETATM    1  C4  UNL     1      22.395  64.440  44.726  1.00  0.00     0.166 C 
HETATM    2  C5  UNL     1      21.127  64.365  43.892  1.00  0.00     0.073 C 
HETATM    3  C6  UNL     1      20.383  63.267  44.584  1.00  0.00     0.064 C 
HETATM    4  C7  UNL     1      18.896  63.306  44.299  1.00  0.00     0.038 C 
HETATM    5  C8  UNL     1      18.556  61.982  43.635  1.00  0.00     0.003 C 
HETATM    6  C9  UNL     1      19.590  61.051  44.272  1.00  0.00     0.003 C 
HETATM    7  C10 UNL     1      20.850  61.894  44.167  1.00  0.00     0.038 C 
HETATM    8  O3  UNL     1      20.639  63.473  45.910  1.00  0.00    -0.363 OA
HETATM    9  C11 UNL     1      21.828  64.113  46.096  1.00  0.00     0.243 C 
ENDROOT
BRANCH   9  10
HETATM   10  C12 UNL     1      21.558  65.363  46.898  1.00  0.00     0.247 C 
BRANCH  10  11
HETATM   11  N1  UNL     1      21.241  65.321  48.026  1.00  0.00    -0.309 NA
BRANCH  11  12
HETATM   12  N2  UNL     1      20.873  65.342  49.279  1.00  0.00    -0.278 N 
ATOM     13  H22 UNL     1      21.803  65.754  49.197  1.00  0.00     0.191 HD
ATOM     14  H21 UNL     1      20.539  65.335  50.243  1.00  0.00     0.191 HD
ENDBRANCH  11  12
ENDBRANCH  10  11
BRANCH  10  15
HETATM   15  O4  UNL     1      21.717  66.545  46.180  1.00  0.00    -0.325 OA
BRANCH  15  16
HETATM   16  C13 UNL     1      21.278  67.768  46.661  1.00  0.00     0.178 C 
BRANCH  16  17
HETATM   17  C14 UNL     1      19.818  68.065  46.482  1.00  0.00     0.027 C 
BRANCH  17  18
HETATM   18  C15 UNL     1      19.338  67.519  45.152  1.00  0.00     0.002 C 
BRANCH  18  19
HETATM   19  C16 UNL     1      18.115  66.663  45.265  1.00  0.00     0.000 C 
BRANCH  19  20
HETATM   20  C17 UNL     1      17.906  66.107  46.660  1.00  0.00     0.002 C 
BRANCH  20  21
HETATM   21  C18 UNL     1      16.746  65.124  46.624  1.00  0.00     0.027 C 
BRANCH  21  22
HETATM   22  C19 UNL     1      15.628  65.717  47.443  1.00  0.00     0.229 C 
BRANCH  22  23
HETATM   23  N3  UNL     1      14.617  64.692  47.706  1.00  0.00    -0.079 N 
ATOM     24  H33 UNL     1      14.263  64.271  46.847  1.00  0.00     0.274 HD
ATOM     25  H32 UNL     1      15.019  63.853  48.124  1.00  0.00     0.274 HD
ATOM     26  H31 UNL     1      13.871  65.088  48.278  1.00  0.00     0.274 HD
ENDBRANCH  22  23
ENDBRANCH  21  22
ENDBRANCH  20  21
ENDBRANCH  19  20
ENDBRANCH  18  19
ENDBRANCH  17  18
ENDBRANCH  16  17
ENDBRANCH  15  16
ENDBRANCH  10  15
ENDBRANCH   9  10
BRANCH   1  27
HETATM   27  O2  UNL     1      23.288  63.438  44.431  1.00  0.00    -0.350 OA
BRANCH  27  28
HETATM   28  C3  UNL     1      24.592  63.846  44.263  1.00  0.00     0.292 C 
HETATM   29  O1  UNL     1      25.337  63.666  45.419  1.00  0.00    -0.351 OA
HETATM   30  C2  UNL     1      25.794  62.372  45.607  1.00  0.00     0.152 C 
HETATM   31  C1  UNL     1      26.595  62.383  46.901  1.00  0.00     0.042 C 
HETATM   32  C22 UNL     1      26.677  61.903  44.488  1.00  0.00     0.178 C 
HETATM   33  C21 UNL     1      26.690  62.970  43.405  1.00  0.00     0.183 C 
HETATM   34  C20 UNL     1      25.247  63.328  43.028  1.00  0.00     0.204 C 
BRANCH  32  35
HETATM   35  O7  UNL     1      27.939  61.543  44.887  1.00  0.00    -0.390 OA
ATOM     36  H7  UNL     1      28.439  61.084  44.222  1.00  0.00     0.210 HD
ENDBRANCH  32  35
BRANCH  33  37
HETATM   37  O6  UNL     1      27.377  64.056  43.926  1.00  0.00    -0.390 OA
ATOM     38  H6  UNL     1      28.117  63.788  44.459  1.00  0.00     0.210 HD
ENDBRANCH  33  37
BRANCH  34  39
HETATM   39  O5  UNL     1      24.694  62.124  42.582  1.00  0.00    -0.388 OA
ATOM     40  H5  UNL     1      25.289  61.389  42.670  1.00  0.00     0.210 HD
ENDBRANCH  34  39
ENDBRANCH  27  28
ENDBRANCH   1  27
TORSDOF 17
ENDMDL
MODEL 4
REMARK VINA RESULT: -7.102739098      2.782      4.575
REMARK  17 active torsions:
REMARK  status: ('A' for Active; 'I' for Inactive)
REMARK    1  A    between atoms: C3_4  and  O2_5 
REMARK    2  A    between atoms: O2_5  and  C4_6 
REMARK    3  A    between atoms: C11_14  and  C12_15 
REMARK    4  A    between atoms: C12_15  and  N1_16 
REMARK    5  A    between atoms: C12_15  and  O4_20 
REMARK    6  A    between atoms: N1_16  and  N2_17 
REMARK    7  A    between atoms: O4_20  and  C13_21 
REMARK    8  A    between atoms: C13_21  and  C14_22 
REMARK    9  A    between atoms: C14_22  and  C15_23 
REMARK   10  A    between atoms: C15_23  and  C16_24 
REMARK   11  A    between atoms: C16_24  and  C17_25 
REMARK   12  A    between atoms: C17_25  and  C18_26 
REMARK   13  A    between atoms: C18_26  and  C19_27 
REMARK   14  A    between atoms: C19_27  and  N3_28 
REMARK   15  A    between atoms: C20_32  and  O5_33 
REMARK   16  A    between atoms: C21_35  and  O6_36 
REMARK   17  A    between atoms: C22_38  and  O7_39 
ROOT
HETATM    1  C4  UNL     1      20.616  65.074  45.485  1.00  0.00     0.166 C 
HETATM    2  C5  UNL     1      21.297  66.434  45.498  1.00  0.00     0.073 C 
HETATM    3  C6  UNL     1      20.150  67.341  45.181  1.00  0.00     0.064 C 
HETATM    4  C7  UNL     1      20.405  68.770  45.614  1.00  0.00     0.038 C 
HETATM    5  C8  UNL     1      20.335  69.615  44.354  1.00  0.00     0.003 C 
HETATM    6  C9  UNL     1      19.333  68.820  43.513  1.00  0.00     0.003 C 
HETATM    7  C10 UNL     1      19.848  67.403  43.704  1.00  0.00     0.038 C 
HETATM    8  O3  UNL     1      19.096  66.798  45.859  1.00  0.00    -0.363 OA
HETATM    9  C11 UNL     1      19.256  65.456  46.042  1.00  0.00     0.243 C 
ENDROOT
BRANCH   9  10
HETATM   10  C12 UNL     1      19.164  65.179  47.522  1.00  0.00     0.247 C 
BRANCH  10  11
HETATM   11  N1  UNL     1      18.975  66.032  48.303  1.00  0.00    -0.309 NA
BRANCH  11  12
HETATM   12  N2  UNL     1      18.719  67.010  49.130  1.00  0.00    -0.278 N 
ATOM     13  H22 UNL     1      18.983  67.399  48.225  1.00  0.00     0.191 HD
ATOM     14  H21 UNL     1      18.508  67.737  49.814  1.00  0.00     0.191 HD
ENDBRANCH  11  12
ENDBRANCH  10  11
BRANCH  10  15
HETATM   15  O4  UNL     1      19.325  63.838  47.861  1.00  0.00    -0.325 OA
BRANCH  15  16
HETATM   16  C13 UNL     1      20.525  63.331  48.332  1.00  0.00     0.178 C 
BRANCH  16  17
HETATM   17  C14 UNL     1      20.782  63.494  49.801  1.00  0.00     0.027 C 
BRANCH  17  18
HETATM   18  C15 UNL     1      22.215  63.934  50.030  1.00  0.00     0.002 C 
BRANCH  18  19
HETATM   19  C16 UNL     1      22.624  65.098  49.183  1.00  0.00     0.000 C 
BRANCH  19  20
HETATM   20  C17 UNL     1      24.084  65.053  48.776  1.00  0.00     0.002 C 
BRANCH  20  21
HETATM   21  C18 UNL     1      24.166  65.011  47.257  1.00  0.00     0.027 C 
BRANCH  21  22
HETATM   22  C19 UNL     1      24.621  63.627  46.868  1.00  0.00     0.229 C 
BRANCH  22  23
HETATM   23  N3  UNL     1      23.514  62.909  46.234  1.00  0.00    -0.079 N 
ATOM     24  H33 UNL     1      23.371  61.985  46.641  1.00  0.00     0.274 HD
ATOM     25  H32 UNL     1      22.608  63.313  46.469  1.00  0.00     0.274 HD
ATOM     26  H31 UNL     1      23.669  62.868  45.226  1.00  0.00     0.274 HD
ENDBRANCH  22  23
ENDBRANCH  21  22
ENDBRANCH  20  21
ENDBRANCH  19  20
ENDBRANCH  18  19
ENDBRANCH  17  18
ENDBRANCH  16  17
ENDBRANCH  15  16
ENDBRANCH  10  15
ENDBRANCH   9  10
BRANCH   1  27
HETATM   27  O2  UNL     1      20.392  64.602  44.214  1.00  0.00    -0.350 OA
BRANCH  27  28
HETATM   28  C3  UNL     1      19.734  63.395  44.145  1.00  0.00     0.292 C 
HETATM   29  O1  UNL     1      18.740  63.411  43.177  1.00  0.00    -0.351 OA
HETATM   30  C2  UNL     1      19.199  63.204  41.886  1.00  0.00     0.152 C 
HETATM   31  C1  UNL     1      17.973  63.236  40.984  1.00  0.00     0.042 C 
HETATM   32  C22 UNL     1      19.893  61.883  41.723  1.00  0.00     0.178 C 
HETATM   33  C21 UNL     1      19.996  61.223  43.088  1.00  0.00     0.183 C 
HETATM   34  C20 UNL     1      20.629  62.206  44.081  1.00  0.00     0.204 C 
BRANCH  32  35
HETATM   35  O7  UNL     1      19.319  61.064  40.784  1.00  0.00    -0.390 OA
ATOM     36  H7  UNL     1      19.928  60.739  40.132  1.00  0.00     0.210 HD
ENDBRANCH  32  35
BRANCH  33  37
HETATM   37  O6  UNL     1      18.706  60.868  43.456  1.00  0.00    -0.390 OA
ATOM     38  H6  UNL     1      18.073  61.074  42.780  1.00  0.00     0.210 HD
ENDBRANCH  33  37
BRANCH  34  39
HETATM   39  O5  UNL     1      21.882  62.495  43.534  1.00  0.00    -0.388 OA
ATOM     40  H5  UNL     1      22.558  62.602  44.194  1.00  0.00     0.210 HD
ENDBRANCH  34  39
ENDBRANCH  27  28
ENDBRANCH   1  27
TORSDOF 17
ENDMDL
MODEL 5
REMARK VINA RESULT: -7.060771592      2.888      6.374
REMARK  17 active torsions:
REMARK  status: ('A' for Active; 'I' for Inactive)
REMARK    1  A    between atoms: C3_4  and  O2_5 
REMARK    2  A    between atoms: O2_5  and  C4_6 
REMARK    3  A    between atoms: C11_14  and  C12_15 
REMARK    4  A    between atoms: C12_15  and  N1_16 
REMARK    5  A    between atoms: C12_15  and  O4_20 
REMARK    6  A    between atoms: N1_16  and  N2_17 
REMARK    7  A    between atoms: O4_20  and  C13_21 
REMARK    8  A    between atoms: C13_21  and  C14_22 
REMARK    9  A    between atoms: C14_22  and  C15_23 
REMARK   10  A    between atoms: C15_23  and  C16_24 
REMARK   11  A    between atoms: C16_24  and  C17_25 
REMARK   12  A    between atoms: C17_25  and  C18_26 
REMARK   13  A    between atoms: C18_26  and  C19_27 
REMARK   14  A    between atoms: C19_27  and  N3_28 
REMARK   15  A    between atoms: C20_32  and  O5_33 
REMARK   16  A    between atoms: C21_35  and  O6_36 
REMARK   17  A    between atoms: C22_38  and  O7_39 
ROOT
HETATM    1  C4  UNL     1      21.203  62.150  44.859  1.00  0.00     0.166 C 
HETATM    2  C5  UNL     1      20.510  61.109  43.993  1.00  0.00     0.073 C 
HETATM    3  C6  UNL     1      19.936  61.964  42.908  1.00  0.00     0.064 C 
HETATM    4  C7  UNL     1      19.626  61.176  41.652  1.00  0.00     0.038 C 
HETATM    5  C8  UNL     1      18.134  61.326  41.413  1.00  0.00     0.003 C 
HETATM    6  C9  UNL     1      17.871  62.713  42.004  1.00  0.00     0.003 C 
HETATM    7  C10 UNL     1      18.640  62.625  43.312  1.00  0.00     0.038 C 
HETATM    8  O3  UNL     1      20.898  62.906  42.678  1.00  0.00    -0.363 OA
HETATM    9  C11 UNL     1      21.663  63.121  43.785  1.00  0.00     0.243 C 
ENDROOT
BRANCH   9  10
HETATM   10  C12 UNL     1      23.103  62.884  43.404  1.00  0.00     0.247 C 
BRANCH  10  11
HETATM   11  N1  UNL     1      23.426  62.676  42.296  1.00  0.00    -0.309 NA
BRANCH  11  12
HETATM   12  N2  UNL     1      23.724  62.466  41.042  1.00  0.00    -0.278 N 
ATOM     13  H22 UNL     1      24.227  63.291  41.371  1.00  0.00     0.191 HD
ATOM     14  H21 UNL     1      23.925  62.260  40.063  1.00  0.00     0.191 HD
ENDBRANCH  11  12
ENDBRANCH  10  11
BRANCH  10  15
HETATM   15  O4  UNL     1      23.992  62.934  44.474  1.00  0.00    -0.325 OA
BRANCH  15  16
HETATM   16  C13 UNL     1      24.765  64.052  44.743  1.00  0.00     0.178 C 
BRANCH  16  17
HETATM   17  C14 UNL     1      24.608  64.655  46.107  1.00  0.00     0.027 C 
BRANCH  17  18
HETATM   18  C15 UNL     1      24.348  66.144  45.989  1.00  0.00     0.002 C 
BRANCH  18  19
HETATM   19  C16 UNL     1      23.234  66.482  45.048  1.00  0.00     0.000 C 
BRANCH  19  20
HETATM   20  C17 UNL     1      22.801  67.933  45.137  1.00  0.00     0.002 C 
BRANCH  20  21
HETATM   21  C18 UNL     1      21.289  68.001  44.980  1.00  0.00     0.027 C 
BRANCH  21  22
HETATM   22  C19 UNL     1      20.796  69.124  45.858  1.00  0.00     0.229 C 
BRANCH  22  23
HETATM   23  N3  UNL     1      20.831  68.700  47.258  1.00  0.00    -0.079 N 
ATOM     24  H33 UNL     1      20.357  67.809  47.403  1.00  0.00     0.274 HD
ATOM     25  H32 UNL     1      21.766  68.417  47.552  1.00  0.00     0.274 HD
ATOM     26  H31 UNL     1      20.450  69.441  47.848  1.00  0.00     0.274 HD
ENDBRANCH  22  23
ENDBRANCH  21  22
ENDBRANCH  20  21
ENDBRANCH  19  20
ENDBRANCH  18  19
ENDBRANCH  17  18
ENDBRANCH  16  17
ENDBRANCH  15  16
ENDBRANCH  10  15
ENDBRANCH   9  10
BRANCH   1  27
HETATM   27  O2  UNL     1      20.328  62.846  45.658  1.00  0.00    -0.350 OA
BRANCH  27  28
HETATM   28  C3  UNL     1      20.867  63.935  46.306  1.00  0.00     0.292 C 
HETATM   29  O1  UNL     1      20.053  65.053  46.188  1.00  0.00    -0.351 OA
HETATM   30  C2  UNL     1      18.992  65.081  47.078  1.00  0.00     0.152 C 
HETATM   31  C1  UNL     1      18.240  66.377  46.809  1.00  0.00     0.042 C 
HETATM   32  C22 UNL     1      19.439  65.063  48.511  1.00  0.00     0.178 C 
HETATM   33  C21 UNL     1      20.947  64.881  48.542  1.00  0.00     0.183 C 
HETATM   34  C20 UNL     1      21.329  63.660  47.695  1.00  0.00     0.204 C 
BRANCH  32  35
HETATM   35  O7  UNL     1      19.024  66.150  49.238  1.00  0.00    -0.390 OA
ATOM     36  H7  UNL     1      19.707  66.791  49.397  1.00  0.00     0.210 HD
ENDBRANCH  32  35
BRANCH  33  37
HETATM   37  O6  UNL     1      21.499  66.053  48.046  1.00  0.00    -0.390 OA
ATOM     38  H6  UNL     1      22.444  66.071  48.141  1.00  0.00     0.210 HD
ENDBRANCH  33  37
BRANCH  34  39
HETATM   39  O5  UNL     1      20.653  62.595  48.295  1.00  0.00    -0.388 OA
ATOM     40  H5  UNL     1      20.693  62.617  49.244  1.00  0.00     0.210 HD
ENDBRANCH  34  39
ENDBRANCH  27  28
ENDBRANCH   1  27
TORSDOF 17
ENDMDL
