MODEL 1
REMARK VINA RESULT: -8.313660533      0.000      0.000
REMARK  14 active torsions:
REMARK  status: ('A' for Active; 'I' for Inactive)
REMARK    1  A    between atoms: C2_2  and  C4_4 
REMARK    2  A    between atoms: C4_4  and  C5_5 
REMARK    3  A    between atoms: C5_5  and  C6_6 
REMARK    4  A    between atoms: C6_6  and  O1_7 
REMARK    5  A    between atoms: C6_6  and  C19_30 
REMARK    6  A    between atoms: O1_7  and  C7_8 
REMARK    7  A    between atoms: C7_8  and  C8_9 
REMARK    8  A    between atoms: C10_12  and  O3_13 
REMARK    9  A    between atoms: O3_13  and  C11_14 
REMARK   10  A    between atoms: C15_18  and  O4_19 
REMARK   11  A    between atoms: C16_21  and  O5_22 
REMARK   12  A    between atoms: C17_24  and  O6_25 
REMARK   13  A    between atoms: C18_27  and  O7_28 
REMARK   14  A    between atoms: C21_32  and  O8_33 
ROOT
HETATM    1  C8  UNL     1      19.058  63.150  43.459  1.00  0.00     0.176 C 
HETATM    2  O2  UNL     1      20.378  63.383  43.169  1.00  0.00    -0.378 OA
HETATM    3  C9  UNL     1      20.676  63.980  41.983  1.00  0.00     0.203 C 
HETATM    4  C10 UNL     1      20.596  63.006  40.800  1.00  0.00     0.177 C 
HETATM    5  C16 UNL     1      20.446  61.630  41.423  1.00  0.00     0.180 C 
HETATM    6  C17 UNL     1      19.001  61.382  41.670  1.00  0.00     0.180 C 
HETATM    7  C18 UNL     1      18.264  62.469  42.387  1.00  0.00     0.180 C 
ENDROOT
BRANCH   1   8
HETATM    8  C7  UNL     1      18.320  64.363  43.935  1.00  0.00     0.203 C 
BRANCH   8   9
HETATM    9  O1  UNL     1      18.457  64.643  45.285  1.00  0.00    -0.377 OA
BRANCH   9  10
HETATM   10  C6  UNL     1      19.392  65.577  45.617  1.00  0.00     0.172 C 
BRANCH  10  11
HETATM   11  C5  UNL     1      18.786  66.965  45.708  1.00  0.00     0.039 C 
BRANCH  11  12
HETATM   12  C4  UNL     1      19.051  67.760  44.448  1.00  0.00     0.007 C 
BRANCH  12  13
HETATM   13  C2  UNL     1      20.277  68.627  44.618  1.00  0.00    -0.023 C 
HETATM   14  C1  UNL     1      20.556  68.992  46.040  1.00  0.00     0.009 C 
HETATM   15  C3  UNL     1      20.178  69.902  43.795  1.00  0.00     0.009 C 
ENDBRANCH  12  13
ENDBRANCH  11  12
ENDBRANCH  10  11
BRANCH  10  16
HETATM   16  C19 UNL     1      20.010  65.191  46.932  1.00  0.00     0.059 A 
HETATM   17  C20 UNL     1      19.455  64.322  47.844  1.00  0.00     0.086 A 
HETATM   18  C21 UNL     1      20.332  64.242  48.903  1.00  0.00     0.158 A 
HETATM   19  N1  UNL     1      21.377  65.042  48.622  1.00  0.00    -0.276 N 
HETATM   20  C22 UNL     1      22.501  65.197  49.534  1.00  0.00     0.180 C 
HETATM   21  N2  UNL     1      21.174  65.596  47.455  1.00  0.00    -0.298 N 
ATOM     22  H2  UNL     1      21.816  66.248  47.004  1.00  0.00     0.187 HD
BRANCH  18  23
HETATM   23  O8  UNL     1      20.172  63.480  50.048  1.00  0.00    -0.345 OA
ATOM     24  H8  UNL     1      20.548  62.624  50.213  1.00  0.00     0.219 HD
ENDBRANCH  18  23
ENDBRANCH  10  16
ENDBRANCH   9  10
ENDBRANCH   8   9
ENDBRANCH   1   8
BRANCH   7  25
HETATM   25  O7  UNL     1      17.615  63.307  41.503  1.00  0.00    -0.390 OA
ATOM     26  H7  UNL     1      16.771  63.000  41.192  1.00  0.00     0.210 HD
ENDBRANCH   7  25
BRANCH   6  27
HETATM   27  O6  UNL     1      18.347  61.182  40.434  1.00  0.00    -0.390 OA
ATOM     28  H6  UNL     1      17.663  61.834  40.334  1.00  0.00     0.210 HD
ENDBRANCH   6  27
BRANCH   4  29
HETATM   29  O3  UNL     1      21.691  63.101  39.979  1.00  0.00    -0.373 OA
BRANCH  29  30
HETATM   30  C11 UNL     1      22.760  63.668  40.647  1.00  0.00     0.151 C 
HETATM   31  C12 UNL     1      23.739  64.344  39.731  1.00  0.00     0.034 C 
HETATM   32  C13 UNL     1      24.937  64.547  40.657  1.00  0.00     0.005 C 
HETATM   33  C14 UNL     1      24.924  63.371  41.577  1.00  0.00     0.034 C 
HETATM   34  C15 UNL     1      23.646  62.592  41.286  1.00  0.00     0.147 C 
BRANCH  34  35
HETATM   35  O4  UNL     1      23.966  61.639  40.338  1.00  0.00    -0.393 OA
ATOM     36  H4  UNL     1      23.426  60.869  40.468  1.00  0.00     0.210 HD
ENDBRANCH  34  35
ENDBRANCH  29  30
ENDBRANCH   4  29
BRANCH   5  37
HETATM   37  O5  UNL     1      20.914  60.637  40.560  1.00  0.00    -0.390 OA
ATOM     38  H5  UNL     1      20.245  59.981  40.403  1.00  0.00     0.210 HD
ENDBRANCH   5  37
TORSDOF 14
ENDMDL
MODEL 2
REMARK VINA RESULT: -8.299389973      2.392      3.680
REMARK  14 active torsions:
REMARK  status: ('A' for Active; 'I' for Inactive)
REMARK    1  A    between atoms: C2_2  and  C4_4 
REMARK    2  A    between atoms: C4_4  and  C5_5 
REMARK    3  A    between atoms: C5_5  and  C6_6 
REMARK    4  A    between atoms: C6_6  and  O1_7 
REMARK    5  A    between atoms: C6_6  and  C19_30 
REMARK    6  A    between atoms: O1_7  and  C7_8 
REMARK    7  A    between atoms: C7_8  and  C8_9 
REMARK    8  A    between atoms: C10_12  and  O3_13 
REMARK    9  A    between atoms: O3_13  and  C11_14 
REMARK   10  A    between atoms: C15_18  and  O4_19 
REMARK   11  A    between atoms: C16_21  and  O5_22 
REMARK   12  A    between atoms: C17_24  and  O6_25 
REMARK   13  A    between atoms: C18_27  and  O7_28 
REMARK   14  A    between atoms: C21_32  and  O8_33 
ROOT
HETATM    1  C8  UNL     1      20.951  64.175  42.507  1.00  0.00     0.176 C 
HETATM    2  O2  UNL     1      21.551  63.220  43.288  1.00  0.00    -0.378 OA
HETATM    3  C9  UNL     1      22.859  63.394  43.621  1.00  0.00     0.203 C 
HETATM    4  C10 UNL     1      23.809  63.037  42.469  1.00  0.00     0.177 C 
HETATM    5  C16 UNL     1      22.936  62.367  41.424  1.00  0.00     0.180 C 
HETATM    6  C17 UNL     1      22.349  63.421  40.556  1.00  0.00     0.180 C 
HETATM    7  C18 UNL     1      21.695  64.564  41.266  1.00  0.00     0.180 C 
ENDROOT
BRANCH   1   8
HETATM    8  C7  UNL     1      20.551  65.407  43.257  1.00  0.00     0.203 C 
BRANCH   8   9
HETATM    9  O1  UNL     1      19.722  65.189  44.346  1.00  0.00    -0.377 OA
BRANCH   9  10
HETATM   10  C6  UNL     1      19.991  65.917  45.466  1.00  0.00     0.172 C 
BRANCH  10  11
HETATM   11  C5  UNL     1      18.778  66.704  45.924  1.00  0.00     0.039 C 
BRANCH  11  12
HETATM   12  C4  UNL     1      17.508  65.900  45.754  1.00  0.00     0.007 C 
BRANCH  12  13
HETATM   13  C2  UNL     1      16.911  65.563  47.101  1.00  0.00    -0.023 C 
HETATM   14  C1  UNL     1      15.422  65.696  47.143  1.00  0.00     0.009 C 
HETATM   15  C3  UNL     1      17.509  66.418  48.207  1.00  0.00     0.009 C 
ENDBRANCH  12  13
ENDBRANCH  11  12
ENDBRANCH  10  11
BRANCH  10  16
HETATM   16  C19 UNL     1      20.444  64.979  46.551  1.00  0.00     0.059 A 
HETATM   17  C20 UNL     1      20.190  63.626  46.585  1.00  0.00     0.086 A 
HETATM   18  C21 UNL     1      20.773  63.141  47.734  1.00  0.00     0.158 A 
HETATM   19  N1  UNL     1      21.356  64.180  48.361  1.00  0.00    -0.276 N 
HETATM   20  C22 UNL     1      22.071  64.024  49.619  1.00  0.00     0.180 C 
HETATM   21  N2  UNL     1      21.153  65.259  47.651  1.00  0.00    -0.298 N 
ATOM     22  H2  UNL     1      21.490  66.189  47.901  1.00  0.00     0.187 HD
BRANCH  18  23
HETATM   23  O8  UNL     1      20.764  61.826  48.170  1.00  0.00    -0.345 OA
ATOM     24  H8  UNL     1      21.499  61.224  48.161  1.00  0.00     0.219 HD
ENDBRANCH  18  23
ENDBRANCH  10  16
ENDBRANCH   9  10
ENDBRANCH   8   9
ENDBRANCH   1   8
BRANCH   7  25
HETATM   25  O7  UNL     1      22.554  65.635  41.398  1.00  0.00    -0.390 OA
ATOM     26  H7  UNL     1      22.445  66.154  42.187  1.00  0.00     0.210 HD
ENDBRANCH   7  25
BRANCH   6  27
HETATM   27  O6  UNL     1      23.365  63.967  39.738  1.00  0.00    -0.390 OA
ATOM     28  H6  UNL     1      23.186  64.889  39.594  1.00  0.00     0.210 HD
ENDBRANCH   6  27
BRANCH   4  29
HETATM   29  O3  UNL     1      24.846  62.243  42.885  1.00  0.00    -0.373 OA
BRANCH  29  30
HETATM   30  C11 UNL     1      25.503  62.810  43.961  1.00  0.00     0.151 C 
HETATM   31  C12 UNL     1      26.857  63.354  43.608  1.00  0.00     0.034 C 
HETATM   32  C13 UNL     1      27.468  63.576  44.990  1.00  0.00     0.005 C 
HETATM   33  C14 UNL     1      26.910  62.486  45.845  1.00  0.00     0.034 C 
HETATM   34  C15 UNL     1      25.870  61.751  45.006  1.00  0.00     0.147 C 
BRANCH  34  35
HETATM   35  O4  UNL     1      26.526  60.704  44.386  1.00  0.00    -0.393 OA
ATOM     36  H4  UNL     1      25.916  60.233  43.832  1.00  0.00     0.210 HD
ENDBRANCH  34  35
ENDBRANCH  29  30
ENDBRANCH   4  29
BRANCH   5  37
HETATM   37  O5  UNL     1      23.690  61.513  40.617  1.00  0.00    -0.390 OA
ATOM     38  H5  UNL     1      23.136  60.870  40.191  1.00  0.00     0.210 HD
ENDBRANCH   5  37
TORSDOF 14
ENDMDL
MODEL 3
REMARK VINA RESULT: -8.267036842      1.323      1.430
REMARK  14 active torsions:
REMARK  status: ('A' for Active; 'I' for Inactive)
REMARK    1  A    between atoms: C2_2  and  C4_4 
REMARK    2  A    between atoms: C4_4  and  C5_5 
REMARK    3  A    between atoms: C5_5  and  C6_6 
REMARK    4  A    between atoms: C6_6  and  O1_7 
REMARK    5  A    between atoms: C6_6  and  C19_30 
REMARK    6  A    between atoms: O1_7  and  C7_8 
REMARK    7  A    between atoms: C7_8  and  C8_9 
REMARK    8  A    between atoms: C10_12  and  O3_13 
REMARK    9  A    between atoms: O3_13  and  C11_14 
REMARK   10  A    between atoms: C15_18  and  O4_19 
REMARK   11  A    between atoms: C16_21  and  O5_22 
REMARK   12  A    between atoms: C17_24  and  O6_25 
REMARK   13  A    between atoms: C18_27  and  O7_28 
REMARK   14  A    between atoms: C21_32  and  O8_33 
ROOT
HETATM    1  C8  UNL     1      19.332  62.896  43.911  1.00  0.00     0.176 C 
HETATM    2  O2  UNL     1      20.617  63.160  43.510  1.00  0.00    -0.378 OA
HETATM    3  C9  UNL     1      20.797  63.828  42.339  1.00  0.00     0.203 C 
HETATM    4  C10 UNL     1      20.609  62.924  41.113  1.00  0.00     0.177 C 
HETATM    5  C16 UNL     1      20.528  61.513  41.665  1.00  0.00     0.180 C 
HETATM    6  C17 UNL     1      19.115  61.234  42.035  1.00  0.00     0.180 C 
HETATM    7  C18 UNL     1      18.444  62.269  42.881  1.00  0.00     0.180 C 
ENDROOT
BRANCH   1   8
HETATM    8  C7  UNL     1      18.637  64.070  44.525  1.00  0.00     0.203 C 
BRANCH   8   9
HETATM    9  O1  UNL     1      19.279  64.628  45.619  1.00  0.00    -0.377 OA
BRANCH   9  10
HETATM   10  C6  UNL     1      19.965  65.784  45.393  1.00  0.00     0.172 C 
BRANCH  10  11
HETATM   11  C5  UNL     1      19.122  67.004  45.717  1.00  0.00     0.039 C 
BRANCH  11  12
HETATM   12  C4  UNL     1      18.980  67.906  44.510  1.00  0.00     0.007 C 
BRANCH  12  13
HETATM   13  C2  UNL     1      20.187  68.806  44.377  1.00  0.00    -0.023 C 
HETATM   14  C1  UNL     1      20.608  69.433  45.667  1.00  0.00     0.009 C 
HETATM   15  C3  UNL     1      19.955  69.904  43.351  1.00  0.00     0.009 C 
ENDBRANCH  12  13
ENDBRANCH  11  12
ENDBRANCH  10  11
BRANCH  10  16
HETATM   16  C19 UNL     1      21.212  65.775  46.232  1.00  0.00     0.059 A 
HETATM   17  C20 UNL     1      21.346  66.384  47.460  1.00  0.00     0.086 A 
HETATM   18  C21 UNL     1      22.632  66.138  47.886  1.00  0.00     0.158 A 
HETATM   19  N1  UNL     1      23.240  65.404  46.937  1.00  0.00    -0.276 N 
HETATM   20  C22 UNL     1      24.621  64.962  47.064  1.00  0.00     0.180 C 
HETATM   21  N2  UNL     1      22.390  65.196  45.965  1.00  0.00    -0.298 N 
ATOM     22  H2  UNL     1      22.596  64.665  45.119  1.00  0.00     0.187 HD
BRANCH  18  23
HETATM   23  O8  UNL     1      23.200  66.567  49.075  1.00  0.00    -0.345 OA
ATOM     24  H8  UNL     1      23.227  66.086  49.894  1.00  0.00     0.219 HD
ENDBRANCH  18  23
ENDBRANCH  10  16
ENDBRANCH   9  10
ENDBRANCH   8   9
ENDBRANCH   1   8
BRANCH   7  25
HETATM   25  O7  UNL     1      17.708  63.150  42.114  1.00  0.00    -0.390 OA
ATOM     26  H7  UNL     1      17.112  62.751  41.490  1.00  0.00     0.210 HD
ENDBRANCH   7  25
BRANCH   6  27
HETATM   27  O6  UNL     1      18.346  61.099  40.856  1.00  0.00    -0.390 OA
ATOM     28  H6  UNL     1      18.565  61.804  40.259  1.00  0.00     0.210 HD
ENDBRANCH   6  27
BRANCH   4  29
HETATM   29  O3  UNL     1      21.620  63.079  40.199  1.00  0.00    -0.373 OA
BRANCH  29  30
HETATM   30  C11 UNL     1      22.732  63.655  40.785  1.00  0.00     0.151 C 
HETATM   31  C12 UNL     1      23.615  64.370  39.804  1.00  0.00     0.034 C 
HETATM   32  C13 UNL     1      24.883  64.580  40.629  1.00  0.00     0.005 C 
HETATM   33  C14 UNL     1      24.973  63.385  41.520  1.00  0.00     0.034 C 
HETATM   34  C15 UNL     1      23.689  62.585  41.322  1.00  0.00     0.147 C 
BRANCH  34  35
HETATM   35  O4  UNL     1      23.946  61.659  40.329  1.00  0.00    -0.393 OA
ATOM     36  H4  UNL     1      24.426  60.927  40.698  1.00  0.00     0.210 HD
ENDBRANCH  34  35
ENDBRANCH  29  30
ENDBRANCH   4  29
BRANCH   5  37
HETATM   37  O5  UNL     1      20.916  60.577  40.705  1.00  0.00    -0.390 OA
ATOM     38  H5  UNL     1      20.563  59.718  40.905  1.00  0.00     0.210 HD
ENDBRANCH   5  37
TORSDOF 14
ENDMDL
MODEL 4
REMARK VINA RESULT: -8.259753035      1.121      1.483
REMARK  14 active torsions:
REMARK  status: ('A' for Active; 'I' for Inactive)
REMARK    1  A    between atoms: C2_2  and  C4_4 
REMARK    2  A    between atoms: C4_4  and  C5_5 
REMARK    3  A    between atoms: C5_5  and  C6_6 
REMARK    4  A    between atoms: C6_6  and  O1_7 
REMARK    5  A    between atoms: C6_6  and  C19_30 
REMARK    6  A    between atoms: O1_7  and  C7_8 
REMARK    7  A    between atoms: C7_8  and  C8_9 
REMARK    8  A    between atoms: C10_12  and  O3_13 
REMARK    9  A    between atoms: O3_13  and  C11_14 
REMARK   10  A    between atoms: C15_18  and  O4_19 
REMARK   11  A    between atoms: C16_21  and  O5_22 
REMARK   12  A    between atoms: C17_24  and  O6_25 
REMARK   13  A    between atoms: C18_27  and  O7_28 
REMARK   14  A    between atoms: C21_32  and  O8_33 
ROOT
HETATM    1  C8  UNL     1      20.391  63.514  43.231  1.00  0.00     0.176 C 
HETATM    2  O2  UNL     1      21.426  64.217  42.668  1.00  0.00    -0.378 OA
HETATM    3  C9  UNL     1      21.337  64.542  41.350  1.00  0.00     0.203 C 
HETATM    4  C10 UNL     1      21.652  63.354  40.430  1.00  0.00     0.177 C 
HETATM    5  C16 UNL     1      22.205  62.277  41.344  1.00  0.00     0.180 C 
HETATM    6  C17 UNL     1      21.065  61.494  41.891  1.00  0.00     0.180 C 
HETATM    7  C18 UNL     1      19.948  62.294  42.483  1.00  0.00     0.180 C 
ENDROOT
BRANCH   1   8
HETATM    8  C7  UNL     1      19.200  64.356  43.566  1.00  0.00     0.203 C 
BRANCH   8   9
HETATM    9  O1  UNL     1      19.000  64.582  44.918  1.00  0.00    -0.377 OA
BRANCH   9  10
HETATM   10  C6  UNL     1      19.665  65.641  45.460  1.00  0.00     0.172 C 
BRANCH  10  11
HETATM   11  C5  UNL     1      18.770  66.860  45.578  1.00  0.00     0.039 C 
BRANCH  11  12
HETATM   12  C4  UNL     1      18.975  67.805  44.414  1.00  0.00     0.007 C 
BRANCH  12  13
HETATM   13  C2  UNL     1      20.235  68.617  44.608  1.00  0.00    -0.023 C 
HETATM   14  C1  UNL     1      20.497  68.978  46.035  1.00  0.00     0.009 C 
HETATM   15  C3  UNL     1      20.211  69.890  43.777  1.00  0.00     0.009 C 
ENDBRANCH  12  13
ENDBRANCH  11  12
ENDBRANCH  10  11
BRANCH  10  16
HETATM   16  C19 UNL     1      20.184  65.242  46.813  1.00  0.00     0.059 A 
HETATM   17  C20 UNL     1      19.551  64.381  47.682  1.00  0.00     0.086 A 
HETATM   18  C21 UNL     1      20.351  64.284  48.798  1.00  0.00     0.158 A 
HETATM   19  N1  UNL     1      21.427  65.065  48.593  1.00  0.00    -0.276 N 
HETATM   20  C22 UNL     1      22.489  65.197  49.581  1.00  0.00     0.180 C 
HETATM   21  N2  UNL     1      21.316  65.624  47.416  1.00  0.00    -0.298 N 
ATOM     22  H2  UNL     1      21.999  66.266  47.013  1.00  0.00     0.187 HD
BRANCH  18  23
HETATM   23  O8  UNL     1      20.098  63.523  49.927  1.00  0.00    -0.345 OA
ATOM     24  H8  UNL     1      20.224  62.585  50.016  1.00  0.00     0.219 HD
ENDBRANCH  18  23
ENDBRANCH  10  16
ENDBRANCH   9  10
ENDBRANCH   8   9
ENDBRANCH   1   8
BRANCH   7  25
HETATM   25  O7  UNL     1      18.929  62.491  41.574  1.00  0.00    -0.390 OA
ATOM     26  H7  UNL     1      18.855  63.372  41.225  1.00  0.00     0.210 HD
ENDBRANCH   7  25
BRANCH   6  27
HETATM   27  O6  UNL     1      20.509  60.704  40.860  1.00  0.00    -0.390 OA
ATOM     28  H6  UNL     1      21.004  60.840  40.061  1.00  0.00     0.210 HD
ENDBRANCH   6  27
BRANCH   4  29
HETATM   29  O3  UNL     1      22.522  63.698  39.427  1.00  0.00    -0.373 OA
BRANCH  29  30
HETATM   30  C11 UNL     1      23.296  64.783  39.794  1.00  0.00     0.151 C 
HETATM   31  C12 UNL     1      23.295  65.884  38.773  1.00  0.00     0.034 C 
HETATM   32  C13 UNL     1      24.461  66.747  39.251  1.00  0.00     0.005 C 
HETATM   33  C14 UNL     1      25.447  65.787  39.831  1.00  0.00     0.034 C 
HETATM   34  C15 UNL     1      24.783  64.414  39.832  1.00  0.00     0.147 C 
BRANCH  34  35
HETATM   35  O4  UNL     1      25.133  63.801  38.644  1.00  0.00    -0.393 OA
ATOM     36  H4  UNL     1      24.474  63.988  37.985  1.00  0.00     0.210 HD
ENDBRANCH  34  35
ENDBRANCH  29  30
ENDBRANCH   4  29
BRANCH   5  37
HETATM   37  O5  UNL     1      23.032  61.400  40.639  1.00  0.00    -0.390 OA
ATOM     38  H5  UNL     1      23.713  61.873  40.176  1.00  0.00     0.210 HD
ENDBRANCH   5  37
TORSDOF 14
ENDMDL
MODEL 5
REMARK VINA RESULT: -8.228784050      4.107      6.633
REMARK  14 active torsions:
REMARK  status: ('A' for Active; 'I' for Inactive)
REMARK    1  A    between atoms: C2_2  and  C4_4 
REMARK    2  A    between atoms: C4_4  and  C5_5 
REMARK    3  A    between atoms: C5_5  and  C6_6 
REMARK    4  A    between atoms: C6_6  and  O1_7 
REMARK    5  A    between atoms: C6_6  and  C19_30 
REMARK    6  A    between atoms: O1_7  and  C7_8 
REMARK    7  A    between atoms: C7_8  and  C8_9 
REMARK    8  A    between atoms: C10_12  and  O3_13 
REMARK    9  A    between atoms: O3_13  and  C11_14 
REMARK   10  A    between atoms: C15_18  and  O4_19 
REMARK   11  A    between atoms: C16_21  and  O5_22 
REMARK   12  A    between atoms: C17_24  and  O6_25 
REMARK   13  A    between atoms: C18_27  and  O7_28 
REMARK   14  A    between atoms: C21_32  and  O8_33 
ROOT
HETATM    1  C8  UNL     1      24.875  63.888  44.100  1.00  0.00     0.176 C 
HETATM    2  O2  UNL     1      25.023  63.774  45.459  1.00  0.00    -0.378 OA
HETATM    3  C9  UNL     1      26.126  64.329  46.031  1.00  0.00     0.203 C 
HETATM    4  C10 UNL     1      27.384  63.472  45.830  1.00  0.00     0.177 C 
HETATM    5  C16 UNL     1      26.885  62.157  45.260  1.00  0.00     0.180 C 
HETATM    6  C17 UNL     1      26.793  62.291  43.782  1.00  0.00     0.180 C 
HETATM    7  C18 UNL     1      26.066  63.498  43.279  1.00  0.00     0.180 C 
ENDROOT
BRANCH   1   8
HETATM    8  C7  UNL     1      24.377  65.228  43.656  1.00  0.00     0.203 C 
BRANCH   8   9
HETATM    9  O1  UNL     1      23.160  65.612  44.195  1.00  0.00    -0.377 OA
BRANCH   9  10
HETATM   10  C6  UNL     1      23.210  66.477  45.247  1.00  0.00     0.172 C 
BRANCH  10  11
HETATM   11  C5  UNL     1      22.481  67.771  44.940  1.00  0.00     0.039 C 
BRANCH  11  12
HETATM   12  C4  UNL     1      21.117  67.501  44.341  1.00  0.00     0.007 C 
BRANCH  12  13
HETATM   13  C2  UNL     1      20.037  68.164  45.165  1.00  0.00    -0.023 C 
HETATM   14  C1  UNL     1      20.571  69.015  46.272  1.00  0.00     0.009 C 
HETATM   15  C3  UNL     1      19.076  67.143  45.752  1.00  0.00     0.009 C 
ENDBRANCH  12  13
ENDBRANCH  11  12
ENDBRANCH  10  11
BRANCH  10  16
HETATM   16  C19 UNL     1      22.602  65.808  46.448  1.00  0.00     0.059 A 
HETATM   17  C20 UNL     1      22.626  66.308  47.731  1.00  0.00     0.086 A 
HETATM   18  C21 UNL     1      21.964  65.398  48.524  1.00  0.00     0.158 A 
HETATM   19  N1  UNL     1      21.560  64.389  47.731  1.00  0.00    -0.276 N 
HETATM   20  C22 UNL     1      20.821  63.245  48.248  1.00  0.00     0.180 C 
HETATM   21  N2  UNL     1      21.942  64.644  46.507  1.00  0.00    -0.298 N 
ATOM     22  H2  UNL     1      21.764  64.038  45.706  1.00  0.00     0.187 HD
BRANCH  18  23
HETATM   23  O8  UNL     1      21.751  65.499  49.889  1.00  0.00    -0.345 OA
ATOM     24  H8  UNL     1      21.025  65.127  50.376  1.00  0.00     0.219 HD
ENDBRANCH  18  23
ENDBRANCH  10  16
ENDBRANCH   9  10
ENDBRANCH   8   9
ENDBRANCH   1   8
BRANCH   7  25
HETATM   25  O7  UNL     1      26.938  64.522  42.972  1.00  0.00    -0.390 OA
ATOM     26  H7  UNL     1      27.862  64.304  43.026  1.00  0.00     0.210 HD
ENDBRANCH   7  25
BRANCH   6  27
HETATM   27  O6  UNL     1      28.097  62.335  43.238  1.00  0.00    -0.390 OA
ATOM     28  H6  UNL     1      28.065  62.056  42.331  1.00  0.00     0.210 HD
ENDBRANCH   6  27
BRANCH   4  29
HETATM   29  O3  UNL     1      28.089  63.313  46.995  1.00  0.00    -0.373 OA
BRANCH  29  30
HETATM   30  C11 UNL     1      27.460  63.956  48.045  1.00  0.00     0.151 C 
HETATM   31  C12 UNL     1      28.365  64.893  48.793  1.00  0.00     0.034 C 
HETATM   32  C13 UNL     1      27.548  65.168  50.053  1.00  0.00     0.005 C 
HETATM   33  C14 UNL     1      26.811  63.898  50.328  1.00  0.00     0.034 C 
HETATM   34  C15 UNL     1      27.078  62.966  49.151  1.00  0.00     0.147 C 
BRANCH  34  35
HETATM   35  O4  UNL     1      28.182  62.205  49.487  1.00  0.00    -0.393 OA
ATOM     36  H4  UNL     1      28.246  62.143  50.433  1.00  0.00     0.210 HD
ENDBRANCH  34  35
ENDBRANCH  29  30
ENDBRANCH   4  29
BRANCH   5  37
HETATM   37  O5  UNL     1      27.775  61.120  45.545  1.00  0.00    -0.390 OA
ATOM     38  H5  UNL     1      27.497  60.311  45.132  1.00  0.00     0.210 HD
ENDBRANCH   5  37
TORSDOF 14
ENDMDL
