MODEL 1
REMARK VINA RESULT: -7.134380995      0.000      0.000
REMARK  13 active torsions:
REMARK  status: ('A' for Active; 'I' for Inactive)
REMARK    1  A    between atoms: O1_1  and  C1_3 
REMARK    2  A    between atoms: C1_3  and  C2_4 
REMARK    3  A    between atoms: C3_6  and  O3_7 
REMARK    4  A    between atoms: O3_7  and  C4_8 
REMARK    5  A    between atoms: C4_8  and  C5_9 
REMARK    6  A    between atoms: C9_16  and  S1_17 
REMARK    7  A    between atoms: S1_17  and  C10_18 
REMARK    8  A    between atoms: C10_18  and  C11_19 
REMARK    9  A    between atoms: C12_20  and  C13_21 
REMARK   10  A    between atoms: C13_21  and  C14_22 
REMARK   11  A    between atoms: C16_25  and  O7_26 
REMARK   12  A    between atoms: C17_28  and  O8_29 
REMARK   13  A    between atoms: C18_31  and  O9_32 
ROOT
HETATM    1  C4  UNL     1      24.473  64.499  46.693  1.00  0.00     0.203 C 
ENDROOT
BRANCH   1   2
HETATM    2  O3  UNL     1      25.295  64.352  47.740  1.00  0.00    -0.356 OA
BRANCH   2   3
HETATM    3  C3  UNL     1      25.883  63.233  48.140  1.00  0.00     0.291 C 
HETATM    4  O2  UNL     1      27.197  63.227  47.667  1.00  0.00    -0.348 OA
HETATM    5  C2  UNL     1      28.082  63.984  48.364  1.00  0.00     0.179 C 
HETATM    6  C18 UNL     1      28.181  63.632  49.842  1.00  0.00     0.180 C 
HETATM    7  C17 UNL     1      26.784  63.850  50.403  1.00  0.00     0.183 C 
HETATM    8  C16 UNL     1      25.841  62.991  49.641  1.00  0.00     0.204 C 
BRANCH   5   9
HETATM    9  C1  UNL     1      27.931  65.472  48.243  1.00  0.00     0.198 C 
BRANCH   9  10
HETATM   10  O1  UNL     1      27.978  65.764  46.858  1.00  0.00    -0.398 OA
ATOM     11  H1  UNL     1      28.767  66.275  46.722  1.00  0.00     0.209 HD
ENDBRANCH   9  10
ENDBRANCH   5   9
BRANCH   6  12
HETATM   12  O9  UNL     1      28.561  62.320  49.989  1.00  0.00    -0.390 OA
ATOM     13  H9  UNL     1      27.920  61.853  50.513  1.00  0.00     0.210 HD
ENDBRANCH   6  12
BRANCH   7  14
HETATM   14  O8  UNL     1      26.784  63.404  51.731  1.00  0.00    -0.390 OA
ATOM     15  H8  UNL     1      26.600  62.472  51.722  1.00  0.00     0.210 HD
ENDBRANCH   7  14
BRANCH   8  16
HETATM   16  O7  UNL     1      24.557  63.215  50.096  1.00  0.00    -0.388 OA
ATOM     17  H7  UNL     1      24.598  63.709  50.906  1.00  0.00     0.210 HD
ENDBRANCH   8  16
ENDBRANCH   2   3
ENDBRANCH   1   2
BRANCH   1  18
HETATM   18  C5  UNL     1      24.851  65.408  45.583  1.00  0.00     0.155 C 
HETATM   19  O4  UNL     1      25.964  64.889  44.921  1.00  0.00    -0.381 OA
HETATM   20  C6  UNL     1      25.507  64.038  43.916  1.00  0.00     0.200 C 
HETATM   21  C7  UNL     1      24.080  64.362  43.629  1.00  0.00     0.158 C 
HETATM   22  O5  UNL     1      23.160  63.396  43.985  1.00  0.00    -0.359 OA
HETATM   23  C15 UNL     1      23.883  65.599  44.479  1.00  0.00     0.087 C 
HETATM   24  C8  UNL     1      21.904  63.898  43.674  1.00  0.00     0.339 C 
HETATM   25  O6  UNL     1      21.547  64.929  44.488  1.00  0.00    -0.351 OA
HETATM   26  C9  UNL     1      22.465  65.868  44.815  1.00  0.00     0.194 C 
BRANCH  26  27
HETATM   27  S1  UNL     1      22.000  67.515  44.261  1.00  0.00    -0.133 SA
BRANCH  27  28
HETATM   28  C10 UNL     1      20.806  68.372  45.238  1.00  0.00     0.103 C 
BRANCH  28  29
HETATM   29  C11 UNL     1      19.598  67.601  45.527  1.00  0.00    -0.021 C 
HETATM   30  C12 UNL     1      18.713  67.099  44.716  1.00  0.00    -0.029 C 
BRANCH  30  31
HETATM   31  C13 UNL     1      17.522  66.332  45.179  1.00  0.00     0.038 C 
BRANCH  31  32
HETATM   32  C14 UNL     1      17.672  65.759  46.548  1.00  0.00     0.090 C 
HETATM   33  S2  UNL     1      15.986  65.491  47.220  1.00  0.00    -0.097 SA
ENDBRANCH  31  32
ENDBRANCH  30  31
ENDBRANCH  28  29
ENDBRANCH  27  28
ENDBRANCH  26  27
ENDBRANCH   1  18
TORSDOF 13
ENDMDL
MODEL 2
REMARK VINA RESULT: -7.022382467      1.430      2.374
REMARK  13 active torsions:
REMARK  status: ('A' for Active; 'I' for Inactive)
REMARK    1  A    between atoms: O1_1  and  C1_3 
REMARK    2  A    between atoms: C1_3  and  C2_4 
REMARK    3  A    between atoms: C3_6  and  O3_7 
REMARK    4  A    between atoms: O3_7  and  C4_8 
REMARK    5  A    between atoms: C4_8  and  C5_9 
REMARK    6  A    between atoms: C9_16  and  S1_17 
REMARK    7  A    between atoms: S1_17  and  C10_18 
REMARK    8  A    between atoms: C10_18  and  C11_19 
REMARK    9  A    between atoms: C12_20  and  C13_21 
REMARK   10  A    between atoms: C13_21  and  C14_22 
REMARK   11  A    between atoms: C16_25  and  O7_26 
REMARK   12  A    between atoms: C17_28  and  O8_29 
REMARK   13  A    between atoms: C18_31  and  O9_32 
ROOT
HETATM    1  C4  UNL     1      24.249  64.395  46.929  1.00  0.00     0.203 C 
ENDROOT
BRANCH   1   2
HETATM    2  O3  UNL     1      25.335  64.321  47.710  1.00  0.00    -0.356 OA
BRANCH   2   3
HETATM    3  C3  UNL     1      25.954  63.219  48.111  1.00  0.00     0.291 C 
HETATM    4  O2  UNL     1      27.268  63.248  47.639  1.00  0.00    -0.348 OA
HETATM    5  C2  UNL     1      28.131  64.030  48.335  1.00  0.00     0.179 C 
HETATM    6  C18 UNL     1      28.239  63.683  49.814  1.00  0.00     0.180 C 
HETATM    7  C17 UNL     1      26.836  63.863  50.375  1.00  0.00     0.183 C 
HETATM    8  C16 UNL     1      25.918  62.978  49.613  1.00  0.00     0.204 C 
BRANCH   5   9
HETATM    9  C1  UNL     1      27.939  65.513  48.213  1.00  0.00     0.198 C 
BRANCH   9  10
HETATM   10  O1  UNL     1      27.864  65.790  46.826  1.00  0.00    -0.398 OA
ATOM     11  H1  UNL     1      26.998  66.147  46.673  1.00  0.00     0.209 HD
ENDBRANCH   9  10
ENDBRANCH   5   9
BRANCH   6  12
HETATM   12  O9  UNL     1      28.654  62.382  49.963  1.00  0.00    -0.390 OA
ATOM     13  H9  UNL     1      27.974  61.788  49.669  1.00  0.00     0.210 HD
ENDBRANCH   6  12
BRANCH   7  14
HETATM   14  O8  UNL     1      26.848  63.419  51.703  1.00  0.00    -0.390 OA
ATOM     15  H8  UNL     1      27.732  63.526  52.034  1.00  0.00     0.210 HD
ENDBRANCH   7  14
BRANCH   8  16
HETATM   16  O7  UNL     1      24.628  63.167  50.066  1.00  0.00    -0.388 OA
ATOM     17  H7  UNL     1      24.641  63.237  51.014  1.00  0.00     0.210 HD
ENDBRANCH   8  16
ENDBRANCH   2   3
ENDBRANCH   1   2
BRANCH   1  18
HETATM   18  C5  UNL     1      23.386  65.600  46.983  1.00  0.00     0.155 C 
HETATM   19  O4  UNL     1      24.009  66.644  46.299  1.00  0.00    -0.381 OA
HETATM   20  C6  UNL     1      23.627  66.569  44.961  1.00  0.00     0.200 C 
HETATM   21  C7  UNL     1      22.387  65.746  44.865  1.00  0.00     0.158 C 
HETATM   22  O5  UNL     1      22.523  64.526  44.232  1.00  0.00    -0.359 OA
HETATM   23  C15 UNL     1      22.059  65.535  46.327  1.00  0.00     0.087 C 
HETATM   24  C8  UNL     1      21.282  63.906  44.278  1.00  0.00     0.339 C 
HETATM   25  O6  UNL     1      20.945  63.525  45.541  1.00  0.00    -0.351 OA
HETATM   26  C9  UNL     1      21.199  64.355  46.578  1.00  0.00     0.194 C 
BRANCH  26  27
HETATM   27  S1  UNL     1      19.706  64.854  47.449  1.00  0.00    -0.133 SA
BRANCH  27  28
HETATM   28  C10 UNL     1      18.267  65.126  46.464  1.00  0.00     0.103 C 
BRANCH  28  29
HETATM   29  C11 UNL     1      18.442  66.112  45.399  1.00  0.00    -0.021 C 
HETATM   30  C12 UNL     1      18.986  67.293  45.434  1.00  0.00    -0.029 C 
BRANCH  30  31
HETATM   31  C13 UNL     1      19.084  68.184  44.244  1.00  0.00     0.038 C 
BRANCH  31  32
HETATM   32  C14 UNL     1      20.203  69.169  44.322  1.00  0.00     0.090 C 
HETATM   33  S2  UNL     1      20.884  69.095  46.023  1.00  0.00    -0.097 SA
ENDBRANCH  31  32
ENDBRANCH  30  31
ENDBRANCH  28  29
ENDBRANCH  27  28
ENDBRANCH  26  27
ENDBRANCH   1  18
TORSDOF 13
ENDMDL
MODEL 3
REMARK VINA RESULT: -6.999740542      4.103      6.135
REMARK  13 active torsions:
REMARK  status: ('A' for Active; 'I' for Inactive)
REMARK    1  A    between atoms: O1_1  and  C1_3 
REMARK    2  A    between atoms: C1_3  and  C2_4 
REMARK    3  A    between atoms: C3_6  and  O3_7 
REMARK    4  A    between atoms: O3_7  and  C4_8 
REMARK    5  A    between atoms: C4_8  and  C5_9 
REMARK    6  A    between atoms: C9_16  and  S1_17 
REMARK    7  A    between atoms: S1_17  and  C10_18 
REMARK    8  A    between atoms: C10_18  and  C11_19 
REMARK    9  A    between atoms: C12_20  and  C13_21 
REMARK   10  A    between atoms: C13_21  and  C14_22 
REMARK   11  A    between atoms: C16_25  and  O7_26 
REMARK   12  A    between atoms: C17_28  and  O8_29 
REMARK   13  A    between atoms: C18_31  and  O9_32 
ROOT
HETATM    1  C4  UNL     1      22.745  64.423  44.974  1.00  0.00     0.203 C 
ENDROOT
BRANCH   1   2
HETATM    2  O3  UNL     1      21.827  64.389  45.948  1.00  0.00    -0.356 OA
BRANCH   2   3
HETATM    3  C3  UNL     1      21.701  65.246  46.953  1.00  0.00     0.291 C 
HETATM    4  O2  UNL     1      20.674  66.143  46.647  1.00  0.00    -0.348 OA
HETATM    5  C2  UNL     1      19.411  65.683  46.831  1.00  0.00     0.179 C 
HETATM    6  C18 UNL     1      19.119  65.200  48.246  1.00  0.00     0.180 C 
HETATM    7  C17 UNL     1      20.105  64.068  48.497  1.00  0.00     0.183 C 
HETATM    8  C16 UNL     1      21.479  64.606  48.314  1.00  0.00     0.204 C 
BRANCH   5   9
HETATM    9  C1  UNL     1      18.932  64.637  45.868  1.00  0.00     0.198 C 
BRANCH   9  10
HETATM   10  O1  UNL     1      17.547  64.870  45.686  1.00  0.00    -0.398 OA
ATOM     11  H1  UNL     1      17.097  64.258  46.257  1.00  0.00     0.209 HD
ENDBRANCH   9  10
ENDBRANCH   5   9
BRANCH   6  12
HETATM   12  O9  UNL     1      19.318  66.221  49.142  1.00  0.00    -0.390 OA
ATOM     13  H9  UNL     1      19.677  65.878  49.951  1.00  0.00     0.210 HD
ENDBRANCH   6  12
BRANCH   7  14
HETATM   14  O8  UNL     1      19.976  63.681  49.837  1.00  0.00    -0.390 OA
ATOM     15  H8  UNL     1      19.465  64.348  50.281  1.00  0.00     0.210 HD
ENDBRANCH   7  14
BRANCH   8  16
HETATM   16  O7  UNL     1      22.390  63.582  48.482  1.00  0.00    -0.388 OA
ATOM     17  H7  UNL     1      21.977  62.878  48.969  1.00  0.00     0.210 HD
ENDBRANCH   8  16
ENDBRANCH   2   3
ENDBRANCH   1   2
BRANCH   1  18
HETATM   18  C5  UNL     1      22.340  64.795  43.596  1.00  0.00     0.155 C 
HETATM   19  O4  UNL     1      22.487  66.173  43.428  1.00  0.00    -0.381 OA
HETATM   20  C6  UNL     1      23.788  66.416  42.990  1.00  0.00     0.200 C 
HETATM   21  C7  UNL     1      24.347  65.150  42.431  1.00  0.00     0.158 C 
HETATM   22  O5  UNL     1      25.377  64.578  43.151  1.00  0.00    -0.359 OA
HETATM   23  C15 UNL     1      23.130  64.250  42.467  1.00  0.00     0.087 C 
HETATM   24  C8  UNL     1      25.728  63.407  42.495  1.00  0.00     0.339 C 
HETATM   25  O6  UNL     1      24.761  62.453  42.594  1.00  0.00    -0.351 OA
HETATM   26  C9  UNL     1      23.461  62.806  42.463  1.00  0.00     0.194 C 
BRANCH  26  27
HETATM   27  S1  UNL     1      22.659  61.993  41.074  1.00  0.00    -0.133 SA
BRANCH  27  28
HETATM   28  C10 UNL     1      21.247  62.802  40.390  1.00  0.00     0.103 C 
BRANCH  28  29
HETATM   29  C11 UNL     1      19.972  62.387  40.974  1.00  0.00    -0.021 C 
HETATM   30  C12 UNL     1      19.663  61.302  41.622  1.00  0.00    -0.029 C 
BRANCH  30  31
HETATM   31  C13 UNL     1      18.299  61.030  42.155  1.00  0.00     0.038 C 
BRANCH  31  32
HETATM   32  C14 UNL     1      18.132  61.394  43.592  1.00  0.00     0.090 C 
HETATM   33  S2  UNL     1      19.740  61.105  44.424  1.00  0.00    -0.097 SA
ENDBRANCH  31  32
ENDBRANCH  30  31
ENDBRANCH  28  29
ENDBRANCH  27  28
ENDBRANCH  26  27
ENDBRANCH   1  18
TORSDOF 13
ENDMDL
MODEL 4
REMARK VINA RESULT: -6.985149439      2.466      4.232
REMARK  13 active torsions:
REMARK  status: ('A' for Active; 'I' for Inactive)
REMARK    1  A    between atoms: O1_1  and  C1_3 
REMARK    2  A    between atoms: C1_3  and  C2_4 
REMARK    3  A    between atoms: C3_6  and  O3_7 
REMARK    4  A    between atoms: O3_7  and  C4_8 
REMARK    5  A    between atoms: C4_8  and  C5_9 
REMARK    6  A    between atoms: C9_16  and  S1_17 
REMARK    7  A    between atoms: S1_17  and  C10_18 
REMARK    8  A    between atoms: C10_18  and  C11_19 
REMARK    9  A    between atoms: C12_20  and  C13_21 
REMARK   10  A    between atoms: C13_21  and  C14_22 
REMARK   11  A    between atoms: C16_25  and  O7_26 
REMARK   12  A    between atoms: C17_28  and  O8_29 
REMARK   13  A    between atoms: C18_31  and  O9_32 
ROOT
HETATM    1  C4  UNL     1      23.128  63.751  47.402  1.00  0.00     0.203 C 
ENDROOT
BRANCH   1   2
HETATM    2  O3  UNL     1      24.430  64.053  47.497  1.00  0.00    -0.356 OA
BRANCH   2   3
HETATM    3  C3  UNL     1      24.952  65.208  47.884  1.00  0.00     0.291 C 
HETATM    4  O2  UNL     1      25.247  65.129  49.247  1.00  0.00    -0.348 OA
HETATM    5  C2  UNL     1      26.385  64.464  49.571  1.00  0.00     0.179 C 
HETATM    6  C18 UNL     1      27.643  65.018  48.915  1.00  0.00     0.180 C 
HETATM    7  C17 UNL     1      27.403  64.900  47.417  1.00  0.00     0.183 C 
HETATM    8  C16 UNL     1      26.167  65.658  47.087  1.00  0.00     0.204 C 
BRANCH   5   9
HETATM    9  C1  UNL     1      26.369  62.977  49.377  1.00  0.00     0.198 C 
BRANCH   9  10
HETATM   10  O1  UNL     1      25.264  62.493  50.118  1.00  0.00    -0.398 OA
ATOM     11  H1  UNL     1      25.625  62.078  50.893  1.00  0.00     0.209 HD
ENDBRANCH   9  10
ENDBRANCH   5   9
BRANCH   6  12
HETATM   12  O9  UNL     1      27.821  66.332  49.273  1.00  0.00    -0.390 OA
ATOM     13  H9  UNL     1      27.612  66.450  50.192  1.00  0.00     0.210 HD
ENDBRANCH   6  12
BRANCH   7  14
HETATM   14  O8  UNL     1      28.472  65.527  46.764  1.00  0.00    -0.390 OA
ATOM     15  H8  UNL     1      28.959  66.018  47.415  1.00  0.00     0.210 HD
ENDBRANCH   7  14
BRANCH   8  16
HETATM   16  O7  UNL     1      25.897  65.518  45.741  1.00  0.00    -0.388 OA
ATOM     17  H7  UNL     1      25.080  65.045  45.637  1.00  0.00     0.210 HD
ENDBRANCH   8  16
ENDBRANCH   2   3
ENDBRANCH   1   2
BRANCH   1  18
HETATM   18  C5  UNL     1      22.374  64.124  46.180  1.00  0.00     0.155 C 
HETATM   19  O4  UNL     1      22.016  62.966  45.488  1.00  0.00    -0.381 OA
HETATM   20  C6  UNL     1      20.784  62.536  45.980  1.00  0.00     0.200 C 
HETATM   21  C7  UNL     1      20.124  63.679  46.676  1.00  0.00     0.158 C 
HETATM   22  O5  UNL     1      19.994  63.555  48.045  1.00  0.00    -0.359 OA
HETATM   23  C15 UNL     1      21.073  64.811  46.348  1.00  0.00     0.087 C 
HETATM   24  C8  UNL     1      19.397  64.722  48.503  1.00  0.00     0.339 C 
HETATM   25  O6  UNL     1      20.226  65.797  48.401  1.00  0.00    -0.351 OA
HETATM   26  C9  UNL     1      20.987  65.950  47.293  1.00  0.00     0.194 C 
BRANCH  26  27
HETATM   27  S1  UNL     1      20.616  67.466  46.400  1.00  0.00    -0.133 SA
BRANCH  27  28
HETATM   28  C10 UNL     1      19.227  67.425  45.311  1.00  0.00     0.103 C 
BRANCH  28  29
HETATM   29  C11 UNL     1      19.284  68.401  44.225  1.00  0.00    -0.021 C 
HETATM   30  C12 UNL     1      20.113  69.384  44.026  1.00  0.00    -0.029 C 
BRANCH  30  31
HETATM   31  C13 UNL     1      20.029  70.300  42.854  1.00  0.00     0.038 C 
BRANCH  31  32
HETATM   32  C14 UNL     1      20.447  69.669  41.567  1.00  0.00     0.090 C 
HETATM   33  S2  UNL     1      19.339  70.310  40.255  1.00  0.00    -0.097 SA
ENDBRANCH  31  32
ENDBRANCH  30  31
ENDBRANCH  28  29
ENDBRANCH  27  28
ENDBRANCH  26  27
ENDBRANCH   1  18
TORSDOF 13
ENDMDL
MODEL 5
REMARK VINA RESULT: -6.984756840      2.486      5.144
REMARK  13 active torsions:
REMARK  status: ('A' for Active; 'I' for Inactive)
REMARK    1  A    between atoms: O1_1  and  C1_3 
REMARK    2  A    between atoms: C1_3  and  C2_4 
REMARK    3  A    between atoms: C3_6  and  O3_7 
REMARK    4  A    between atoms: O3_7  and  C4_8 
REMARK    5  A    between atoms: C4_8  and  C5_9 
REMARK    6  A    between atoms: C9_16  and  S1_17 
REMARK    7  A    between atoms: S1_17  and  C10_18 
REMARK    8  A    between atoms: C10_18  and  C11_19 
REMARK    9  A    between atoms: C12_20  and  C13_21 
REMARK   10  A    between atoms: C13_21  and  C14_22 
REMARK   11  A    between atoms: C16_25  and  O7_26 
REMARK   12  A    between atoms: C17_28  and  O8_29 
REMARK   13  A    between atoms: C18_31  and  O9_32 
ROOT
HETATM    1  C4  UNL     1      22.370  64.905  46.292  1.00  0.00     0.203 C 
ENDROOT
BRANCH   1   2
HETATM    2  O3  UNL     1      23.482  64.347  45.796  1.00  0.00    -0.356 OA
BRANCH   2   3
HETATM    3  C3  UNL     1      24.338  64.898  44.945  1.00  0.00     0.291 C 
HETATM    4  O2  UNL     1      25.625  64.792  45.477  1.00  0.00    -0.348 OA
HETATM    5  C2  UNL     1      26.222  63.579  45.350  1.00  0.00     0.179 C 
HETATM    6  C18 UNL     1      26.333  63.082  43.914  1.00  0.00     0.180 C 
HETATM    7  C17 UNL     1      24.901  62.992  43.406  1.00  0.00     0.183 C 
HETATM    8  C16 UNL     1      24.282  64.337  43.532  1.00  0.00     0.204 C 
BRANCH   5   9
HETATM    9  C1  UNL     1      25.665  62.468  46.190  1.00  0.00     0.198 C 
BRANCH   9  10
HETATM   10  O1  UNL     1      25.477  63.008  47.486  1.00  0.00    -0.398 OA
ATOM     11  H1  UNL     1      26.344  63.219  47.814  1.00  0.00     0.209 HD
ENDBRANCH   9  10
ENDBRANCH   5   9
BRANCH   6  12
HETATM   12  O9  UNL     1      27.057  63.975  43.162  1.00  0.00    -0.390 OA
ATOM     13  H9  UNL     1      27.854  63.565  42.849  1.00  0.00     0.210 HD
ENDBRANCH   6  12
BRANCH   7  14
HETATM   14  O8  UNL     1      24.953  62.675  42.043  1.00  0.00    -0.390 OA
ATOM     15  H8  UNL     1      25.606  63.237  41.642  1.00  0.00     0.210 HD
ENDBRANCH   7  14
BRANCH   8  16
HETATM   16  O7  UNL     1      22.963  64.266  43.130  1.00  0.00    -0.388 OA
ATOM     17  H7  UNL     1      22.849  63.499  42.582  1.00  0.00     0.210 HD
ENDBRANCH   8  16
ENDBRANCH   2   3
ENDBRANCH   1   2
BRANCH   1  18
HETATM   18  C5  UNL     1      21.042  64.421  45.843  1.00  0.00     0.155 C 
HETATM   19  O4  UNL     1      21.186  63.167  45.247  1.00  0.00    -0.381 OA
HETATM   20  C6  UNL     1      21.075  62.201  46.246  1.00  0.00     0.200 C 
HETATM   21  C7  UNL     1      20.397  62.813  47.426  1.00  0.00     0.158 C 
HETATM   22  O5  UNL     1      21.179  62.972  48.553  1.00  0.00    -0.359 OA
HETATM   23  C15 UNL     1      20.009  64.167  46.873  1.00  0.00     0.087 C 
HETATM   24  C8  UNL     1      20.385  63.583  49.515  1.00  0.00     0.339 C 
HETATM   25  O6  UNL     1      20.096  64.875  49.196  1.00  0.00    -0.351 OA
HETATM   26  C9  UNL     1      19.782  65.192  47.919  1.00  0.00     0.194 C 
BRANCH  26  27
HETATM   27  S1  UNL     1      18.126  65.878  47.763  1.00  0.00    -0.133 SA
BRANCH  27  28
HETATM   28  C10 UNL     1      17.346  65.714  46.188  1.00  0.00     0.103 C 
BRANCH  28  29
HETATM   29  C11 UNL     1      17.828  66.652  45.176  1.00  0.00    -0.021 C 
HETATM   30  C12 UNL     1      18.893  67.399  45.168  1.00  0.00    -0.029 C 
BRANCH  30  31
HETATM   31  C13 UNL     1      19.242  68.313  44.044  1.00  0.00     0.038 C 
BRANCH  31  32
HETATM   32  C14 UNL     1      20.327  69.283  44.374  1.00  0.00     0.090 C 
HETATM   33  S2  UNL     1      20.919  68.892  46.065  1.00  0.00    -0.097 SA
ENDBRANCH  31  32
ENDBRANCH  30  31
ENDBRANCH  28  29
ENDBRANCH  27  28
ENDBRANCH  26  27
ENDBRANCH   1  18
TORSDOF 13
ENDMDL
