MODEL 1
REMARK VINA RESULT: -7.610113379      0.000      0.000
REMARK  13 active torsions:
REMARK  status: ('A' for Active; 'I' for Inactive)
REMARK    1  A    between atoms: C2_2  and  C3_3 
REMARK    2  A    between atoms: C3_3  and  C4_4 
REMARK    3  A    between atoms: C4_4  and  C5_5 
REMARK    4  A    between atoms: C5_5  and  C6_6 
REMARK    5  A    between atoms: C6_6  and  C7_7 
REMARK    6  A    between atoms: C7_7  and  S1_8 
REMARK    7  A    between atoms: S1_8  and  C8_9 
REMARK    8  A    between atoms: N2_12  and  C9_13 
REMARK    9  A    between atoms: C10_16  and  C11_17 
REMARK   10  A    between atoms: C11_17  and  O2_18 
REMARK   11  A    between atoms: C13_24  and  N5_25 
REMARK   12  A    between atoms: C14_30  and  N7_31 
REMARK   13  A    between atoms: N7_31  and  C15_32 
ROOT
HETATM    1  C8  UNL     1      21.031  64.737  44.820  1.00  0.00     0.103 A 
HETATM    2  N1  UNL     1      19.833  65.374  44.862  1.00  0.00    -0.285 N 
ATOM      3  H1  UNL     1      19.210  65.499  44.063  1.00  0.00     0.188 HD
HETATM    4  N2  UNL     1      19.589  65.806  46.074  1.00  0.00    -0.219 N 
HETATM    5  C12 UNL     1      20.614  65.476  46.893  1.00  0.00     0.160 A 
HETATM    6  N4  UNL     1      20.874  65.671  48.196  1.00  0.00    -0.174 N 
ATOM      7  H4  UNL     1      20.202  66.168  48.781  1.00  0.00     0.186 HD
HETATM    8  C13 UNL     1      22.022  65.208  48.731  1.00  0.00     0.679 A 
HETATM    9  N6  UNL     1      22.922  64.558  48.018  1.00  0.00    -0.164 N 
ATOM     10  H6  UNL     1      23.776  64.227  48.466  1.00  0.00     0.187 HD
HETATM   11  C14 UNL     1      22.719  64.317  46.657  1.00  0.00     0.207 A 
HETATM   12  C19 UNL     1      21.533  64.797  46.105  1.00  0.00     0.103 A 
ENDROOT
BRANCH   1  13
HETATM   13  S1  UNL     1      21.743  64.002  43.368  1.00  0.00    -0.110 SA
BRANCH  13  14
HETATM   14  C7  UNL     1      21.289  62.290  43.171  1.00  0.00     0.081 C 
BRANCH  14  15
HETATM   15  C6  UNL     1      20.677  61.635  44.367  1.00  0.00     0.010 C 
BRANCH  15  16
HETATM   16  C5  UNL     1      19.344  60.982  44.051  1.00  0.00     0.001 C 
BRANCH  16  17
HETATM   17  C4  UNL     1      18.318  61.959  43.606  1.00  0.00     0.004 C 
BRANCH  17  18
HETATM   18  C3  UNL     1      17.576  61.656  42.362  1.00  0.00     0.026 C 
BRANCH  18  19
HETATM   19  C2  UNL     1      17.604  62.638  41.288  1.00  0.00    -0.037 C 
HETATM   20  C1  UNL     1      18.290  62.549  40.186  1.00  0.00     0.007 C 
ENDBRANCH  18  19
ENDBRANCH  17  18
ENDBRANCH  16  17
ENDBRANCH  15  16
ENDBRANCH  14  15
ENDBRANCH  13  14
ENDBRANCH   1  13
BRANCH   4  21
HETATM   21  C9  UNL     1      18.387  66.527  46.458  1.00  0.00     0.418 C 
HETATM   22  O1  UNL     1      18.388  66.710  47.845  1.00  0.00    -0.229 OA
HETATM   23  N3  UNL     1      17.114  66.507  48.250  1.00  0.00    -0.061 NA
HETATM   24  C10 UNL     1      16.685  65.456  47.345  1.00  0.00     0.270 C 
HETATM   25  O3  UNL     1      17.216  65.896  46.135  1.00  0.00    -0.315 OA
BRANCH  24  26
HETATM   26  C11 UNL     1      15.164  65.521  47.307  1.00  0.00     0.215 C 
BRANCH  26  27
HETATM   27  O2  UNL     1      14.578  64.362  47.750  1.00  0.00    -0.397 OA
ATOM     28  H2  UNL     1      13.676  64.278  47.464  1.00  0.00     0.209 HD
ENDBRANCH  26  27
ENDBRANCH  24  26
ENDBRANCH   4  21
BRANCH  11  29
HETATM   29  N7  UNL     1      23.529  63.728  46.013  1.00  0.00    -0.397 NA
BRANCH  29  30
HETATM   30  C15 UNL     1      24.443  63.065  45.284  1.00  0.00     0.302 C 
HETATM   31  C16 UNL     1      25.490  64.047  44.720  1.00  0.00     0.070 C 
HETATM   32  C17 UNL     1      26.354  64.169  45.983  1.00  0.00     0.032 C 
HETATM   33  C18 UNL     1      26.430  62.665  46.295  1.00  0.00     0.171 C 
HETATM   34  O4  UNL     1      25.181  62.170  46.059  1.00  0.00    -0.355 OA
ENDBRANCH  29  30
ENDBRANCH  11  29
BRANCH   8  35
HETATM   35  N5  UNL     1      22.230  65.420  49.983  1.00  0.00    -0.234 N 
ATOM     36  H52 UNL     1      21.470  65.761  50.572  1.00  0.00     0.174 HD
ATOM     37  H51 UNL     1      23.164  65.235  50.348  1.00  0.00     0.174 HD
ENDBRANCH   8  35
TORSDOF 13
ENDMDL
MODEL 2
REMARK VINA RESULT: -7.604890987      4.626      6.960
REMARK  13 active torsions:
REMARK  status: ('A' for Active; 'I' for Inactive)
REMARK    1  A    between atoms: C2_2  and  C3_3 
REMARK    2  A    between atoms: C3_3  and  C4_4 
REMARK    3  A    between atoms: C4_4  and  C5_5 
REMARK    4  A    between atoms: C5_5  and  C6_6 
REMARK    5  A    between atoms: C6_6  and  C7_7 
REMARK    6  A    between atoms: C7_7  and  S1_8 
REMARK    7  A    between atoms: S1_8  and  C8_9 
REMARK    8  A    between atoms: N2_12  and  C9_13 
REMARK    9  A    between atoms: C10_16  and  C11_17 
REMARK   10  A    between atoms: C11_17  and  O2_18 
REMARK   11  A    between atoms: C13_24  and  N5_25 
REMARK   12  A    between atoms: C14_30  and  N7_31 
REMARK   13  A    between atoms: N7_31  and  C15_32 
ROOT
HETATM    1  C8  UNL     1      24.207  64.278  44.985  1.00  0.00     0.103 A 
HETATM    2  N1  UNL     1      23.588  63.861  43.850  1.00  0.00    -0.285 N 
ATOM      3  H1  UNL     1      22.585  63.933  43.672  1.00  0.00     0.188 HD
HETATM    4  N2  UNL     1      24.461  63.355  43.015  1.00  0.00    -0.219 N 
HETATM    5  C12 UNL     1      25.700  63.411  43.556  1.00  0.00     0.160 A 
HETATM    6  N4  UNL     1      26.922  63.038  43.143  1.00  0.00    -0.174 N 
ATOM      7  H4  UNL     1      27.041  62.609  42.225  1.00  0.00     0.186 HD
HETATM    8  C13 UNL     1      27.991  63.232  43.941  1.00  0.00     0.679 A 
HETATM    9  N6  UNL     1      27.891  63.784  45.135  1.00  0.00    -0.164 N 
ATOM     10  H6  UNL     1      28.728  63.910  45.704  1.00  0.00     0.187 HD
HETATM   11  C14 UNL     1      26.652  64.198  45.631  1.00  0.00     0.207 A 
HETATM   12  C19 UNL     1      25.547  63.996  44.806  1.00  0.00     0.103 A 
ENDROOT
BRANCH   1  13
HETATM   13  S1  UNL     1      23.391  65.023  46.375  1.00  0.00    -0.110 SA
BRANCH  13  14
HETATM   14  C7  UNL     1      22.217  66.274  45.893  1.00  0.00     0.081 C 
BRANCH  14  15
HETATM   15  C6  UNL     1      21.734  67.171  46.986  1.00  0.00     0.010 C 
BRANCH  15  16
HETATM   16  C5  UNL     1      20.833  68.279  46.471  1.00  0.00     0.001 C 
BRANCH  16  17
HETATM   17  C4  UNL     1      19.669  67.762  45.707  1.00  0.00     0.004 C 
BRANCH  17  18
HETATM   18  C3  UNL     1      19.380  68.382  44.395  1.00  0.00     0.026 C 
BRANCH  18  19
HETATM   19  C2  UNL     1      20.163  69.542  43.994  1.00  0.00    -0.037 C 
HETATM   20  C1  UNL     1      20.001  70.236  42.906  1.00  0.00     0.007 C 
ENDBRANCH  18  19
ENDBRANCH  17  18
ENDBRANCH  16  17
ENDBRANCH  15  16
ENDBRANCH  14  15
ENDBRANCH  13  14
ENDBRANCH   1  13
BRANCH   4  21
HETATM   21  C9  UNL     1      24.124  62.821  41.706  1.00  0.00     0.418 C 
HETATM   22  O1  UNL     1      23.908  63.884  40.822  1.00  0.00    -0.229 OA
HETATM   23  N3  UNL     1      22.846  63.529  40.063  1.00  0.00    -0.061 NA
HETATM   24  C10 UNL     1      22.036  62.798  41.020  1.00  0.00     0.270 C 
HETATM   25  O3  UNL     1      23.000  62.040  41.680  1.00  0.00    -0.315 OA
BRANCH  24  26
HETATM   26  C11 UNL     1      21.124  61.893  40.202  1.00  0.00     0.215 C 
BRANCH  26  27
HETATM   27  O2  UNL     1      21.744  60.731  39.817  1.00  0.00    -0.397 OA
ATOM     28  H2  UNL     1      21.343  60.342  39.049  1.00  0.00     0.209 HD
ENDBRANCH  26  27
ENDBRANCH  24  26
ENDBRANCH   4  21
BRANCH  11  29
HETATM   29  N7  UNL     1      26.560  64.698  46.707  1.00  0.00    -0.397 NA
BRANCH  29  30
HETATM   30  C15 UNL     1      26.458  65.262  47.923  1.00  0.00     0.302 C 
HETATM   31  C16 UNL     1      26.214  64.179  48.993  1.00  0.00     0.070 C 
HETATM   32  C17 UNL     1      27.670  63.720  49.153  1.00  0.00     0.032 C 
HETATM   33  C18 UNL     1      28.291  65.124  49.246  1.00  0.00     0.171 C 
HETATM   34  O4  UNL     1      27.646  65.881  48.314  1.00  0.00    -0.355 OA
ENDBRANCH  29  30
ENDBRANCH  11  29
BRANCH   8  35
HETATM   35  N5  UNL     1      29.142  62.857  43.505  1.00  0.00    -0.234 N 
ATOM     36  H52 UNL     1      29.206  62.075  42.852  1.00  0.00     0.174 HD
ATOM     37  H51 UNL     1      29.963  63.365  43.831  1.00  0.00     0.174 HD
ENDBRANCH   8  35
TORSDOF 13
ENDMDL
MODEL 3
REMARK VINA RESULT: -7.570827672      2.875      6.392
REMARK  13 active torsions:
REMARK  status: ('A' for Active; 'I' for Inactive)
REMARK    1  A    between atoms: C2_2  and  C3_3 
REMARK    2  A    between atoms: C3_3  and  C4_4 
REMARK    3  A    between atoms: C4_4  and  C5_5 
REMARK    4  A    between atoms: C5_5  and  C6_6 
REMARK    5  A    between atoms: C6_6  and  C7_7 
REMARK    6  A    between atoms: C7_7  and  S1_8 
REMARK    7  A    between atoms: S1_8  and  C8_9 
REMARK    8  A    between atoms: N2_12  and  C9_13 
REMARK    9  A    between atoms: C10_16  and  C11_17 
REMARK   10  A    between atoms: C11_17  and  O2_18 
REMARK   11  A    between atoms: C13_24  and  N5_25 
REMARK   12  A    between atoms: C14_30  and  N7_31 
REMARK   13  A    between atoms: N7_31  and  C15_32 
ROOT
HETATM    1  C8  UNL     1      22.199  65.729  44.629  1.00  0.00     0.103 A 
HETATM    2  N1  UNL     1      23.098  66.178  45.542  1.00  0.00    -0.285 N 
ATOM      3  H1  UNL     1      23.676  67.011  45.431  1.00  0.00     0.188 HD
HETATM    4  N2  UNL     1      23.118  65.388  46.587  1.00  0.00    -0.219 N 
HETATM    5  C12 UNL     1      22.233  64.379  46.417  1.00  0.00     0.160 A 
HETATM    6  N4  UNL     1      21.863  63.320  47.155  1.00  0.00    -0.174 N 
ATOM      7  H4  UNL     1      22.290  63.161  48.067  1.00  0.00     0.186 HD
HETATM    8  C13 UNL     1      20.927  62.468  46.690  1.00  0.00     0.679 A 
HETATM    9  N6  UNL     1      20.343  62.630  45.518  1.00  0.00    -0.164 N 
ATOM     10  H6  UNL     1      19.641  61.960  45.208  1.00  0.00     0.187 HD
HETATM   11  C14 UNL     1      20.677  63.710  44.695  1.00  0.00     0.207 A 
HETATM   12  C19 UNL     1      21.645  64.589  45.176  1.00  0.00     0.103 A 
ENDROOT
BRANCH   1  13
HETATM   13  S1  UNL     1      21.860  66.506  43.068  1.00  0.00    -0.110 SA
BRANCH  13  14
HETATM   14  C7  UNL     1      20.529  67.687  43.163  1.00  0.00     0.081 C 
BRANCH  14  15
HETATM   15  C6  UNL     1      20.008  67.974  44.533  1.00  0.00     0.010 C 
BRANCH  15  16
HETATM   16  C5  UNL     1      18.681  67.288  44.804  1.00  0.00     0.001 C 
BRANCH  16  17
HETATM   17  C4  UNL     1      18.668  66.555  46.095  1.00  0.00     0.004 C 
BRANCH  17  18
HETATM   18  C3  UNL     1      17.604  65.549  46.302  1.00  0.00     0.026 C 
BRANCH  18  19
HETATM   19  C2  UNL     1      16.701  65.724  47.431  1.00  0.00    -0.037 C 
HETATM   20  C1  UNL     1      15.411  65.553  47.414  1.00  0.00     0.007 C 
ENDBRANCH  18  19
ENDBRANCH  17  18
ENDBRANCH  16  17
ENDBRANCH  15  16
ENDBRANCH  14  15
ENDBRANCH  13  14
ENDBRANCH   1  13
BRANCH   4  21
HETATM   21  C9  UNL     1      23.970  65.589  47.747  1.00  0.00     0.418 C 
HETATM   22  O1  UNL     1      25.227  66.031  47.319  1.00  0.00    -0.229 OA
HETATM   23  N3  UNL     1      26.132  65.391  48.092  1.00  0.00    -0.061 NA
HETATM   24  C10 UNL     1      25.497  64.099  48.275  1.00  0.00     0.270 C 
HETATM   25  O3  UNL     1      24.174  64.469  48.507  1.00  0.00    -0.315 OA
BRANCH  24  26
HETATM   26  C11 UNL     1      26.104  63.500  49.538  1.00  0.00     0.215 C 
BRANCH  26  27
HETATM   27  O2  UNL     1      25.328  62.503  50.072  1.00  0.00    -0.397 OA
ATOM     28  H2  UNL     1      25.531  61.649  49.708  1.00  0.00     0.209 HD
ENDBRANCH  26  27
ENDBRANCH  24  26
ENDBRANCH   4  21
BRANCH  11  29
HETATM   29  N7  UNL     1      20.149  63.859  43.639  1.00  0.00    -0.397 NA
BRANCH  29  30
HETATM   30  C15 UNL     1      19.552  64.025  42.446  1.00  0.00     0.302 C 
HETATM   31  C16 UNL     1      20.141  63.041  41.415  1.00  0.00     0.070 C 
HETATM   32  C17 UNL     1      19.329  61.806  41.826  1.00  0.00     0.032 C 
HETATM   33  C18 UNL     1      17.962  62.506  41.903  1.00  0.00     0.171 C 
HETATM   34  O4  UNL     1      18.194  63.714  42.493  1.00  0.00    -0.355 OA
ENDBRANCH  29  30
ENDBRANCH  11  29
BRANCH   8  35
HETATM   35  N5  UNL     1      20.606  61.466  47.431  1.00  0.00    -0.234 N 
ATOM     36  H52 UNL     1      21.328  60.819  47.748  1.00  0.00     0.174 HD
ATOM     37  H51 UNL     1      19.624  61.355  47.681  1.00  0.00     0.174 HD
ENDBRANCH   8  35
TORSDOF 13
ENDMDL
MODEL 4
REMARK VINA RESULT: -7.493097176      3.524      6.933
REMARK  13 active torsions:
REMARK  status: ('A' for Active; 'I' for Inactive)
REMARK    1  A    between atoms: C2_2  and  C3_3 
REMARK    2  A    between atoms: C3_3  and  C4_4 
REMARK    3  A    between atoms: C4_4  and  C5_5 
REMARK    4  A    between atoms: C5_5  and  C6_6 
REMARK    5  A    between atoms: C6_6  and  C7_7 
REMARK    6  A    between atoms: C7_7  and  S1_8 
REMARK    7  A    between atoms: S1_8  and  C8_9 
REMARK    8  A    between atoms: N2_12  and  C9_13 
REMARK    9  A    between atoms: C10_16  and  C11_17 
REMARK   10  A    between atoms: C11_17  and  O2_18 
REMARK   11  A    between atoms: C13_24  and  N5_25 
REMARK   12  A    between atoms: C14_30  and  N7_31 
REMARK   13  A    between atoms: N7_31  and  C15_32 
ROOT
HETATM    1  C8  UNL     1      22.272  65.916  44.506  1.00  0.00     0.103 A 
HETATM    2  N1  UNL     1      22.628  65.969  43.197  1.00  0.00    -0.285 N 
ATOM      3  H1  UNL     1      23.075  66.768  42.746  1.00  0.00     0.188 HD
HETATM    4  N2  UNL     1      22.317  64.848  42.594  1.00  0.00    -0.219 N 
HETATM    5  C12 UNL     1      21.740  63.999  43.475  1.00  0.00     0.160 A 
HETATM    6  N4  UNL     1      21.242  62.755  43.390  1.00  0.00    -0.174 N 
ATOM      7  H4  UNL     1      21.264  62.257  42.500  1.00  0.00     0.186 HD
HETATM    8  C13 UNL     1      20.715  62.164  44.482  1.00  0.00     0.679 A 
HETATM    9  N6  UNL     1      20.664  62.764  45.656  1.00  0.00    -0.164 N 
ATOM     10  H6  UNL     1      20.256  62.278  46.453  1.00  0.00     0.187 HD
HETATM   11  C14 UNL     1      21.164  64.059  45.820  1.00  0.00     0.207 A 
HETATM   12  C19 UNL     1      21.707  64.669  44.691  1.00  0.00     0.103 A 
ENDROOT
BRANCH   1  13
HETATM   13  S1  UNL     1      22.512  67.226  45.681  1.00  0.00    -0.110 SA
BRANCH  13  14
HETATM   14  C7  UNL     1      21.210  68.441  45.632  1.00  0.00     0.081 C 
BRANCH  14  15
HETATM   15  C6  UNL     1      19.835  67.936  45.931  1.00  0.00     0.010 C 
BRANCH  15  16
HETATM   16  C5  UNL     1      18.990  67.779  44.680  1.00  0.00     0.001 C 
BRANCH  16  17
HETATM   17  C4  UNL     1      17.997  66.681  44.793  1.00  0.00     0.004 C 
BRANCH  17  18
HETATM   18  C3  UNL     1      17.931  65.946  46.075  1.00  0.00     0.026 C 
BRANCH  18  19
HETATM   19  C2  UNL     1      16.622  65.543  46.570  1.00  0.00    -0.037 C 
HETATM   20  C1  UNL     1      16.113  65.851  47.727  1.00  0.00     0.007 C 
ENDBRANCH  18  19
ENDBRANCH  17  18
ENDBRANCH  16  17
ENDBRANCH  15  16
ENDBRANCH  14  15
ENDBRANCH  13  14
ENDBRANCH   1  13
BRANCH   4  21
HETATM   21  C9  UNL     1      22.568  64.580  41.188  1.00  0.00     0.418 C 
HETATM   22  O1  UNL     1      22.913  63.233  41.035  1.00  0.00    -0.229 OA
HETATM   23  N3  UNL     1      23.912  63.203  40.124  1.00  0.00    -0.061 NA
HETATM   24  C10 UNL     1      24.629  64.426  40.439  1.00  0.00     0.270 C 
HETATM   25  O3  UNL     1      23.581  65.321  40.638  1.00  0.00    -0.315 OA
BRANCH  24  26
HETATM   26  C11 UNL     1      25.407  64.799  39.184  1.00  0.00     0.215 C 
BRANCH  26  27
HETATM   27  O2  UNL     1      24.834  64.298  38.042  1.00  0.00    -0.397 OA
ATOM     28  H2  UNL     1      25.478  63.974  37.424  1.00  0.00     0.209 HD
ENDBRANCH  26  27
ENDBRANCH  24  26
ENDBRANCH   4  21
BRANCH  11  29
HETATM   29  N7  UNL     1      21.122  64.601  46.878  1.00  0.00    -0.397 NA
BRANCH  29  30
HETATM   30  C15 UNL     1      21.073  65.215  48.073  1.00  0.00     0.302 C 
HETATM   31  C16 UNL     1      19.905  64.656  48.911  1.00  0.00     0.070 C 
HETATM   32  C17 UNL     1      20.606  63.387  49.415  1.00  0.00     0.032 C 
HETATM   33  C18 UNL     1      21.925  64.060  49.826  1.00  0.00     0.171 C 
HETATM   34  O4  UNL     1      22.210  64.958  48.840  1.00  0.00    -0.355 OA
ENDBRANCH  29  30
ENDBRANCH  11  29
BRANCH   8  35
HETATM   35  N5  UNL     1      20.247  60.972  44.352  1.00  0.00    -0.234 N 
ATOM     36  H52 UNL     1      20.564  60.385  43.581  1.00  0.00     0.174 HD
ATOM     37  H51 UNL     1      19.566  60.652  45.040  1.00  0.00     0.174 HD
ENDBRANCH   8  35
TORSDOF 13
ENDMDL
MODEL 5
REMARK VINA RESULT: -7.453851247      4.413      7.785
REMARK  13 active torsions:
REMARK  status: ('A' for Active; 'I' for Inactive)
REMARK    1  A    between atoms: C2_2  and  C3_3 
REMARK    2  A    between atoms: C3_3  and  C4_4 
REMARK    3  A    between atoms: C4_4  and  C5_5 
REMARK    4  A    between atoms: C5_5  and  C6_6 
REMARK    5  A    between atoms: C6_6  and  C7_7 
REMARK    6  A    between atoms: C7_7  and  S1_8 
REMARK    7  A    between atoms: S1_8  and  C8_9 
REMARK    8  A    between atoms: N2_12  and  C9_13 
REMARK    9  A    between atoms: C10_16  and  C11_17 
REMARK   10  A    between atoms: C11_17  and  O2_18 
REMARK   11  A    between atoms: C13_24  and  N5_25 
REMARK   12  A    between atoms: C14_30  and  N7_31 
REMARK   13  A    between atoms: N7_31  and  C15_32 
ROOT
HETATM    1  C8  UNL     1      24.574  65.332  46.002  1.00  0.00     0.103 A 
HETATM    2  N1  UNL     1      25.292  65.708  47.091  1.00  0.00    -0.285 N 
ATOM      3  H1  UNL     1      24.923  66.244  47.878  1.00  0.00     0.188 HD
HETATM    4  N2  UNL     1      26.528  65.285  46.989  1.00  0.00    -0.219 N 
HETATM    5  C12 UNL     1      26.687  64.608  45.829  1.00  0.00     0.160 A 
HETATM    6  N4  UNL     1      27.721  63.985  45.241  1.00  0.00    -0.174 N 
ATOM      7  H4  UNL     1      28.631  63.962  45.700  1.00  0.00     0.186 HD
HETATM    8  C13 UNL     1      27.555  63.389  44.042  1.00  0.00     0.679 A 
HETATM    9  N6  UNL     1      26.398  63.389  43.407  1.00  0.00    -0.164 N 
ATOM     10  H6  UNL     1      26.320  62.925  42.502  1.00  0.00     0.187 HD
HETATM   11  C14 UNL     1      25.278  64.017  43.959  1.00  0.00     0.207 A 
HETATM   12  C19 UNL     1      25.451  64.634  45.196  1.00  0.00     0.103 A 
ENDROOT
BRANCH   1  13
HETATM   13  S1  UNL     1      22.857  65.703  45.737  1.00  0.00    -0.110 SA
BRANCH  13  14
HETATM   14  C7  UNL     1      22.172  66.737  47.017  1.00  0.00     0.081 C 
BRANCH  14  15
HETATM   15  C6  UNL     1      20.718  67.054  46.891  1.00  0.00     0.010 C 
BRANCH  15  16
HETATM   16  C5  UNL     1      20.442  68.546  46.952  1.00  0.00     0.001 C 
BRANCH  16  17
HETATM   17  C4  UNL     1      20.919  69.267  45.745  1.00  0.00     0.004 C 
BRANCH  17  18
HETATM   18  C3  UNL     1      20.178  69.055  44.482  1.00  0.00     0.026 C 
BRANCH  18  19
HETATM   19  C2  UNL     1      20.066  70.171  43.555  1.00  0.00    -0.037 C 
HETATM   20  C1  UNL     1      20.146  70.100  42.257  1.00  0.00     0.007 C 
ENDBRANCH  18  19
ENDBRANCH  17  18
ENDBRANCH  16  17
ENDBRANCH  15  16
ENDBRANCH  14  15
ENDBRANCH  13  14
ENDBRANCH   1  13
BRANCH   4  21
HETATM   21  C9  UNL     1      27.555  65.517  47.991  1.00  0.00     0.418 C 
HETATM   22  O1  UNL     1      28.547  64.538  47.863  1.00  0.00    -0.229 OA
HETATM   23  N3  UNL     1      28.897  64.192  49.123  1.00  0.00    -0.061 NA
HETATM   24  C10 UNL     1      27.625  64.293  49.815  1.00  0.00     0.270 C 
HETATM   25  O3  UNL     1      27.111  65.473  49.285  1.00  0.00    -0.315 OA
BRANCH  24  26
HETATM   26  C11 UNL     1      27.956  64.478  51.290  1.00  0.00     0.215 C 
BRANCH  26  27
HETATM   27  O2  UNL     1      27.356  63.536  52.086  1.00  0.00    -0.397 OA
ATOM     28  H2  UNL     1      26.479  63.787  52.350  1.00  0.00     0.209 HD
ENDBRANCH  26  27
ENDBRANCH  24  26
ENDBRANCH   4  21
BRANCH  11  29
HETATM   29  N7  UNL     1      24.234  64.016  43.388  1.00  0.00    -0.397 NA
BRANCH  29  30
HETATM   30  C15 UNL     1      23.054  64.012  42.744  1.00  0.00     0.302 C 
HETATM   31  C16 UNL     1      23.278  64.102  41.221  1.00  0.00     0.070 C 
HETATM   32  C17 UNL     1      23.596  62.620  40.976  1.00  0.00     0.032 C 
HETATM   33  C18 UNL     1      22.433  62.047  41.804  1.00  0.00     0.171 C 
HETATM   34  O4  UNL     1      22.361  62.816  42.928  1.00  0.00    -0.355 OA
ENDBRANCH  29  30
ENDBRANCH  11  29
BRANCH   8  35
HETATM   35  N5  UNL     1      28.573  62.806  43.515  1.00  0.00    -0.234 N 
ATOM     36  H52 UNL     1      28.588  61.790  43.430  1.00  0.00     0.174 HD
ATOM     37  H51 UNL     1      29.343  63.393  43.193  1.00  0.00     0.174 HD
ENDBRANCH   8  35
TORSDOF 13
ENDMDL
