MODEL 1
REMARK VINA RESULT: -8.039501472      0.000      0.000
REMARK  13 active torsions:
REMARK  status: ('A' for Active; 'I' for Inactive)
REMARK    1  A    between atoms: C2_2  and  O1_3 
REMARK    2  A    between atoms: O1_3  and  C3_4 
REMARK    3  A    between atoms: C4_5  and  C5_6 
REMARK    4  A    between atoms: C5_6  and  O2_7 
REMARK    5  A    between atoms: O2_7  and  C6_8 
REMARK    6  A    between atoms: C13_15  and  O3_16 
REMARK    7  A    between atoms: O3_16  and  C14_17 
REMARK    8  A    between atoms: C16_20  and  O5_21 
REMARK    9  A    between atoms: C17_23  and  O6_24 
REMARK   10  A    between atoms: C18_26  and  O7_27 
REMARK   11  A    between atoms: C19_29  and  O8_30 
REMARK   12  A    between atoms: C20_32  and  O9_33 
REMARK   13  A    between atoms: C21_35  and  O10_36 
ROOT
HETATM    1  C3  UNL     1      19.998  64.462  46.929  1.00  0.00     0.113 A 
HETATM    2  C4  UNL     1      20.246  64.419  45.576  1.00  0.00     0.004 A 
HETATM    3  C12 UNL     1      21.543  64.386  45.102  1.00  0.00     0.052 A 
HETATM    4  C13 UNL     1      22.652  64.395  45.960  1.00  0.00     0.106 A 
HETATM    5  C20 UNL     1      22.360  64.439  47.297  1.00  0.00     0.135 A 
HETATM    6  C21 UNL     1      21.083  64.472  47.804  1.00  0.00     0.138 A 
ENDROOT
BRANCH   4   7
HETATM    7  O3  UNL     1      23.863  64.361  45.393  1.00  0.00    -0.338 OA
BRANCH   7   8
HETATM    8  C14 UNL     1      24.615  63.456  44.706  1.00  0.00     0.184 C 
HETATM    9  C15 UNL     1      25.769  64.256  44.069  1.00  0.00     0.206 C 
HETATM   10  O4  UNL     1      26.364  63.569  43.044  1.00  0.00    -0.356 OA
HETATM   11  C16 UNL     1      27.635  63.138  43.357  1.00  0.00     0.288 C 
HETATM   12  C17 UNL     1      27.557  62.416  44.694  1.00  0.00     0.204 C 
HETATM   13  C18 UNL     1      26.261  61.636  44.828  1.00  0.00     0.183 C 
HETATM   14  C19 UNL     1      25.235  62.386  45.630  1.00  0.00     0.181 C 
BRANCH  11  15
HETATM   15  O5  UNL     1      28.559  64.152  43.497  1.00  0.00    -0.369 OA
ATOM     16  H5  UNL     1      29.135  64.055  44.246  1.00  0.00     0.212 HD
ENDBRANCH  11  15
BRANCH  12  17
HETATM   17  O6  UNL     1      28.611  61.506  44.716  1.00  0.00    -0.388 OA
ATOM     18  H6  UNL     1      29.118  61.660  43.928  1.00  0.00     0.210 HD
ENDBRANCH  12  17
BRANCH  13  19
HETATM   19  O7  UNL     1      26.536  60.375  45.343  1.00  0.00    -0.390 OA
ATOM     20  H7  UNL     1      25.891  59.758  45.019  1.00  0.00     0.210 HD
ENDBRANCH  13  19
BRANCH  14  21
HETATM   21  O8  UNL     1      25.727  62.941  46.786  1.00  0.00    -0.390 OA
ATOM     22  H8  UNL     1      25.897  62.280  47.446  1.00  0.00     0.210 HD
ENDBRANCH  14  21
ENDBRANCH   7   8
ENDBRANCH   4   7
BRANCH   5  23
HETATM   23  O9  UNL     1      23.396  64.450  48.204  1.00  0.00    -0.356 OA
ATOM     24  H9  UNL     1      23.193  64.488  49.131  1.00  0.00     0.218 HD
ENDBRANCH   5  23
BRANCH   2  25
HETATM   25  C5  UNL     1      19.074  64.402  44.658  1.00  0.00     0.210 C 
BRANCH  25  26
HETATM   26  O2  UNL     1      18.856  63.101  44.195  1.00  0.00    -0.381 OA
BRANCH  26  27
HETATM   27  C6  UNL     1      18.503  63.109  42.865  1.00  0.00     0.121 C 
HETATM   28  C7  UNL     1      19.652  63.411  41.946  1.00  0.00     0.032 C 
HETATM   29  C8  UNL     1      19.070  63.616  40.555  1.00  0.00     0.002 C 
HETATM   30  C9  UNL     1      18.106  62.543  40.170  1.00  0.00     0.000 C 
HETATM   31  C10 UNL     1      18.328  61.353  41.094  1.00  0.00     0.002 C 
HETATM   32  C11 UNL     1      17.966  61.739  42.509  1.00  0.00     0.032 C 
ENDBRANCH  26  27
ENDBRANCH  25  26
ENDBRANCH   2  25
BRANCH   6  33
HETATM   33  O10 UNL     1      20.874  64.515  49.181  1.00  0.00    -0.351 OA
HETATM   34  C22 UNL     1      20.628  63.397  49.978  1.00  0.00     0.210 C 
ENDBRANCH   6  33
BRANCH   1  35
HETATM   35  O1  UNL     1      18.733  64.497  47.481  1.00  0.00    -0.348 OA
BRANCH  35  36
HETATM   36  C2  UNL     1      18.124  65.732  47.783  1.00  0.00     0.171 C 
HETATM   37  C1  UNL     1      16.664  65.609  47.342  1.00  0.00     0.034 C 
ENDBRANCH  35  36
ENDBRANCH   1  35
TORSDOF 13
ENDMDL
MODEL 2
REMARK VINA RESULT: -7.825582075      3.678      5.921
REMARK  13 active torsions:
REMARK  status: ('A' for Active; 'I' for Inactive)
REMARK    1  A    between atoms: C2_2  and  O1_3 
REMARK    2  A    between atoms: O1_3  and  C3_4 
REMARK    3  A    between atoms: C4_5  and  C5_6 
REMARK    4  A    between atoms: C5_6  and  O2_7 
REMARK    5  A    between atoms: O2_7  and  C6_8 
REMARK    6  A    between atoms: C13_15  and  O3_16 
REMARK    7  A    between atoms: O3_16  and  C14_17 
REMARK    8  A    between atoms: C16_20  and  O5_21 
REMARK    9  A    between atoms: C17_23  and  O6_24 
REMARK   10  A    between atoms: C18_26  and  O7_27 
REMARK   11  A    between atoms: C19_29  and  O8_30 
REMARK   12  A    between atoms: C20_32  and  O9_33 
REMARK   13  A    between atoms: C21_35  and  O10_36 
ROOT
HETATM    1  C3  UNL     1      20.005  65.250  47.391  1.00  0.00     0.113 A 
HETATM    2  C4  UNL     1      20.368  65.589  46.107  1.00  0.00     0.004 A 
HETATM    3  C12 UNL     1      20.813  64.623  45.226  1.00  0.00     0.052 A 
HETATM    4  C13 UNL     1      20.916  63.272  45.589  1.00  0.00     0.106 A 
HETATM    5  C20 UNL     1      20.546  62.980  46.874  1.00  0.00     0.135 A 
HETATM    6  C21 UNL     1      20.098  63.914  47.777  1.00  0.00     0.138 A 
ENDROOT
BRANCH   4   7
HETATM    7  O3  UNL     1      21.360  62.422  44.657  1.00  0.00    -0.338 OA
BRANCH   7   8
HETATM    8  C14 UNL     1      20.811  61.579  43.737  1.00  0.00     0.184 C 
HETATM    9  C15 UNL     1      19.304  61.907  43.704  1.00  0.00     0.206 C 
HETATM   10  O4  UNL     1      18.573  60.898  43.138  1.00  0.00    -0.356 OA
HETATM   11  C16 UNL     1      18.061  61.237  41.904  1.00  0.00     0.288 C 
HETATM   12  C17 UNL     1      19.207  61.787  41.068  1.00  0.00     0.204 C 
HETATM   13  C18 UNL     1      20.505  61.054  41.356  1.00  0.00     0.183 C 
HETATM   14  C19 UNL     1      21.376  61.811  42.319  1.00  0.00     0.181 C 
BRANCH  11  15
HETATM   15  O5  UNL     1      17.084  62.209  41.944  1.00  0.00    -0.369 OA
ATOM     16  H5  UNL     1      16.358  62.009  42.523  1.00  0.00     0.212 HD
ENDBRANCH  11  15
BRANCH  12  17
HETATM   17  O6  UNL     1      18.872  61.561  39.736  1.00  0.00    -0.388 OA
ATOM     18  H6  UNL     1      18.307  60.797  39.725  1.00  0.00     0.210 HD
ENDBRANCH  12  17
BRANCH  13  19
HETATM   19  O7  UNL     1      21.145  60.766  40.157  1.00  0.00    -0.390 OA
ATOM     20  H7  UNL     1      21.634  61.528  39.872  1.00  0.00     0.210 HD
ENDBRANCH  13  19
BRANCH  14  21
HETATM   21  O8  UNL     1      21.490  63.150  42.033  1.00  0.00    -0.390 OA
ATOM     22  H8  UNL     1      21.986  63.296  41.236  1.00  0.00     0.210 HD
ENDBRANCH  14  21
ENDBRANCH   7   8
ENDBRANCH   4   7
BRANCH   5  23
HETATM   23  O9  UNL     1      20.618  61.674  47.307  1.00  0.00    -0.356 OA
ATOM     24  H9  UNL     1      20.497  60.974  46.676  1.00  0.00     0.218 HD
ENDBRANCH   5  23
BRANCH   2  25
HETATM   25  C5  UNL     1      20.255  67.020  45.711  1.00  0.00     0.210 C 
BRANCH  25  26
HETATM   26  O2  UNL     1      21.513  67.508  45.344  1.00  0.00    -0.381 OA
BRANCH  26  27
HETATM   27  C6  UNL     1      21.413  68.339  44.250  1.00  0.00     0.121 C 
HETATM   28  C7  UNL     1      21.156  67.604  42.966  1.00  0.00     0.032 C 
HETATM   29  C8  UNL     1      21.305  68.613  41.837  1.00  0.00     0.002 C 
HETATM   30  C9  UNL     1      20.565  69.882  42.097  1.00  0.00     0.000 C 
HETATM   31  C10 UNL     1      19.543  69.618  43.194  1.00  0.00     0.002 C 
HETATM   32  C11 UNL     1      20.260  69.292  44.483  1.00  0.00     0.032 C 
ENDBRANCH  26  27
ENDBRANCH  25  26
ENDBRANCH   2  25
BRANCH   6  33
HETATM   33  O10 UNL     1      19.740  63.530  49.068  1.00  0.00    -0.351 OA
HETATM   34  C22 UNL     1      20.635  63.393  50.129  1.00  0.00     0.210 C 
ENDBRANCH   6  33
BRANCH   1  35
HETATM   35  O1  UNL     1      19.552  66.155  48.329  1.00  0.00    -0.348 OA
BRANCH  35  36
HETATM   36  C2  UNL     1      18.383  66.906  48.086  1.00  0.00     0.171 C 
HETATM   37  C1  UNL     1      17.261  65.889  47.860  1.00  0.00     0.034 C 
ENDBRANCH  35  36
ENDBRANCH   1  35
TORSDOF 13
ENDMDL
MODEL 3
REMARK VINA RESULT: -7.780873974      3.234      7.142
REMARK  13 active torsions:
REMARK  status: ('A' for Active; 'I' for Inactive)
REMARK    1  A    between atoms: C2_2  and  O1_3 
REMARK    2  A    between atoms: O1_3  and  C3_4 
REMARK    3  A    between atoms: C4_5  and  C5_6 
REMARK    4  A    between atoms: C5_6  and  O2_7 
REMARK    5  A    between atoms: O2_7  and  C6_8 
REMARK    6  A    between atoms: C13_15  and  O3_16 
REMARK    7  A    between atoms: O3_16  and  C14_17 
REMARK    8  A    between atoms: C16_20  and  O5_21 
REMARK    9  A    between atoms: C17_23  and  O6_24 
REMARK   10  A    between atoms: C18_26  and  O7_27 
REMARK   11  A    between atoms: C19_29  and  O8_30 
REMARK   12  A    between atoms: C20_32  and  O9_33 
REMARK   13  A    between atoms: C21_35  and  O10_36 
ROOT
HETATM    1  C3  UNL     1      24.686  64.736  45.042  1.00  0.00     0.113 A 
HETATM    2  C4  UNL     1      23.318  64.744  45.186  1.00  0.00     0.004 A 
HETATM    3  C12 UNL     1      22.517  64.027  44.319  1.00  0.00     0.052 A 
HETATM    4  C13 UNL     1      23.049  63.268  43.266  1.00  0.00     0.106 A 
HETATM    5  C20 UNL     1      24.414  63.288  43.159  1.00  0.00     0.135 A 
HETATM    6  C21 UNL     1      25.241  63.990  44.004  1.00  0.00     0.138 A 
ENDROOT
BRANCH   4   7
HETATM    7  O3  UNL     1      22.182  62.614  42.486  1.00  0.00    -0.338 OA
BRANCH   7   8
HETATM    8  C14 UNL     1      21.063  62.917  41.769  1.00  0.00     0.184 C 
HETATM    9  C15 UNL     1      21.542  63.750  40.564  1.00  0.00     0.206 C 
HETATM   10  O4  UNL     1      20.517  64.451  39.986  1.00  0.00    -0.356 OA
HETATM   11  C16 UNL     1      20.169  63.962  38.745  1.00  0.00     0.288 C 
HETATM   12  C17 UNL     1      19.962  62.462  38.886  1.00  0.00     0.204 C 
HETATM   13  C18 UNL     1      19.333  62.111  40.222  1.00  0.00     0.183 C 
HETATM   14  C19 UNL     1      20.358  61.657  41.223  1.00  0.00     0.181 C 
BRANCH  11  15
HETATM   15  O5  UNL     1      21.129  64.151  37.773  1.00  0.00    -0.369 OA
ATOM     16  H5  UNL     1      20.981  63.653  36.977  1.00  0.00     0.212 HD
ENDBRANCH  11  15
BRANCH  12  17
HETATM   17  O6  UNL     1      19.074  62.088  37.881  1.00  0.00    -0.388 OA
ATOM     18  H6  UNL     1      19.442  61.316  37.467  1.00  0.00     0.210 HD
ENDBRANCH  12  17
BRANCH  13  19
HETATM   19  O7  UNL     1      18.320  61.182  40.022  1.00  0.00    -0.390 OA
ATOM     20  H7  UNL     1      18.524  60.655  39.259  1.00  0.00     0.210 HD
ENDBRANCH  13  19
BRANCH  14  21
HETATM   21  O8  UNL     1      21.259  60.749  40.724  1.00  0.00    -0.390 OA
ATOM     22  H8  UNL     1      20.841  60.122  40.146  1.00  0.00     0.210 HD
ENDBRANCH  14  21
ENDBRANCH   7   8
ENDBRANCH   4   7
BRANCH   5  23
HETATM   23  O9  UNL     1      25.013  62.567  42.150  1.00  0.00    -0.356 OA
ATOM     24  H9  UNL     1      24.757  62.736  41.251  1.00  0.00     0.218 HD
ENDBRANCH   5  23
BRANCH   2  25
HETATM   25  C5  UNL     1      22.745  65.542  46.305  1.00  0.00     0.210 C 
BRANCH  25  26
HETATM   26  O2  UNL     1      21.356  65.620  46.166  1.00  0.00    -0.381 OA
BRANCH  26  27
HETATM   27  C6  UNL     1      21.002  66.732  45.436  1.00  0.00     0.121 C 
HETATM   28  C7  UNL     1      19.522  66.987  45.420  1.00  0.00     0.032 C 
HETATM   29  C8  UNL     1      19.268  68.088  44.400  1.00  0.00     0.002 C 
HETATM   30  C9  UNL     1      20.194  69.247  44.562  1.00  0.00     0.000 C 
HETATM   31  C10 UNL     1      20.810  69.172  45.952  1.00  0.00     0.002 C 
HETATM   32  C11 UNL     1      21.678  67.939  46.052  1.00  0.00     0.032 C 
ENDBRANCH  26  27
ENDBRANCH  25  26
ENDBRANCH   2  25
BRANCH   6  33
HETATM   33  O10 UNL     1      26.622  63.955  43.824  1.00  0.00    -0.351 OA
HETATM   34  C22 UNL     1      27.456  62.943  44.300  1.00  0.00     0.210 C 
ENDBRANCH   6  33
BRANCH   1  35
HETATM   35  O1  UNL     1      25.554  65.425  45.865  1.00  0.00    -0.348 OA
BRANCH  35  36
HETATM   36  C2  UNL     1      25.977  64.858  47.085  1.00  0.00     0.171 C 
HETATM   37  C1  UNL     1      27.352  65.462  47.384  1.00  0.00     0.034 C 
ENDBRANCH  35  36
ENDBRANCH   1  35
TORSDOF 13
ENDMDL
MODEL 4
REMARK VINA RESULT: -7.726110623      2.982      3.594
REMARK  13 active torsions:
REMARK  status: ('A' for Active; 'I' for Inactive)
REMARK    1  A    between atoms: C2_2  and  O1_3 
REMARK    2  A    between atoms: O1_3  and  C3_4 
REMARK    3  A    between atoms: C4_5  and  C5_6 
REMARK    4  A    between atoms: C5_6  and  O2_7 
REMARK    5  A    between atoms: O2_7  and  C6_8 
REMARK    6  A    between atoms: C13_15  and  O3_16 
REMARK    7  A    between atoms: O3_16  and  C14_17 
REMARK    8  A    between atoms: C16_20  and  O5_21 
REMARK    9  A    between atoms: C17_23  and  O6_24 
REMARK   10  A    between atoms: C18_26  and  O7_27 
REMARK   11  A    between atoms: C19_29  and  O8_30 
REMARK   12  A    between atoms: C20_32  and  O9_33 
REMARK   13  A    between atoms: C21_35  and  O10_36 
ROOT
HETATM    1  C3  UNL     1      20.935  65.957  47.768  1.00  0.00     0.113 A 
HETATM    2  C4  UNL     1      21.577  66.559  46.710  1.00  0.00     0.004 A 
HETATM    3  C12 UNL     1      22.932  66.374  46.515  1.00  0.00     0.052 A 
HETATM    4  C13 UNL     1      23.708  65.578  47.370  1.00  0.00     0.106 A 
HETATM    5  C20 UNL     1      23.030  64.998  48.408  1.00  0.00     0.135 A 
HETATM    6  C21 UNL     1      21.683  65.160  48.633  1.00  0.00     0.138 A 
ENDROOT
BRANCH   4   7
HETATM    7  O3  UNL     1      25.011  65.469  47.088  1.00  0.00    -0.338 OA
BRANCH   7   8
HETATM    8  C14 UNL     1      25.777  64.838  46.154  1.00  0.00     0.184 C 
HETATM    9  C15 UNL     1      27.134  64.561  46.832  1.00  0.00     0.206 C 
HETATM   10  O4  UNL     1      28.119  64.301  45.918  1.00  0.00    -0.356 OA
HETATM   11  C16 UNL     1      28.525  62.984  45.930  1.00  0.00     0.288 C 
HETATM   12  C17 UNL     1      27.276  62.120  45.836  1.00  0.00     0.204 C 
HETATM   13  C18 UNL     1      26.230  62.752  44.936  1.00  0.00     0.183 C 
HETATM   14  C19 UNL     1      25.178  63.481  45.724  1.00  0.00     0.181 C 
BRANCH  11  15
HETATM   15  O5  UNL     1      29.194  62.608  47.075  1.00  0.00    -0.369 OA
ATOM     16  H5  UNL     1      28.629  62.305  47.776  1.00  0.00     0.212 HD
ENDBRANCH  11  15
BRANCH  12  17
HETATM   17  O6  UNL     1      27.669  60.915  45.259  1.00  0.00    -0.388 OA
ATOM     18  H6  UNL     1      26.887  60.382  45.186  1.00  0.00     0.210 HD
ENDBRANCH  12  17
BRANCH  13  19
HETATM   19  O7  UNL     1      25.702  61.782  44.094  1.00  0.00    -0.390 OA
ATOM     20  H7  UNL     1      24.768  61.707  44.248  1.00  0.00     0.210 HD
ENDBRANCH  13  19
BRANCH  14  21
HETATM   21  O8  UNL     1      24.700  62.775  46.801  1.00  0.00    -0.390 OA
ATOM     22  H8  UNL     1      24.016  62.168  46.545  1.00  0.00     0.210 HD
ENDBRANCH  14  21
ENDBRANCH   7   8
ENDBRANCH   4   7
BRANCH   5  23
HETATM   23  O9  UNL     1      23.722  64.201  49.293  1.00  0.00    -0.356 OA
ATOM     24  H9  UNL     1      23.288  63.912  50.087  1.00  0.00     0.218 HD
ENDBRANCH   5  23
BRANCH   2  25
HETATM   25  C5  UNL     1      20.760  67.401  45.793  1.00  0.00     0.210 C 
BRANCH  25  26
HETATM   26  O2  UNL     1      20.768  66.846  44.510  1.00  0.00    -0.381 OA
BRANCH  26  27
HETATM   27  C6  UNL     1      20.362  67.771  43.576  1.00  0.00     0.121 C 
HETATM   28  C7  UNL     1      20.519  69.191  44.037  1.00  0.00     0.032 C 
HETATM   29  C8  UNL     1      19.822  70.074  43.012  1.00  0.00     0.002 C 
HETATM   30  C9  UNL     1      20.194  69.730  41.608  1.00  0.00     0.000 C 
HETATM   31  C10 UNL     1      21.473  68.906  41.645  1.00  0.00     0.002 C 
HETATM   32  C11 UNL     1      21.203  67.587  42.331  1.00  0.00     0.032 C 
ENDBRANCH  26  27
ENDBRANCH  25  26
ENDBRANCH   2  25
BRANCH   6  33
HETATM   33  O10 UNL     1      21.071  64.532  49.716  1.00  0.00    -0.351 OA
HETATM   34  C22 UNL     1      20.561  63.234  49.692  1.00  0.00     0.210 C 
ENDBRANCH   6  33
BRANCH   1  35
HETATM   35  O1  UNL     1      19.587  66.092  48.031  1.00  0.00    -0.348 OA
BRANCH  35  36
HETATM   36  C2  UNL     1      18.655  65.223  47.428  1.00  0.00     0.171 C 
HETATM   37  C1  UNL     1      17.281  65.874  47.611  1.00  0.00     0.034 C 
ENDBRANCH  35  36
ENDBRANCH   1  35
TORSDOF 13
ENDMDL
MODEL 5
REMARK VINA RESULT: -7.693519665      3.320      5.791
REMARK  13 active torsions:
REMARK  status: ('A' for Active; 'I' for Inactive)
REMARK    1  A    between atoms: C2_2  and  O1_3 
REMARK    2  A    between atoms: O1_3  and  C3_4 
REMARK    3  A    between atoms: C4_5  and  C5_6 
REMARK    4  A    between atoms: C5_6  and  O2_7 
REMARK    5  A    between atoms: O2_7  and  C6_8 
REMARK    6  A    between atoms: C13_15  and  O3_16 
REMARK    7  A    between atoms: O3_16  and  C14_17 
REMARK    8  A    between atoms: C16_20  and  O5_21 
REMARK    9  A    between atoms: C17_23  and  O6_24 
REMARK   10  A    between atoms: C18_26  and  O7_27 
REMARK   11  A    between atoms: C19_29  and  O8_30 
REMARK   12  A    between atoms: C20_32  and  O9_33 
REMARK   13  A    between atoms: C21_35  and  O10_36 
ROOT
HETATM    1  C3  UNL     1      22.735  64.690  39.959  1.00  0.00     0.113 A 
HETATM    2  C4  UNL     1      22.643  63.509  40.660  1.00  0.00     0.004 A 
HETATM    3  C12 UNL     1      23.700  63.066  41.429  1.00  0.00     0.052 A 
HETATM    4  C13 UNL     1      24.900  63.784  41.533  1.00  0.00     0.106 A 
HETATM    5  C20 UNL     1      24.949  64.952  40.821  1.00  0.00     0.135 A 
HETATM    6  C21 UNL     1      23.916  65.424  40.046  1.00  0.00     0.138 A 
ENDROOT
BRANCH   4   7
HETATM    7  O3  UNL     1      25.859  63.262  42.306  1.00  0.00    -0.338 OA
BRANCH   7   8
HETATM    8  C14 UNL     1      26.565  63.642  43.408  1.00  0.00     0.184 C 
HETATM    9  C15 UNL     1      25.526  64.163  44.422  1.00  0.00     0.206 C 
HETATM   10  O4  UNL     1      26.103  64.933  45.396  1.00  0.00    -0.356 OA
HETATM   11  C16 UNL     1      26.110  64.318  46.629  1.00  0.00     0.288 C 
HETATM   12  C17 UNL     1      26.691  62.925  46.442  1.00  0.00     0.204 C 
HETATM   13  C18 UNL     1      27.801  62.921  45.406  1.00  0.00     0.183 C 
HETATM   14  C19 UNL     1      27.312  62.459  44.062  1.00  0.00     0.181 C 
BRANCH  11  15
HETATM   15  O5  UNL     1      24.860  64.165  47.193  1.00  0.00    -0.369 OA
ATOM     16  H5  UNL     1      24.836  63.570  47.933  1.00  0.00     0.212 HD
ENDBRANCH  11  15
BRANCH  12  17
HETATM   17  O6  UNL     1      27.244  62.558  47.666  1.00  0.00    -0.388 OA
ATOM     18  H6  UNL     1      27.497  61.646  47.587  1.00  0.00     0.210 HD
ENDBRANCH  12  17
BRANCH  13  19
HETATM   19  O7  UNL     1      28.870  62.172  45.882  1.00  0.00    -0.390 OA
ATOM     20  H7  UNL     1      29.682  62.556  45.574  1.00  0.00     0.210 HD
ENDBRANCH  13  19
BRANCH  14  21
HETATM   21  O8  UNL     1      26.529  61.332  44.111  1.00  0.00    -0.390 OA
ATOM     22  H8  UNL     1      26.905  60.670  44.679  1.00  0.00     0.210 HD
ENDBRANCH  14  21
ENDBRANCH   7   8
ENDBRANCH   4   7
BRANCH   5  23
HETATM   23  O9  UNL     1      26.094  65.716  40.872  1.00  0.00    -0.356 OA
ATOM     24  H9  UNL     1      26.130  66.449  41.475  1.00  0.00     0.218 HD
ENDBRANCH   5  23
BRANCH   2  25
HETATM   25  C5  UNL     1      21.369  62.743  40.560  1.00  0.00     0.210 C 
BRANCH  25  26
HETATM   26  O2  UNL     1      21.553  61.455  41.071  1.00  0.00    -0.381 OA
BRANCH  26  27
HETATM   27  C6  UNL     1      20.478  61.080  41.845  1.00  0.00     0.121 C 
HETATM   28  C7  UNL     1      20.416  61.795  43.164  1.00  0.00     0.032 C 
HETATM   29  C8  UNL     1      19.333  61.116  43.990  1.00  0.00     0.002 C 
HETATM   30  C9  UNL     1      18.068  60.913  43.224  1.00  0.00     0.000 C 
HETATM   31  C10 UNL     1      18.098  61.828  42.008  1.00  0.00     0.002 C 
HETATM   32  C11 UNL     1      19.210  61.397  41.081  1.00  0.00     0.032 C 
ENDBRANCH  26  27
ENDBRANCH  25  26
ENDBRANCH   2  25
BRANCH   6  33
HETATM   33  O10 UNL     1      24.050  66.625  39.352  1.00  0.00    -0.351 OA
HETATM   34  C22 UNL     1      23.572  67.855  39.803  1.00  0.00     0.210 C 
ENDBRANCH   6  33
BRANCH   1  35
HETATM   35  O1  UNL     1      21.724  65.200  39.169  1.00  0.00    -0.348 OA
BRANCH  35  36
HETATM   36  C2  UNL     1      21.775  65.051  37.768  1.00  0.00     0.171 C 
HETATM   37  C1  UNL     1      20.491  64.318  37.368  1.00  0.00     0.034 C 
ENDBRANCH  35  36
ENDBRANCH   1  35
TORSDOF 13
ENDMDL
