MODEL 1
REMARK VINA RESULT: -7.034663665      0.000      0.000
REMARK  15 active torsions:
REMARK  status: ('A' for Active; 'I' for Inactive)
REMARK    1  A    between atoms: C2_2  and  S1_3 
REMARK    2  A    between atoms: S1_3  and  C3_4 
REMARK    3  A    between atoms: C4_6  and  S2_7 
REMARK    4  A    between atoms: S2_7  and  C5_8 
REMARK    5  A    between atoms: C5_8  and  C6_9 
REMARK    6  A    between atoms: C7_10  and  O2_11 
REMARK    7  A    between atoms: C7_10  and  C13_22 
REMARK    8  A    between atoms: O2_11  and  C8_12 
REMARK    9  A    between atoms: C10_14  and  O3_15 
REMARK   10  A    between atoms: C11_17  and  C12_18 
REMARK   11  A    between atoms: C12_18  and  O4_19 
REMARK   12  A    between atoms: C13_22  and  C15_24 
REMARK   13  A    between atoms: C17_26  and  O6_27 
REMARK   14  A    between atoms: C18_29  and  O7_30 
REMARK   15  A    between atoms: C19_32  and  O8_33 
ROOT
HETATM    1  C5  UNL     1      24.317  66.541  45.981  1.00  0.00     0.106 C 
ENDROOT
BRANCH   1   2
HETATM    2  S2  UNL     1      23.280  65.979  47.360  1.00  0.00    -0.131 SA
BRANCH   2   3
HETATM    3  C4  UNL     1      21.837  65.048  46.702  1.00  0.00     0.216 C 
HETATM    4  O1  UNL     1      20.732  65.734  47.027  1.00  0.00    -0.355 OA
HETATM    5  C3  UNL     1      19.912  65.273  48.024  1.00  0.00     0.215 C 
HETATM    6  C19 UNL     1      19.750  63.813  48.125  1.00  0.00     0.188 C 
HETATM    7  C18 UNL     1      20.602  63.025  47.156  1.00  0.00     0.182 C 
HETATM    8  C17 UNL     1      21.977  63.654  47.247  1.00  0.00     0.188 C 
BRANCH   5   9
HETATM    9  S1  UNL     1      18.317  66.118  48.079  1.00  0.00    -0.135 SA
BRANCH   9  10
HETATM   10  C2  UNL     1      17.098  65.495  46.943  1.00  0.00     0.072 C 
HETATM   11  C1  UNL     1      15.679  65.551  47.410  1.00  0.00     0.016 C 
ENDBRANCH   9  10
ENDBRANCH   5   9
BRANCH   6  12
HETATM   12  O8  UNL     1      20.100  63.327  49.408  1.00  0.00    -0.389 OA
ATOM     13  H8  UNL     1      20.916  63.700  49.720  1.00  0.00     0.210 HD
ENDBRANCH   6  12
BRANCH   7  14
HETATM   14  O7  UNL     1      20.678  61.729  47.623  1.00  0.00    -0.390 OA
ATOM     15  H7  UNL     1      20.722  61.140  46.878  1.00  0.00     0.210 HD
ENDBRANCH   7  14
BRANCH   8  16
HETATM   16  O6  UNL     1      22.930  62.936  46.532  1.00  0.00    -0.389 OA
ATOM     17  H6  UNL     1      23.183  63.403  45.744  1.00  0.00     0.210 HD
ENDBRANCH   8  16
ENDBRANCH   2   3
ENDBRANCH   1   2
BRANCH   1  18
HETATM   18  C6  UNL     1      24.164  65.728  44.777  1.00  0.00     0.016 C 
HETATM   19  C7  UNL     1      23.640  66.021  43.631  1.00  0.00     0.050 C 
BRANCH  19  20
HETATM   20  O2  UNL     1      23.596  65.084  42.601  1.00  0.00    -0.325 OA
BRANCH  20  21
HETATM   21  C8  UNL     1      22.650  64.058  42.505  1.00  0.00     0.269 C 
HETATM   22  C9  UNL     1      23.223  62.691  42.536  1.00  0.00     0.095 C 
HETATM   23  C10 UNL     1      22.623  61.997  41.362  1.00  0.00     0.154 C 
HETATM   24  C11 UNL     1      21.649  62.980  40.816  1.00  0.00     0.177 C 
HETATM   25  O5  UNL     1      21.920  64.218  41.344  1.00  0.00    -0.351 OA
BRANCH  23  26
HETATM   26  O3  UNL     1      23.574  61.596  40.425  1.00  0.00    -0.393 OA
ATOM     27  H3  UNL     1      23.334  61.827  39.535  1.00  0.00     0.210 HD
ENDBRANCH  23  26
BRANCH  24  28
HETATM   28  C12 UNL     1      20.204  62.554  41.066  1.00  0.00     0.198 C 
BRANCH  28  29
HETATM   29  O4  UNL     1      19.975  61.345  40.400  1.00  0.00    -0.398 OA
ATOM     30  H4  UNL     1      19.718  60.692  41.040  1.00  0.00     0.209 HD
ENDBRANCH  28  29
ENDBRANCH  24  28
ENDBRANCH  20  21
ENDBRANCH  19  20
BRANCH  19  31
HETATM   31  C13 UNL     1      23.065  67.349  43.352  1.00  0.00     0.038 C 
HETATM   32  C14 UNL     1      23.298  67.765  41.902  1.00  0.00     0.017 C 
BRANCH  31  33
HETATM   33  C15 UNL     1      21.578  67.397  43.690  1.00  0.00     0.006 C 
HETATM   34  C16 UNL     1      21.234  68.379  44.752  1.00  0.00     0.006 C 
ENDBRANCH  31  33
ENDBRANCH  19  31
ENDBRANCH   1  18
TORSDOF 15
ENDMDL
MODEL 2
REMARK VINA RESULT: -7.000057778      2.659      6.541
REMARK  15 active torsions:
REMARK  status: ('A' for Active; 'I' for Inactive)
REMARK    1  A    between atoms: C2_2  and  S1_3 
REMARK    2  A    between atoms: S1_3  and  C3_4 
REMARK    3  A    between atoms: C4_6  and  S2_7 
REMARK    4  A    between atoms: S2_7  and  C5_8 
REMARK    5  A    between atoms: C5_8  and  C6_9 
REMARK    6  A    between atoms: C7_10  and  O2_11 
REMARK    7  A    between atoms: C7_10  and  C13_22 
REMARK    8  A    between atoms: O2_11  and  C8_12 
REMARK    9  A    between atoms: C10_14  and  O3_15 
REMARK   10  A    between atoms: C11_17  and  C12_18 
REMARK   11  A    between atoms: C12_18  and  O4_19 
REMARK   12  A    between atoms: C13_22  and  C15_24 
REMARK   13  A    between atoms: C17_26  and  O6_27 
REMARK   14  A    between atoms: C18_29  and  O7_30 
REMARK   15  A    between atoms: C19_32  and  O8_33 
ROOT
HETATM    1  C5  UNL     1      22.146  65.830  42.698  1.00  0.00     0.106 C 
ENDROOT
BRANCH   1   2
HETATM    2  S2  UNL     1      21.698  66.193  40.977  1.00  0.00    -0.131 SA
BRANCH   2   3
HETATM    3  C4  UNL     1      21.365  64.619  40.087  1.00  0.00     0.216 C 
HETATM    4  O1  UNL     1      20.103  64.259  40.362  1.00  0.00    -0.355 OA
HETATM    5  C3  UNL     1      19.863  63.217  41.220  1.00  0.00     0.215 C 
HETATM    6  C19 UNL     1      20.800  62.082  41.160  1.00  0.00     0.188 C 
HETATM    7  C18 UNL     1      21.959  62.284  40.211  1.00  0.00     0.182 C 
HETATM    8  C17 UNL     1      22.463  63.682  40.504  1.00  0.00     0.188 C 
BRANCH   5   9
HETATM    9  S1  UNL     1      18.147  62.655  41.193  1.00  0.00    -0.135 SA
BRANCH   9  10
HETATM   10  C2  UNL     1      17.843  61.127  42.051  1.00  0.00     0.072 C 
HETATM   11  C1  UNL     1      18.045  61.156  43.531  1.00  0.00     0.016 C 
ENDBRANCH   9  10
ENDBRANCH   5   9
BRANCH   6  12
HETATM   12  O8  UNL     1      21.391  61.814  42.418  1.00  0.00    -0.389 OA
ATOM     13  H8  UNL     1      21.971  61.062  42.386  1.00  0.00     0.210 HD
ENDBRANCH   6  12
BRANCH   7  14
HETATM   14  O7  UNL     1      22.944  61.380  40.553  1.00  0.00    -0.390 OA
ATOM     15  H7  UNL     1      22.688  60.520  40.241  1.00  0.00     0.210 HD
ENDBRANCH   7  14
BRANCH   8  16
HETATM   16  O6  UNL     1      23.642  63.967  39.823  1.00  0.00    -0.389 OA
ATOM     17  H6  UNL     1      24.108  64.682  40.241  1.00  0.00     0.210 HD
ENDBRANCH   8  16
ENDBRANCH   2   3
ENDBRANCH   1   2
BRANCH   1  18
HETATM   18  C6  UNL     1      20.991  65.738  43.587  1.00  0.00     0.016 C 
HETATM   19  C7  UNL     1      20.428  66.640  44.323  1.00  0.00     0.050 C 
BRANCH  19  20
HETATM   20  O2  UNL     1      19.318  66.336  45.108  1.00  0.00    -0.325 OA
BRANCH  20  21
HETATM   21  C8  UNL     1      19.302  65.363  46.114  1.00  0.00     0.269 C 
HETATM   22  C9  UNL     1      18.269  65.574  47.155  1.00  0.00     0.095 C 
HETATM   23  C10 UNL     1      19.000  65.466  48.448  1.00  0.00     0.154 C 
HETATM   24  C11 UNL     1      20.379  65.075  48.056  1.00  0.00     0.177 C 
HETATM   25  O5  UNL     1      20.544  65.305  46.712  1.00  0.00    -0.351 OA
BRANCH  23  26
HETATM   26  O3  UNL     1      18.961  66.645  49.192  1.00  0.00    -0.393 OA
ATOM     27  H3  UNL     1      18.076  66.925  49.394  1.00  0.00     0.210 HD
ENDBRANCH  23  26
BRANCH  24  28
HETATM   28  C12 UNL     1      20.692  63.627  48.431  1.00  0.00     0.198 C 
BRANCH  28  29
HETATM   29  O4  UNL     1      19.814  63.231  49.444  1.00  0.00    -0.398 OA
ATOM     30  H4  UNL     1      19.055  62.823  49.043  1.00  0.00     0.209 HD
ENDBRANCH  28  29
ENDBRANCH  24  28
ENDBRANCH  20  21
ENDBRANCH  19  20
BRANCH  19  31
HETATM   31  C13 UNL     1      20.923  68.027  44.374  1.00  0.00     0.038 C 
HETATM   32  C14 UNL     1      19.812  69.028  44.071  1.00  0.00     0.017 C 
BRANCH  31  33
HETATM   33  C15 UNL     1      21.574  68.340  45.718  1.00  0.00     0.006 C 
HETATM   34  C16 UNL     1      20.625  68.856  46.741  1.00  0.00     0.006 C 
ENDBRANCH  31  33
ENDBRANCH  19  31
ENDBRANCH   1  18
TORSDOF 15
ENDMDL
MODEL 3
REMARK VINA RESULT: -6.915236019      3.051      7.597
REMARK  15 active torsions:
REMARK  status: ('A' for Active; 'I' for Inactive)
REMARK    1  A    between atoms: C2_2  and  S1_3 
REMARK    2  A    between atoms: S1_3  and  C3_4 
REMARK    3  A    between atoms: C4_6  and  S2_7 
REMARK    4  A    between atoms: S2_7  and  C5_8 
REMARK    5  A    between atoms: C5_8  and  C6_9 
REMARK    6  A    between atoms: C7_10  and  O2_11 
REMARK    7  A    between atoms: C7_10  and  C13_22 
REMARK    8  A    between atoms: O2_11  and  C8_12 
REMARK    9  A    between atoms: C10_14  and  O3_15 
REMARK   10  A    between atoms: C11_17  and  C12_18 
REMARK   11  A    between atoms: C12_18  and  O4_19 
REMARK   12  A    between atoms: C13_22  and  C15_24 
REMARK   13  A    between atoms: C17_26  and  O6_27 
REMARK   14  A    between atoms: C18_29  and  O7_30 
REMARK   15  A    between atoms: C19_32  and  O8_33 
ROOT
HETATM    1  C5  UNL     1      21.184  63.486  41.476  1.00  0.00     0.106 C 
ENDROOT
BRANCH   1   2
HETATM    2  S2  UNL     1      22.302  62.105  41.109  1.00  0.00    -0.131 SA
BRANCH   2   3
HETATM    3  C4  UNL     1      24.045  62.674  41.248  1.00  0.00     0.216 C 
HETATM    4  O1  UNL     1      24.460  62.402  42.494  1.00  0.00    -0.355 OA
HETATM    5  C3  UNL     1      24.603  63.419  43.402  1.00  0.00     0.215 C 
HETATM    6  C19 UNL     1      25.102  64.704  42.882  1.00  0.00     0.188 C 
HETATM    7  C18 UNL     1      25.292  64.735  41.383  1.00  0.00     0.182 C 
HETATM    8  C17 UNL     1      24.032  64.114  40.818  1.00  0.00     0.188 C 
BRANCH   5   9
HETATM    9  S1  UNL     1      25.496  62.922  44.891  1.00  0.00    -0.135 SA
BRANCH   9  10
HETATM   10  C2  UNL     1      27.008  62.032  44.599  1.00  0.00     0.072 C 
HETATM   11  C1  UNL     1      28.058  62.762  43.825  1.00  0.00     0.016 C 
ENDBRANCH   9  10
ENDBRANCH   5   9
BRANCH   6  12
HETATM   12  O8  UNL     1      24.216  65.771  43.167  1.00  0.00    -0.389 OA
ATOM     13  H8  UNL     1      24.510  66.590  42.784  1.00  0.00     0.210 HD
ENDBRANCH   6  12
BRANCH   7  14
HETATM   14  O7  UNL     1      25.345  66.058  40.994  1.00  0.00    -0.390 OA
ATOM     15  H7  UNL     1      25.960  66.139  40.274  1.00  0.00     0.210 HD
ENDBRANCH   7  14
BRANCH   8  16
HETATM   16  O6  UNL     1      23.975  64.215  39.432  1.00  0.00    -0.389 OA
ATOM     17  H6  UNL     1      23.309  64.838  39.166  1.00  0.00     0.210 HD
ENDBRANCH   8  16
ENDBRANCH   2   3
ENDBRANCH   1   2
BRANCH   1  18
HETATM   18  C6  UNL     1      20.653  63.452  42.837  1.00  0.00     0.016 C 
HETATM   19  C7  UNL     1      19.587  62.887  43.304  1.00  0.00     0.050 C 
BRANCH  19  20
HETATM   20  O2  UNL     1      19.260  62.978  44.655  1.00  0.00    -0.325 OA
BRANCH  20  21
HETATM   21  C8  UNL     1      19.724  63.979  45.516  1.00  0.00     0.269 C 
HETATM   22  C9  UNL     1      20.725  63.520  46.508  1.00  0.00     0.095 C 
HETATM   23  C10 UNL     1      20.222  64.018  47.819  1.00  0.00     0.154 C 
HETATM   24  C11 UNL     1      19.032  64.837  47.466  1.00  0.00     0.177 C 
HETATM   25  O5  UNL     1      18.652  64.542  46.180  1.00  0.00    -0.351 OA
BRANCH  23  26
HETATM   26  O3  UNL     1      19.928  62.989  48.712  1.00  0.00    -0.393 OA
ATOM     27  H3  UNL     1      20.699  62.506  48.986  1.00  0.00     0.210 HD
ENDBRANCH  23  26
BRANCH  24  28
HETATM   28  C12 UNL     1      19.286  66.330  47.660  1.00  0.00     0.198 C 
BRANCH  28  29
HETATM   29  O4  UNL     1      18.976  66.666  48.982  1.00  0.00    -0.398 OA
ATOM     30  H4  UNL     1      18.044  66.843  49.038  1.00  0.00     0.209 HD
ENDBRANCH  28  29
ENDBRANCH  24  28
ENDBRANCH  20  21
ENDBRANCH  19  20
BRANCH  19  31
HETATM   31  C13 UNL     1      18.666  62.124  42.444  1.00  0.00     0.038 C 
HETATM   32  C14 UNL     1      17.885  61.086  43.244  1.00  0.00     0.017 C 
BRANCH  31  33
HETATM   33  C15 UNL     1      17.714  63.045  41.687  1.00  0.00     0.006 C 
HETATM   34  C16 UNL     1      17.791  62.908  40.209  1.00  0.00     0.006 C 
ENDBRANCH  31  33
ENDBRANCH  19  31
ENDBRANCH   1  18
TORSDOF 15
ENDMDL
MODEL 4
REMARK VINA RESULT: -6.874272784      2.209      4.802
REMARK  15 active torsions:
REMARK  status: ('A' for Active; 'I' for Inactive)
REMARK    1  A    between atoms: C2_2  and  S1_3 
REMARK    2  A    between atoms: S1_3  and  C3_4 
REMARK    3  A    between atoms: C4_6  and  S2_7 
REMARK    4  A    between atoms: S2_7  and  C5_8 
REMARK    5  A    between atoms: C5_8  and  C6_9 
REMARK    6  A    between atoms: C7_10  and  O2_11 
REMARK    7  A    between atoms: C7_10  and  C13_22 
REMARK    8  A    between atoms: O2_11  and  C8_12 
REMARK    9  A    between atoms: C10_14  and  O3_15 
REMARK   10  A    between atoms: C11_17  and  C12_18 
REMARK   11  A    between atoms: C12_18  and  O4_19 
REMARK   12  A    between atoms: C13_22  and  C15_24 
REMARK   13  A    between atoms: C17_26  and  O6_27 
REMARK   14  A    between atoms: C18_29  and  O7_30 
REMARK   15  A    between atoms: C19_32  and  O8_33 
ROOT
HETATM    1  C5  UNL     1      18.766  64.566  45.161  1.00  0.00     0.106 C 
ENDROOT
BRANCH   1   2
HETATM    2  S2  UNL     1      19.175  66.156  45.934  1.00  0.00    -0.131 SA
BRANCH   2   3
HETATM    3  C4  UNL     1      20.392  65.885  47.285  1.00  0.00     0.216 C 
HETATM    4  O1  UNL     1      21.513  65.402  46.728  1.00  0.00    -0.355 OA
HETATM    5  C3  UNL     1      21.833  64.078  46.880  1.00  0.00     0.215 C 
HETATM    6  C19 UNL     1      21.509  63.465  48.179  1.00  0.00     0.188 C 
HETATM    7  C18 UNL     1      20.772  64.379  49.131  1.00  0.00     0.182 C 
HETATM    8  C17 UNL     1      19.687  65.021  48.292  1.00  0.00     0.188 C 
BRANCH   5   9
HETATM    9  S1  UNL     1      23.524  63.695  46.375  1.00  0.00    -0.135 SA
BRANCH   9  10
HETATM   10  C2  UNL     1      24.387  65.023  45.566  1.00  0.00     0.072 C 
HETATM   11  C1  UNL     1      25.040  66.023  46.464  1.00  0.00     0.016 C 
ENDBRANCH   9  10
ENDBRANCH   5   9
BRANCH   6  12
HETATM   12  O8  UNL     1      20.678  62.328  48.037  1.00  0.00    -0.389 OA
ATOM     13  H8  UNL     1      19.770  62.566  47.888  1.00  0.00     0.210 HD
ENDBRANCH   6  12
BRANCH   7  14
HETATM   14  O7  UNL     1      20.177  63.590  50.094  1.00  0.00    -0.390 OA
ATOM     15  H7  UNL     1      19.774  64.154  50.743  1.00  0.00     0.210 HD
ENDBRANCH   7  14
BRANCH   8  16
HETATM   16  O6  UNL     1      18.807  65.775  49.061  1.00  0.00    -0.389 OA
ATOM     17  H6  UNL     1      19.264  66.483  49.500  1.00  0.00     0.210 HD
ENDBRANCH   8  16
ENDBRANCH   2   3
ENDBRANCH   1   2
BRANCH   1  18
HETATM   18  C6  UNL     1      19.061  64.528  43.730  1.00  0.00     0.016 C 
HETATM   19  C7  UNL     1      18.885  63.583  42.865  1.00  0.00     0.050 C 
BRANCH  19  20
HETATM   20  O2  UNL     1      19.240  63.757  41.530  1.00  0.00    -0.325 OA
BRANCH  20  21
HETATM   21  C8  UNL     1      20.502  63.462  41.002  1.00  0.00     0.269 C 
HETATM   22  C9  UNL     1      20.503  62.393  39.974  1.00  0.00     0.095 C 
HETATM   23  C10 UNL     1      21.567  61.445  40.408  1.00  0.00     0.154 C 
HETATM   24  C11 UNL     1      22.187  62.107  41.587  1.00  0.00     0.177 C 
HETATM   25  O5  UNL     1      21.354  63.105  42.028  1.00  0.00    -0.351 OA
BRANCH  23  26
HETATM   26  O3  UNL     1      21.074  60.173  40.695  1.00  0.00    -0.393 OA
ATOM     27  H3  UNL     1      20.131  60.112  40.596  1.00  0.00     0.210 HD
ENDBRANCH  23  26
BRANCH  24  28
HETATM   28  C12 UNL     1      23.591  62.624  41.280  1.00  0.00     0.198 C 
BRANCH  28  29
HETATM   29  O4  UNL     1      24.135  61.851  40.250  1.00  0.00    -0.398 OA
ATOM     30  H4  UNL     1      25.027  62.139  40.095  1.00  0.00     0.209 HD
ENDBRANCH  28  29
ENDBRANCH  24  28
ENDBRANCH  20  21
ENDBRANCH  19  20
BRANCH  19  31
HETATM   31  C13 UNL     1      18.304  62.281  43.238  1.00  0.00     0.038 C 
HETATM   32  C14 UNL     1      17.294  61.801  42.200  1.00  0.00     0.017 C 
BRANCH  31  33
HETATM   33  C15 UNL     1      19.387  61.228  43.459  1.00  0.00     0.006 C 
HETATM   34  C16 UNL     1      19.811  61.089  44.877  1.00  0.00     0.006 C 
ENDBRANCH  31  33
ENDBRANCH  19  31
ENDBRANCH   1  18
TORSDOF 15
ENDMDL
MODEL 5
REMARK VINA RESULT: -6.865153651      2.244      4.743
REMARK  15 active torsions:
REMARK  status: ('A' for Active; 'I' for Inactive)
REMARK    1  A    between atoms: C2_2  and  S1_3 
REMARK    2  A    between atoms: S1_3  and  C3_4 
REMARK    3  A    between atoms: C4_6  and  S2_7 
REMARK    4  A    between atoms: S2_7  and  C5_8 
REMARK    5  A    between atoms: C5_8  and  C6_9 
REMARK    6  A    between atoms: C7_10  and  O2_11 
REMARK    7  A    between atoms: C7_10  and  C13_22 
REMARK    8  A    between atoms: O2_11  and  C8_12 
REMARK    9  A    between atoms: C10_14  and  O3_15 
REMARK   10  A    between atoms: C11_17  and  C12_18 
REMARK   11  A    between atoms: C12_18  and  O4_19 
REMARK   12  A    between atoms: C13_22  and  C15_24 
REMARK   13  A    between atoms: C17_26  and  O6_27 
REMARK   14  A    between atoms: C18_29  and  O7_30 
REMARK   15  A    between atoms: C19_32  and  O8_33 
ROOT
HETATM    1  C5  UNL     1      18.987  64.910  45.100  1.00  0.00     0.106 C 
ENDROOT
BRANCH   1   2
HETATM    2  S2  UNL     1      19.470  66.447  45.936  1.00  0.00    -0.131 SA
BRANCH   2   3
HETATM    3  C4  UNL     1      20.615  66.057  47.321  1.00  0.00     0.216 C 
HETATM    4  O1  UNL     1      21.718  65.508  46.791  1.00  0.00    -0.355 OA
HETATM    5  C3  UNL     1      21.938  64.161  46.920  1.00  0.00     0.215 C 
HETATM    6  C19 UNL     1      21.524  63.543  48.191  1.00  0.00     0.188 C 
HETATM    7  C18 UNL     1      20.820  64.485  49.140  1.00  0.00     0.182 C 
HETATM    8  C17 UNL     1      19.814  65.223  48.281  1.00  0.00     0.188 C 
BRANCH   5   9
HETATM    9  S1  UNL     1      23.614  63.669  46.463  1.00  0.00    -0.135 SA
BRANCH   9  10
HETATM   10  C2  UNL     1      24.909  64.665  47.169  1.00  0.00     0.072 C 
HETATM   11  C1  UNL     1      25.259  65.909  46.420  1.00  0.00     0.016 C 
ENDBRANCH   9  10
ENDBRANCH   5   9
BRANCH   6  12
HETATM   12  O8  UNL     1      20.620  62.472  47.990  1.00  0.00    -0.389 OA
ATOM     13  H8  UNL     1      19.730  62.708  48.228  1.00  0.00     0.210 HD
ENDBRANCH   6  12
BRANCH   7  14
HETATM   14  O7  UNL     1      20.135  63.719  50.061  1.00  0.00    -0.390 OA
ATOM     15  H7  UNL     1      20.598  63.754  50.890  1.00  0.00     0.210 HD
ENDBRANCH   7  14
BRANCH   8  16
HETATM   16  O6  UNL     1      18.963  66.020  49.038  1.00  0.00    -0.389 OA
ATOM     17  H6  UNL     1      18.054  65.818  48.850  1.00  0.00     0.210 HD
ENDBRANCH   8  16
ENDBRANCH   2   3
ENDBRANCH   1   2
BRANCH   1  18
HETATM   18  C6  UNL     1      19.716  64.678  43.855  1.00  0.00     0.016 C 
HETATM   19  C7  UNL     1      19.661  63.687  43.026  1.00  0.00     0.050 C 
BRANCH  19  20
HETATM   20  O2  UNL     1      20.453  63.664  41.881  1.00  0.00    -0.325 OA
BRANCH  20  21
HETATM   21  C8  UNL     1      21.830  63.915  41.865  1.00  0.00     0.269 C 
HETATM   22  C9  UNL     1      22.490  63.630  40.569  1.00  0.00     0.095 C 
HETATM   23  C10 UNL     1      23.662  62.777  40.915  1.00  0.00     0.154 C 
HETATM   24  C11 UNL     1      23.660  62.740  42.402  1.00  0.00     0.177 C 
HETATM   25  O5  UNL     1      22.439  63.174  42.858  1.00  0.00    -0.351 OA
BRANCH  23  26
HETATM   26  O3  UNL     1      23.597  61.509  40.340  1.00  0.00    -0.393 OA
ATOM     27  H3  UNL     1      24.163  60.879  40.771  1.00  0.00     0.210 HD
ENDBRANCH  23  26
BRANCH  24  28
HETATM   28  C12 UNL     1      24.813  63.546  42.997  1.00  0.00     0.198 C 
BRANCH  28  29
HETATM   29  O4  UNL     1      25.879  63.530  42.092  1.00  0.00    -0.398 OA
ATOM     30  H4  UNL     1      26.188  62.636  42.004  1.00  0.00     0.209 HD
ENDBRANCH  28  29
ENDBRANCH  24  28
ENDBRANCH  20  21
ENDBRANCH  19  20
BRANCH  19  31
HETATM   31  C13 UNL     1      18.766  62.536  43.243  1.00  0.00     0.038 C 
HETATM   32  C14 UNL     1      17.775  62.374  42.095  1.00  0.00     0.017 C 
BRANCH  31  33
HETATM   33  C15 UNL     1      19.555  61.247  43.457  1.00  0.00     0.006 C 
HETATM   34  C16 UNL     1      20.178  61.139  44.802  1.00  0.00     0.006 C 
ENDBRANCH  31  33
ENDBRANCH  19  31
ENDBRANCH   1  18
TORSDOF 15
ENDMDL
