MODEL 1
REMARK VINA RESULT: -7.591280005      0.000      0.000
REMARK  13 active torsions:
REMARK  status: ('A' for Active; 'I' for Inactive)
REMARK    1  A    between atoms: C2_2  and  C3_3 
REMARK    2  A    between atoms: C3_3  and  C4_4 
REMARK    3  A    between atoms: C4_4  and  C5_5 
REMARK    4  A    between atoms: C5_5  and  O1_6 
REMARK    5  A    between atoms: C5_5  and  C11_14 
REMARK    6  A    between atoms: O1_6  and  C6_7 
REMARK    7  A    between atoms: C11_14  and  C14_19 
REMARK    8  A    between atoms: C12_15  and  C13_16 
REMARK    9  A    between atoms: C13_16  and  O4_17 
REMARK   10  A    between atoms: C15_21  and  O6_22 
REMARK   11  A    between atoms: C17_24  and  O7_25 
REMARK   12  A    between atoms: C19_29  and  O8_30 
REMARK   13  A    between atoms: C20_32  and  O9_33 
ROOT
HETATM    1  C11 UNL     1      19.104  65.411  46.379  1.00  0.00    -0.021 C 
HETATM    2  C12 UNL     1      18.191  65.362  47.339  1.00  0.00     0.007 C 
ENDROOT
BRANCH   1   3
HETATM    3  C5  UNL     1      18.728  65.868  45.042  1.00  0.00     0.158 C 
BRANCH   3   4
HETATM    4  C4  UNL     1      18.659  67.354  44.904  1.00  0.00     0.037 C 
BRANCH   4   5
HETATM    5  C3  UNL     1      19.709  67.848  43.892  1.00  0.00     0.002 C 
BRANCH   5   6
HETATM    6  C2  UNL     1      20.262  69.191  44.355  1.00  0.00    -0.004 C 
HETATM    7  C1  UNL     1      20.664  69.150  45.806  1.00  0.00     0.005 C 
ENDBRANCH   5   6
ENDBRANCH   4   5
ENDBRANCH   3   4
BRANCH   3   8
HETATM    8  O1  UNL     1      19.451  65.225  44.029  1.00  0.00    -0.329 OA
BRANCH   8   9
HETATM    9  C6  UNL     1      19.012  63.933  43.766  1.00  0.00     0.418 C 
HETATM   10  O2  UNL     1      18.296  63.866  42.566  1.00  0.00    -0.309 OA
HETATM   11  C7  UNL     1      18.053  62.611  42.025  1.00  0.00     0.139 C 
HETATM   12  C8  UNL     1      18.855  61.631  42.403  1.00  0.00     0.029 C 
HETATM   13  C9  UNL     1      19.952  61.853  43.345  1.00  0.00     0.147 C 
HETATM   14  C10 UNL     1      19.757  60.953  44.562  1.00  0.00     0.044 C 
HETATM   15  O3  UNL     1      20.166  63.142  43.733  1.00  0.00    -0.330 OA
ENDBRANCH   8   9
ENDBRANCH   3   8
ENDBRANCH   1   3
BRANCH   1  16
HETATM   16  C14 UNL     1      20.520  64.960  46.634  1.00  0.00     0.187 C 
HETATM   17  O5  UNL     1      21.427  65.747  45.925  1.00  0.00    -0.346 OA
HETATM   18  C15 UNL     1      22.748  65.664  46.340  1.00  0.00     0.289 C 
HETATM   19  C17 UNL     1      23.240  66.135  47.614  1.00  0.00     0.190 C 
HETATM   20  C18 UNL     1      22.970  65.634  48.957  1.00  0.00     0.123 C 
HETATM   21  S1  UNL     1      24.273  64.439  49.472  1.00  0.00    -0.087 SA
HETATM   22  C19 UNL     1      21.603  64.940  49.222  1.00  0.00     0.167 C 
HETATM   23  C20 UNL     1      20.830  64.966  48.023  1.00  0.00     0.181 C 
BRANCH  18  24
HETATM   24  O6  UNL     1      23.344  64.469  45.882  1.00  0.00    -0.363 OA
HETATM   25  C16 UNL     1      23.519  64.390  44.531  1.00  0.00     0.204 C 
ENDBRANCH  18  24
BRANCH  19  26
HETATM   26  O7  UNL     1      24.667  66.060  47.485  1.00  0.00    -0.389 OA
ATOM     27  H7  UNL     1      24.804  65.879  46.563  1.00  0.00     0.210 HD
ENDBRANCH  19  26
BRANCH  22  28
HETATM   28  O8  UNL     1      21.812  63.698  49.857  1.00  0.00    -0.392 OA
ATOM     29  H8  UNL     1      20.986  63.361  50.185  1.00  0.00     0.210 HD
ENDBRANCH  22  28
BRANCH  23  30
HETATM   30  O9  UNL     1      20.859  66.390  47.983  1.00  0.00    -0.390 OA
ATOM     31  H9  UNL     1      21.780  66.346  47.752  1.00  0.00     0.210 HD
ENDBRANCH  23  30
ENDBRANCH   1  16
BRANCH   2  32
HETATM   32  C13 UNL     1      16.775  65.704  47.314  1.00  0.00     0.192 C 
BRANCH  32  33
HETATM   33  O4  UNL     1      16.039  64.556  46.923  1.00  0.00    -0.397 OA
ATOM     34  H4  UNL     1      15.979  64.541  45.975  1.00  0.00     0.209 HD
ENDBRANCH  32  33
ENDBRANCH   2  32
TORSDOF 13
ENDMDL
MODEL 2
REMARK VINA RESULT: -7.333304120      2.300      5.230
REMARK  13 active torsions:
REMARK  status: ('A' for Active; 'I' for Inactive)
REMARK    1  A    between atoms: C2_2  and  C3_3 
REMARK    2  A    between atoms: C3_3  and  C4_4 
REMARK    3  A    between atoms: C4_4  and  C5_5 
REMARK    4  A    between atoms: C5_5  and  O1_6 
REMARK    5  A    between atoms: C5_5  and  C11_14 
REMARK    6  A    between atoms: O1_6  and  C6_7 
REMARK    7  A    between atoms: C11_14  and  C14_19 
REMARK    8  A    between atoms: C12_15  and  C13_16 
REMARK    9  A    between atoms: C13_16  and  O4_17 
REMARK   10  A    between atoms: C15_21  and  O6_22 
REMARK   11  A    between atoms: C17_24  and  O7_25 
REMARK   12  A    between atoms: C19_29  and  O8_30 
REMARK   13  A    between atoms: C20_32  and  O9_33 
ROOT
HETATM    1  C11 UNL     1      18.597  65.416  45.924  1.00  0.00    -0.021 C 
HETATM    2  C12 UNL     1      17.326  65.327  46.291  1.00  0.00     0.007 C 
ENDROOT
BRANCH   1   3
HETATM    3  C5  UNL     1      19.568  66.045  46.817  1.00  0.00     0.158 C 
BRANCH   3   4
HETATM    4  C4  UNL     1      19.435  67.530  46.913  1.00  0.00     0.037 C 
BRANCH   4   5
HETATM    5  C3  UNL     1      20.753  68.214  46.504  1.00  0.00     0.002 C 
BRANCH   5   6
HETATM    6  C2  UNL     1      20.470  69.236  45.409  1.00  0.00    -0.004 C 
HETATM    7  C1  UNL     1      19.658  68.634  44.291  1.00  0.00     0.005 C 
ENDBRANCH   5   6
ENDBRANCH   4   5
ENDBRANCH   3   4
BRANCH   3   8
HETATM    8  O1  UNL     1      19.667  65.392  48.053  1.00  0.00    -0.329 OA
BRANCH   8   9
HETATM    9  C6  UNL     1      20.969  65.296  48.529  1.00  0.00     0.418 C 
HETATM   10  O2  UNL     1      21.036  64.525  49.694  1.00  0.00    -0.309 OA
HETATM   11  C7  UNL     1      22.287  64.096  50.117  1.00  0.00     0.139 C 
HETATM   12  C8  UNL     1      23.242  64.049  49.205  1.00  0.00     0.029 C 
HETATM   13  C9  UNL     1      22.999  64.429  47.813  1.00  0.00     0.147 C 
HETATM   14  C10 UNL     1      23.935  65.574  47.435  1.00  0.00     0.044 C 
HETATM   15  O3  UNL     1      21.712  64.735  47.485  1.00  0.00    -0.330 OA
ENDBRANCH   8   9
ENDBRANCH   3   8
ENDBRANCH   1   3
BRANCH   1  16
HETATM   16  C14 UNL     1      19.048  64.916  44.575  1.00  0.00     0.187 C 
HETATM   17  O5  UNL     1      20.413  65.144  44.393  1.00  0.00    -0.346 OA
HETATM   18  C15 UNL     1      21.009  64.429  43.365  1.00  0.00     0.289 C 
HETATM   19  C17 UNL     1      21.184  62.995  43.356  1.00  0.00     0.190 C 
HETATM   20  C18 UNL     1      20.182  61.938  43.273  1.00  0.00     0.123 C 
HETATM   21  S1  UNL     1      19.946  61.409  41.525  1.00  0.00    -0.087 SA
HETATM   22  C19 UNL     1      18.764  62.222  43.845  1.00  0.00     0.167 C 
HETATM   23  C20 UNL     1      18.742  63.538  44.397  1.00  0.00     0.181 C 
BRANCH  18  24
HETATM   24  O6  UNL     1      20.692  64.994  42.111  1.00  0.00    -0.363 OA
HETATM   25  C16 UNL     1      21.274  66.201  41.856  1.00  0.00     0.204 C 
ENDBRANCH  18  24
BRANCH  19  26
HETATM   26  O7  UNL     1      22.047  62.758  42.234  1.00  0.00    -0.389 OA
ATOM     27  H7  UNL     1      22.778  62.279  42.604  1.00  0.00     0.210 HD
ENDBRANCH  19  26
BRANCH  22  28
HETATM   28  O8  UNL     1      17.785  61.882  42.889  1.00  0.00    -0.392 OA
ATOM     29  H8  UNL     1      16.934  61.818  43.307  1.00  0.00     0.210 HD
ENDBRANCH  22  28
BRANCH  23  30
HETATM   30  O9  UNL     1      19.782  63.216  45.318  1.00  0.00    -0.390 OA
ATOM     31  H9  UNL     1      19.167  62.670  45.793  1.00  0.00     0.210 HD
ENDBRANCH  23  30
ENDBRANCH   1  16
BRANCH   2  32
HETATM   32  C13 UNL     1      16.663  65.770  47.511  1.00  0.00     0.192 C 
BRANCH  32  33
HETATM   33  O4  UNL     1      15.354  65.223  47.539  1.00  0.00    -0.397 OA
ATOM     34  H4  UNL     1      14.727  65.936  47.516  1.00  0.00     0.209 HD
ENDBRANCH  32  33
ENDBRANCH   2  32
TORSDOF 13
ENDMDL
MODEL 3
REMARK VINA RESULT: -7.228027083      1.027      1.126
REMARK  13 active torsions:
REMARK  status: ('A' for Active; 'I' for Inactive)
REMARK    1  A    between atoms: C2_2  and  C3_3 
REMARK    2  A    between atoms: C3_3  and  C4_4 
REMARK    3  A    between atoms: C4_4  and  C5_5 
REMARK    4  A    between atoms: C5_5  and  O1_6 
REMARK    5  A    between atoms: C5_5  and  C11_14 
REMARK    6  A    between atoms: O1_6  and  C6_7 
REMARK    7  A    between atoms: C11_14  and  C14_19 
REMARK    8  A    between atoms: C12_15  and  C13_16 
REMARK    9  A    between atoms: C13_16  and  O4_17 
REMARK   10  A    between atoms: C15_21  and  O6_22 
REMARK   11  A    between atoms: C17_24  and  O7_25 
REMARK   12  A    between atoms: C19_29  and  O8_30 
REMARK   13  A    between atoms: C20_32  and  O9_33 
ROOT
HETATM    1  C11 UNL     1      19.605  65.206  45.692  1.00  0.00    -0.021 C 
HETATM    2  C12 UNL     1      18.446  65.344  46.320  1.00  0.00     0.007 C 
ENDROOT
BRANCH   1   3
HETATM    3  C5  UNL     1      19.709  65.549  44.275  1.00  0.00     0.158 C 
BRANCH   3   4
HETATM    4  C4  UNL     1      20.382  66.858  44.014  1.00  0.00     0.037 C 
BRANCH   4   5
HETATM    5  C3  UNL     1      19.395  68.020  44.229  1.00  0.00     0.002 C 
BRANCH   5   6
HETATM    6  C2  UNL     1      20.175  69.287  44.562  1.00  0.00    -0.004 C 
HETATM    7  C1  UNL     1      20.751  69.229  45.953  1.00  0.00     0.005 C 
ENDBRANCH   5   6
ENDBRANCH   4   5
ENDBRANCH   3   4
BRANCH   3   8
HETATM    8  O1  UNL     1      20.187  64.487  43.496  1.00  0.00    -0.329 OA
BRANCH   8   9
HETATM    9  C6  UNL     1      19.181  63.748  42.887  1.00  0.00     0.418 C 
HETATM   10  O2  UNL     1      19.110  64.008  41.514  1.00  0.00    -0.309 OA
HETATM   11  C7  UNL     1      18.366  63.140  40.727  1.00  0.00     0.139 C 
HETATM   12  C8  UNL     1      18.156  61.927  41.209  1.00  0.00     0.029 C 
HETATM   13  C9  UNL     1      18.681  61.513  42.509  1.00  0.00     0.147 C 
HETATM   14  C10 UNL     1      17.522  61.093  43.408  1.00  0.00     0.044 C 
HETATM   15  O3  UNL     1      19.485  62.407  43.151  1.00  0.00    -0.330 OA
ENDBRANCH   8   9
ENDBRANCH   3   8
ENDBRANCH   1   3
BRANCH   1  16
HETATM   16  C14 UNL     1      20.812  64.656  46.410  1.00  0.00     0.187 C 
HETATM   17  O5  UNL     1      21.982  65.260  45.949  1.00  0.00    -0.346 OA
HETATM   18  C15 UNL     1      23.098  65.103  46.756  1.00  0.00     0.289 C 
HETATM   19  C17 UNL     1      23.246  65.678  48.074  1.00  0.00     0.190 C 
HETATM   20  C18 UNL     1      22.530  65.372  49.307  1.00  0.00     0.123 C 
HETATM   21  S1  UNL     1      23.457  64.131  50.301  1.00  0.00    -0.087 SA
HETATM   22  C19 UNL     1      21.068  64.850  49.197  1.00  0.00     0.167 C 
HETATM   23  C20 UNL     1      20.694  64.802  47.821  1.00  0.00     0.181 C 
BRANCH  18  24
HETATM   24  O6  UNL     1      23.645  63.810  46.611  1.00  0.00    -0.363 OA
HETATM   25  C16 UNL     1      24.216  63.555  45.399  1.00  0.00     0.204 C 
ENDBRANCH  18  24
BRANCH  19  26
HETATM   26  O7  UNL     1      24.626  65.452  48.398  1.00  0.00    -0.389 OA
ATOM     27  H7  UNL     1      25.045  66.283  48.209  1.00  0.00     0.210 HD
ENDBRANCH  19  26
BRANCH  22  28
HETATM   28  O8  UNL     1      20.919  63.681  49.972  1.00  0.00    -0.392 OA
ATOM     29  H8  UNL     1      20.335  63.075  49.530  1.00  0.00     0.210 HD
ENDBRANCH  22  28
BRANCH  23  30
HETATM   30  O9  UNL     1      20.917  66.202  47.667  1.00  0.00    -0.390 OA
ATOM     31  H9  UNL     1      21.333  66.211  48.521  1.00  0.00     0.210 HD
ENDBRANCH  23  30
ENDBRANCH   1  16
BRANCH   2  32
HETATM   32  C13 UNL     1      17.156  65.810  45.828  1.00  0.00     0.192 C 
BRANCH  32  33
HETATM   33  O4  UNL     1      16.131  65.069  46.470  1.00  0.00    -0.397 OA
ATOM     34  H4  UNL     1      15.545  64.723  45.806  1.00  0.00     0.209 HD
ENDBRANCH  32  33
ENDBRANCH   2  32
TORSDOF 13
ENDMDL
MODEL 4
REMARK VINA RESULT: -7.210335138      1.976      2.787
REMARK  13 active torsions:
REMARK  status: ('A' for Active; 'I' for Inactive)
REMARK    1  A    between atoms: C2_2  and  C3_3 
REMARK    2  A    between atoms: C3_3  and  C4_4 
REMARK    3  A    between atoms: C4_4  and  C5_5 
REMARK    4  A    between atoms: C5_5  and  O1_6 
REMARK    5  A    between atoms: C5_5  and  C11_14 
REMARK    6  A    between atoms: O1_6  and  C6_7 
REMARK    7  A    between atoms: C11_14  and  C14_19 
REMARK    8  A    between atoms: C12_15  and  C13_16 
REMARK    9  A    between atoms: C13_16  and  O4_17 
REMARK   10  A    between atoms: C15_21  and  O6_22 
REMARK   11  A    between atoms: C17_24  and  O7_25 
REMARK   12  A    between atoms: C19_29  and  O8_30 
REMARK   13  A    between atoms: C20_32  and  O9_33 
ROOT
HETATM    1  C11 UNL     1      21.951  64.798  46.953  1.00  0.00    -0.021 C 
HETATM    2  C12 UNL     1      21.233  64.436  48.007  1.00  0.00     0.007 C 
ENDROOT
BRANCH   1   3
HETATM    3  C5  UNL     1      21.338  65.606  45.900  1.00  0.00     0.158 C 
BRANCH   3   4
HETATM    4  C4  UNL     1      21.693  67.056  45.960  1.00  0.00     0.037 C 
BRANCH   4   5
HETATM    5  C3  UNL     1      20.486  67.884  46.440  1.00  0.00     0.002 C 
BRANCH   5   6
HETATM    6  C2  UNL     1      19.229  67.402  45.725  1.00  0.00    -0.004 C 
HETATM    7  C1  UNL     1      19.046  68.100  44.402  1.00  0.00     0.005 C 
ENDBRANCH   5   6
ENDBRANCH   4   5
ENDBRANCH   3   4
BRANCH   3   8
HETATM    8  O1  UNL     1      21.474  65.029  44.630  1.00  0.00    -0.329 OA
BRANCH   8   9
HETATM    9  C6  UNL     1      20.473  64.115  44.324  1.00  0.00     0.418 C 
HETATM   10  O2  UNL     1      19.635  64.589  43.309  1.00  0.00    -0.309 OA
HETATM   11  C7  UNL     1      18.783  63.681  42.696  1.00  0.00     0.139 C 
HETATM   12  C8  UNL     1      19.112  62.403  42.776  1.00  0.00     0.029 C 
HETATM   13  C9  UNL     1      20.317  61.960  43.476  1.00  0.00     0.147 C 
HETATM   14  C10 UNL     1      19.923  61.001  44.596  1.00  0.00     0.044 C 
HETATM   15  O3  UNL     1      21.136  62.940  43.952  1.00  0.00    -0.330 OA
ENDBRANCH   8   9
ENDBRANCH   3   8
ENDBRANCH   1   3
BRANCH   1  16
HETATM   16  C14 UNL     1      23.383  64.351  46.803  1.00  0.00     0.187 C 
HETATM   17  O5  UNL     1      24.083  65.205  45.950  1.00  0.00    -0.346 OA
HETATM   18  C15 UNL     1      25.465  65.111  46.006  1.00  0.00     0.289 C 
HETATM   19  C17 UNL     1      26.268  65.492  47.146  1.00  0.00     0.190 C 
HETATM   20  C18 UNL     1      26.349  64.884  48.470  1.00  0.00     0.123 C 
HETATM   21  S1  UNL     1      27.734  63.675  48.541  1.00  0.00    -0.087 SA
HETATM   22  C19 UNL     1      25.092  64.151  49.020  1.00  0.00     0.167 C 
HETATM   23  C20 UNL     1      24.038  64.256  48.063  1.00  0.00     0.181 C 
BRANCH  18  24
HETATM   24  O6  UNL     1      25.920  63.965  45.320  1.00  0.00    -0.363 OA
HETATM   25  C16 UNL     1      25.807  64.021  43.961  1.00  0.00     0.204 C 
ENDBRANCH  18  24
BRANCH  19  26
HETATM   26  O7  UNL     1      27.614  65.449  46.652  1.00  0.00    -0.389 OA
ATOM     27  H7  UNL     1      27.722  64.554  46.355  1.00  0.00     0.210 HD
ENDBRANCH  19  26
BRANCH  22  28
HETATM   28  O8  UNL     1      25.450  62.867  49.481  1.00  0.00    -0.392 OA
ATOM     29  H8  UNL     1      25.974  62.423  48.824  1.00  0.00     0.210 HD
ENDBRANCH  22  28
BRANCH  23  30
HETATM   30  O9  UNL     1      24.062  65.680  48.128  1.00  0.00    -0.390 OA
ATOM     31  H9  UNL     1      24.828  65.674  47.566  1.00  0.00     0.210 HD
ENDBRANCH  23  30
ENDBRANCH   1  16
BRANCH   2  32
HETATM   32  C13 UNL     1      19.842  64.713  48.341  1.00  0.00     0.192 C 
BRANCH  32  33
HETATM   33  O4  UNL     1      19.798  65.840  49.201  1.00  0.00    -0.397 OA
ATOM     34  H4  UNL     1      18.967  66.284  49.078  1.00  0.00     0.209 HD
ENDBRANCH  32  33
ENDBRANCH   2  32
TORSDOF 13
ENDMDL
MODEL 5
REMARK VINA RESULT: -7.205331835      2.378      3.641
REMARK  13 active torsions:
REMARK  status: ('A' for Active; 'I' for Inactive)
REMARK    1  A    between atoms: C2_2  and  C3_3 
REMARK    2  A    between atoms: C3_3  and  C4_4 
REMARK    3  A    between atoms: C4_4  and  C5_5 
REMARK    4  A    between atoms: C5_5  and  O1_6 
REMARK    5  A    between atoms: C5_5  and  C11_14 
REMARK    6  A    between atoms: O1_6  and  C6_7 
REMARK    7  A    between atoms: C11_14  and  C14_19 
REMARK    8  A    between atoms: C12_15  and  C13_16 
REMARK    9  A    between atoms: C13_16  and  O4_17 
REMARK   10  A    between atoms: C15_21  and  O6_22 
REMARK   11  A    between atoms: C17_24  and  O7_25 
REMARK   12  A    between atoms: C19_29  and  O8_30 
REMARK   13  A    between atoms: C20_32  and  O9_33 
ROOT
HETATM    1  C11 UNL     1      22.668  64.573  47.534  1.00  0.00    -0.021 C 
HETATM    2  C12 UNL     1      22.025  64.112  48.598  1.00  0.00     0.007 C 
ENDROOT
BRANCH   1   3
HETATM    3  C5  UNL     1      21.962  65.410  46.566  1.00  0.00     0.158 C 
BRANCH   3   4
HETATM    4  C4  UNL     1      22.194  66.875  46.743  1.00  0.00     0.037 C 
BRANCH   4   5
HETATM    5  C3  UNL     1      20.860  67.604  46.985  1.00  0.00     0.002 C 
BRANCH   5   6
HETATM    6  C2  UNL     1      20.889  68.955  46.279  1.00  0.00    -0.004 C 
HETATM    7  C1  UNL     1      20.314  68.863  44.890  1.00  0.00     0.005 C 
ENDBRANCH   5   6
ENDBRANCH   4   5
ENDBRANCH   3   4
BRANCH   3   8
HETATM    8  O1  UNL     1      22.112  64.955  45.249  1.00  0.00    -0.329 OA
BRANCH   8   9
HETATM    9  C6  UNL     1      20.960  65.082  44.481  1.00  0.00     0.418 C 
HETATM   10  O2  UNL     1      21.010  64.274  43.340  1.00  0.00    -0.309 OA
HETATM   11  C7  UNL     1      19.829  64.067  42.641  1.00  0.00     0.139 C 
HETATM   12  C8  UNL     1      18.701  64.253  43.304  1.00  0.00     0.029 C 
HETATM   13  C9  UNL     1      18.691  64.655  44.710  1.00  0.00     0.147 C 
HETATM   14  C10 UNL     1      17.937  65.975  44.848  1.00  0.00     0.044 C 
HETATM   15  O3  UNL     1      19.903  64.729  45.328  1.00  0.00    -0.330 OA
ENDBRANCH   8   9
ENDBRANCH   3   8
ENDBRANCH   1   3
BRANCH   1  16
HETATM   16  C14 UNL     1      24.110  64.210  47.285  1.00  0.00     0.187 C 
HETATM   17  O5  UNL     1      24.699  65.104  46.391  1.00  0.00    -0.346 OA
HETATM   18  C15 UNL     1      26.085  65.090  46.354  1.00  0.00     0.289 C 
HETATM   19  C17 UNL     1      26.941  65.514  47.438  1.00  0.00     0.190 C 
HETATM   20  C18 UNL     1      27.146  64.909  48.750  1.00  0.00     0.123 C 
HETATM   21  S1  UNL     1      28.600  63.782  48.720  1.00  0.00    -0.087 SA
HETATM   22  C19 UNL     1      25.973  64.104  49.379  1.00  0.00     0.167 C 
HETATM   23  C20 UNL     1      24.853  64.150  48.497  1.00  0.00     0.181 C 
BRANCH  18  24
HETATM   24  O6  UNL     1      26.557  63.973  45.631  1.00  0.00    -0.363 OA
HETATM   25  C16 UNL     1      26.140  63.904  44.334  1.00  0.00     0.204 C 
ENDBRANCH  18  24
BRANCH  19  26
HETATM   26  O7  UNL     1      28.251  65.550  46.854  1.00  0.00    -0.389 OA
ATOM     27  H7  UNL     1      28.695  64.805  47.240  1.00  0.00     0.210 HD
ENDBRANCH  19  26
BRANCH  22  28
HETATM   28  O8  UNL     1      26.436  62.842  49.808  1.00  0.00    -0.392 OA
ATOM     29  H8  UNL     1      25.794  62.174  49.594  1.00  0.00     0.210 HD
ENDBRANCH  22  28
BRANCH  23  30
HETATM   30  O9  UNL     1      24.800  65.572  48.569  1.00  0.00    -0.390 OA
ATOM     31  H9  UNL     1      24.284  65.495  49.363  1.00  0.00     0.210 HD
ENDBRANCH  23  30
ENDBRANCH   1  16
BRANCH   2  32
HETATM   32  C13 UNL     1      20.642  64.297  49.018  1.00  0.00     0.192 C 
BRANCH  32  33
HETATM   33  O4  UNL     1      20.063  63.021  49.245  1.00  0.00    -0.397 OA
ATOM     34  H4  UNL     1      19.330  62.911  48.651  1.00  0.00     0.209 HD
ENDBRANCH  32  33
ENDBRANCH   2  32
TORSDOF 13
ENDMDL
