MODEL 1
REMARK VINA RESULT: -2.930606928      0.000      0.000
REMARK  1 active torsions:
REMARK  status: ('A' for Active; 'I' for Inactive)
REMARK    1  A    between atoms: N1_1  and  C1_4 
ROOT
HETATM    1  C1  UNL     1      50.060  35.018  46.719  1.00  0.00     0.171 C 
HETATM    2  N2  UNL     1      49.124  34.049  46.699  1.00  0.00    -0.312 N 
ATOM      3  H2  UNL     1      48.639  33.867  47.578  1.00  0.00     0.170 HD
HETATM    4  C2  UNL     1      48.761  33.299  45.650  1.00  0.00     0.198 C 
HETATM    5  N3  UNL     1      47.494  32.664  45.798  1.00  0.00    -0.063 NA
HETATM    6  N4  UNL     1      49.422  33.064  44.482  1.00  0.00    -0.282 N 
ATOM      7  H4  UNL     1      49.041  32.332  43.883  1.00  0.00     0.173 HD
HETATM    8  C3  UNL     1      50.524  33.697  44.032  1.00  0.00     0.329 C 
HETATM    9  O1  UNL     1      51.189  33.156  43.109  1.00  0.00    -0.247 OA
HETATM   10  N5  UNL     1      51.021  34.877  44.465  1.00  0.00    -0.272 N 
ATOM     11  H5  UNL     1      51.649  35.353  43.819  1.00  0.00     0.174 HD
HETATM   12  C4  UNL     1      50.796  35.517  45.646  1.00  0.00     0.293 C 
HETATM   13  O2  UNL     1      51.298  36.641  45.755  1.00  0.00    -0.264 OA
ENDROOT
BRANCH   1  14
HETATM   14  N1  UNL     1      50.332  35.568  47.851  1.00  0.00    -0.381 N 
ATOM     15  H12 UNL     1      49.792  35.205  48.636  1.00  0.00     0.157 HD
ATOM     16  H11 UNL     1      51.043  36.300  47.867  1.00  0.00     0.157 HD
ENDBRANCH   1  14
TORSDOF 1
ENDMDL
MODEL 2
REMARK VINA RESULT: -2.547403557      6.649      8.738
REMARK  1 active torsions:
REMARK  status: ('A' for Active; 'I' for Inactive)
REMARK    1  A    between atoms: N1_1  and  C1_4 
ROOT
HETATM    1  C1  UNL     1      55.936  37.809  45.307  1.00  0.00     0.171 C 
HETATM    2  N2  UNL     1      56.695  38.729  44.679  1.00  0.00    -0.312 N 
ATOM      3  H2  UNL     1      57.101  38.450  43.785  1.00  0.00     0.170 HD
HETATM    4  C2  UNL     1      56.975  39.969  45.101  1.00  0.00     0.198 C 
HETATM    5  N3  UNL     1      57.436  40.843  44.075  1.00  0.00    -0.063 NA
HETATM    6  N4  UNL     1      56.880  40.502  46.351  1.00  0.00    -0.282 N 
ATOM      7  H4  UNL     1      57.297  41.422  46.487  1.00  0.00     0.173 HD
HETATM    8  C3  UNL     1      56.293  39.943  47.429  1.00  0.00     0.329 C 
HETATM    9  O1  UNL     1      56.568  40.406  48.567  1.00  0.00    -0.247 OA
HETATM   10  N5  UNL     1      55.420  38.911  47.438  1.00  0.00    -0.272 N 
ATOM     11  H5  UNL     1      54.843  38.831  48.275  1.00  0.00     0.174 HD
HETATM   12  C4  UNL     1      55.205  37.965  46.482  1.00  0.00     0.293 C 
HETATM   13  O2  UNL     1      54.272  37.184  46.698  1.00  0.00    -0.264 OA
ENDROOT
BRANCH   1  14
HETATM   14  N1  UNL     1      55.857  36.635  44.784  1.00  0.00    -0.381 N 
ATOM     15  H12 UNL     1      56.244  35.890  45.362  1.00  0.00     0.157 HD
ATOM     16  H11 UNL     1      55.428  36.552  43.862  1.00  0.00     0.157 HD
ENDBRANCH   1  14
TORSDOF 1
ENDMDL
MODEL 3
REMARK VINA RESULT: -2.484702340      1.850      2.857
REMARK  1 active torsions:
REMARK  status: ('A' for Active; 'I' for Inactive)
REMARK    1  A    between atoms: N1_1  and  C1_4 
ROOT
HETATM    1  C1  UNL     1      51.014  35.293  45.551  1.00  0.00     0.171 C 
HETATM    2  N2  UNL     1      51.058  34.669  44.357  1.00  0.00    -0.312 N 
ATOM      3  H2  UNL     1      51.682  35.069  43.657  1.00  0.00     0.170 HD
HETATM    4  C2  UNL     1      50.369  33.579  43.991  1.00  0.00     0.198 C 
HETATM    5  N3  UNL     1      50.906  32.906  42.856  1.00  0.00    -0.063 NA
HETATM    6  N4  UNL     1      49.249  33.034  44.543  1.00  0.00    -0.282 N 
ATOM      7  H4  UNL     1      48.793  32.294  44.010  1.00  0.00     0.173 HD
HETATM    8  C3  UNL     1      48.679  33.369  45.718  1.00  0.00     0.329 C 
HETATM    9  O1  UNL     1      47.492  33.008  45.931  1.00  0.00    -0.247 OA
HETATM   10  N5  UNL     1      49.244  34.067  46.729  1.00  0.00    -0.272 N 
ATOM     11  H5  UNL     1      48.805  33.952  47.642  1.00  0.00     0.174 HD
HETATM   12  C4  UNL     1      50.319  34.903  46.694  1.00  0.00     0.293 C 
HETATM   13  O2  UNL     1      50.695  35.343  47.785  1.00  0.00    -0.264 OA
ENDROOT
BRANCH   1  14
HETATM   14  N1  UNL     1      51.684  36.384  45.684  1.00  0.00    -0.381 N 
ATOM     15  H12 UNL     1      51.111  37.225  45.740  1.00  0.00     0.157 HD
ATOM     16  H11 UNL     1      52.702  36.317  45.721  1.00  0.00     0.157 HD
ENDBRANCH   1  14
TORSDOF 1
ENDMDL
MODEL 4
REMARK VINA RESULT: -2.224687832      1.938      3.108
REMARK  1 active torsions:
REMARK  status: ('A' for Active; 'I' for Inactive)
REMARK    1  A    between atoms: N1_1  and  C1_4 
ROOT
HETATM    1  C1  UNL     1      49.220  35.484  45.704  1.00  0.00     0.171 C 
HETATM    2  N2  UNL     1      50.477  35.968  45.652  1.00  0.00    -0.312 N 
ATOM      3  H2  UNL     1      50.605  36.935  45.951  1.00  0.00     0.170 HD
HETATM    4  C2  UNL     1      51.577  35.317  45.249  1.00  0.00     0.198 C 
HETATM    5  N3  UNL     1      52.797  35.912  45.682  1.00  0.00    -0.063 NA
HETATM    6  N4  UNL     1      51.689  34.186  44.498  1.00  0.00    -0.282 N 
ATOM      7  H4  UNL     1      52.624  33.948  44.169  1.00  0.00     0.173 HD
HETATM    8  C3  UNL     1      50.695  33.346  44.144  1.00  0.00     0.329 C 
HETATM    9  O1  UNL     1      50.902  32.541  43.198  1.00  0.00    -0.247 OA
HETATM   10  N5  UNL     1      49.465  33.259  44.696  1.00  0.00    -0.272 N 
ATOM     11  H5  UNL     1      48.970  32.382  44.534  1.00  0.00     0.174 HD
HETATM   12  C4  UNL     1      48.794  34.184  45.439  1.00  0.00     0.293 C 
HETATM   13  O2  UNL     1      47.714  33.816  45.911  1.00  0.00    -0.264 OA
ENDROOT
BRANCH   1  14
HETATM   14  N1  UNL     1      48.277  36.295  46.036  1.00  0.00    -0.381 N 
ATOM     15  H12 UNL     1      47.337  35.941  45.858  1.00  0.00     0.157 HD
ATOM     16  H11 UNL     1      48.541  37.195  46.435  1.00  0.00     0.157 HD
ENDBRANCH   1  14
TORSDOF 1
ENDMDL
MODEL 5
REMARK VINA RESULT: -1.615641610      6.834      8.554
REMARK  1 active torsions:
REMARK  status: ('A' for Active; 'I' for Inactive)
REMARK    1  A    between atoms: N1_1  and  C1_4 
ROOT
HETATM    1  C1  UNL     1      55.371  38.130  46.452  1.00  0.00     0.171 C 
HETATM    2  N2  UNL     1      55.744  39.001  47.411  1.00  0.00    -0.312 N 
ATOM      3  H2  UNL     1      55.256  38.931  48.304  1.00  0.00     0.170 HD
HETATM    4  C2  UNL     1      56.688  39.948  47.318  1.00  0.00     0.198 C 
HETATM    5  N3  UNL     1      57.154  40.429  48.575  1.00  0.00    -0.063 NA
HETATM    6  N4  UNL     1      57.253  40.503  46.210  1.00  0.00    -0.282 N 
ATOM      7  H4  UNL     1      57.838  41.325  46.361  1.00  0.00     0.173 HD
HETATM    8  C3  UNL     1      57.123  40.083  44.936  1.00  0.00     0.329 C 
HETATM    9  O1  UNL     1      57.436  40.877  44.010  1.00  0.00    -0.247 OA
HETATM   10  N5  UNL     1      56.683  38.876  44.516  1.00  0.00    -0.272 N 
ATOM     11  H5  UNL     1      56.948  38.617  43.566  1.00  0.00     0.174 HD
HETATM   12  C4  UNL     1      55.934  37.958  45.189  1.00  0.00     0.293 C 
HETATM   13  O2  UNL     1      55.748  36.884  44.608  1.00  0.00    -0.264 OA
ENDROOT
BRANCH   1  14
HETATM   14  N1  UNL     1      54.378  37.350  46.701  1.00  0.00    -0.381 N 
ATOM     15  H12 UNL     1      54.340  36.517  46.115  1.00  0.00     0.157 HD
ATOM     16  H11 UNL     1      53.732  37.623  47.442  1.00  0.00     0.157 HD
ENDBRANCH   1  14
TORSDOF 1
ENDMDL
