MODEL 1
REMARK VINA RESULT: -4.980222003      0.000      0.000
REMARK  4 active torsions:
REMARK  status: ('A' for Active; 'I' for Inactive)
REMARK    1  A    between atoms: N1_1  and  C1_4 
REMARK    2  A    between atoms: C2_7  and  N3_8 
REMARK    3  A    between atoms: N3_8  and  C3_10 
REMARK    4  A    between atoms: N5_14  and  N6_15 
ROOT
HETATM    1  C1  UNL     1      56.453  39.756  47.259  1.00  0.00     0.727 A 
HETATM    2  N2  UNL     1      55.675  38.657  47.443  1.00  0.00    -0.018 N 
ATOM      3  H2  UNL     1      55.329  38.334  48.346  1.00  0.00     0.203 HD
HETATM    4  C2  UNL     1      55.426  38.055  46.266  1.00  0.00     0.715 A 
HETATM    5  N4  UNL     1      56.077  38.817  45.339  1.00  0.00    -0.095 N 
ATOM      6  H4  UNL     1      56.095  38.639  44.335  1.00  0.00     0.208 HD
HETATM    7  N5  UNL     1      56.679  39.819  45.944  1.00  0.00    -0.012 N 
ENDROOT
BRANCH   4   8
HETATM    8  N3  UNL     1      54.727  36.990  46.052  1.00  0.00    -0.165 N 
ATOM      9  H3  UNL     1      53.954  36.741  46.669  1.00  0.00     0.186 HD
BRANCH   8  10
HETATM   10  C3  UNL     1      55.057  36.181  44.949  1.00  0.00     0.368 C 
HETATM   11  O1  UNL     1      55.793  35.199  45.129  1.00  0.00    -0.283 OA
ENDBRANCH   8  10
ENDBRANCH   4   8
BRANCH   1  12
HETATM   12  N1  UNL     1      56.885  40.571  48.170  1.00  0.00    -0.231 N 
ATOM     13  H12 UNL     1      57.019  41.579  48.083  1.00  0.00     0.174 HD
ATOM     14  H11 UNL     1      57.161  40.339  49.123  1.00  0.00     0.174 HD
ENDBRANCH   1  12
BRANCH   7  15
HETATM   15  N6  UNL     1      57.436  40.795  45.309  1.00  0.00    -0.309 N 
ATOM     16  H62 UNL     1      58.439  40.932  45.435  1.00  0.00     0.179 HD
ATOM     17  H61 UNL     1      57.073  41.482  44.649  1.00  0.00     0.179 HD
ENDBRANCH   7  15
TORSDOF 4
ENDMDL
MODEL 2
REMARK VINA RESULT: -4.960499745      0.601      1.728
REMARK  4 active torsions:
REMARK  status: ('A' for Active; 'I' for Inactive)
REMARK    1  A    between atoms: N1_1  and  C1_4 
REMARK    2  A    between atoms: C2_7  and  N3_8 
REMARK    3  A    between atoms: N3_8  and  C3_10 
REMARK    4  A    between atoms: N5_14  and  N6_15 
ROOT
HETATM    1  C1  UNL     1      56.686  39.778  45.949  1.00  0.00     0.727 A 
HETATM    2  N2  UNL     1      56.121  38.679  45.385  1.00  0.00    -0.018 N 
ATOM      3  H2  UNL     1      56.224  38.409  44.407  1.00  0.00     0.203 HD
HETATM    4  C2  UNL     1      55.408  37.996  46.299  1.00  0.00     0.715 A 
HETATM    5  N4  UNL     1      55.547  38.709  47.455  1.00  0.00    -0.095 N 
ATOM      6  H4  UNL     1      55.128  38.466  48.353  1.00  0.00     0.208 HD
HETATM    7  N5  UNL     1      56.306  39.761  47.230  1.00  0.00    -0.012 N 
ENDROOT
BRANCH   4   8
HETATM    8  N3  UNL     1      54.737  36.905  46.128  1.00  0.00    -0.165 N 
ATOM      9  H3  UNL     1      54.058  36.597  46.822  1.00  0.00     0.186 HD
BRANCH   8  10
HETATM   10  C3  UNL     1      54.967  36.153  44.961  1.00  0.00     0.368 C 
HETATM   11  O1  UNL     1      55.819  35.252  44.991  1.00  0.00    -0.283 OA
ENDBRANCH   8  10
ENDBRANCH   4   8
BRANCH   1  12
HETATM   12  N1  UNL     1      57.436  40.661  45.365  1.00  0.00    -0.231 N 
ATOM     13  H12 UNL     1      57.139  41.540  44.942  1.00  0.00     0.174 HD
ATOM     14  H11 UNL     1      58.446  40.620  45.232  1.00  0.00     0.174 HD
ENDBRANCH   1  12
BRANCH   7  15
HETATM   15  N6  UNL     1      56.658  40.709  48.181  1.00  0.00    -0.309 N 
ATOM     16  H62 UNL     1      56.264  40.770  49.120  1.00  0.00     0.179 HD
ATOM     17  H61 UNL     1      57.348  41.447  48.047  1.00  0.00     0.179 HD
ENDBRANCH   7  15
TORSDOF 4
ENDMDL
MODEL 3
REMARK VINA RESULT: -4.763430561      1.283      2.017
REMARK  4 active torsions:
REMARK  status: ('A' for Active; 'I' for Inactive)
REMARK    1  A    between atoms: N1_1  and  C1_4 
REMARK    2  A    between atoms: C2_7  and  N3_8 
REMARK    3  A    between atoms: N3_8  and  C3_10 
REMARK    4  A    between atoms: N5_14  and  N6_15 
ROOT
HETATM    1  C1  UNL     1      56.693  39.811  47.552  1.00  0.00     0.727 A 
HETATM    2  N2  UNL     1      57.052  39.052  46.484  1.00  0.00    -0.018 N 
ATOM      3  H2  UNL     1      57.975  39.057  46.050  1.00  0.00     0.203 HD
HETATM    4  C2  UNL     1      56.018  38.293  46.078  1.00  0.00     0.715 A 
HETATM    5  N4  UNL     1      54.999  38.605  46.932  1.00  0.00    -0.095 N 
ATOM      6  H4  UNL     1      54.062  38.205  46.903  1.00  0.00     0.208 HD
HETATM    7  N5  UNL     1      55.416  39.505  47.797  1.00  0.00    -0.012 N 
ENDROOT
BRANCH   4   8
HETATM    8  N3  UNL     1      55.988  37.452  45.098  1.00  0.00    -0.165 N 
ATOM      9  H3  UNL     1      56.479  37.650  44.226  1.00  0.00     0.186 HD
BRANCH   8  10
HETATM   10  C3  UNL     1      55.264  36.258  45.261  1.00  0.00     0.368 C 
HETATM   11  O1  UNL     1      54.063  36.326  45.567  1.00  0.00    -0.283 OA
ENDBRANCH   8  10
ENDBRANCH   4   8
BRANCH   1  12
HETATM   12  N1  UNL     1      57.436  40.655  48.198  1.00  0.00    -0.231 N 
ATOM     13  H12 UNL     1      57.661  41.612  47.926  1.00  0.00     0.174 HD
ATOM     14  H11 UNL     1      57.917  40.501  49.083  1.00  0.00     0.174 HD
ENDBRANCH   1  12
BRANCH   7  15
HETATM   15  N6  UNL     1      54.644  40.053  48.812  1.00  0.00    -0.309 N 
ATOM     16  H62 UNL     1      53.988  40.827  48.696  1.00  0.00     0.179 HD
ATOM     17  H61 UNL     1      54.646  39.745  49.784  1.00  0.00     0.179 HD
ENDBRANCH   7  15
TORSDOF 4
ENDMDL
MODEL 4
REMARK VINA RESULT: -4.564941862      1.336      1.713
REMARK  4 active torsions:
REMARK  status: ('A' for Active; 'I' for Inactive)
REMARK    1  A    between atoms: N1_1  and  C1_4 
REMARK    2  A    between atoms: C2_7  and  N3_8 
REMARK    3  A    between atoms: N3_8  and  C3_10 
REMARK    4  A    between atoms: N5_14  and  N6_15 
ROOT
HETATM    1  C1  UNL     1      55.345  39.586  47.823  1.00  0.00     0.727 A 
HETATM    2  N2  UNL     1      54.946  38.657  46.914  1.00  0.00    -0.018 N 
ATOM      3  H2  UNL     1      54.009  38.258  46.864  1.00  0.00     0.203 HD
HETATM    4  C2  UNL     1      55.961  38.341  46.090  1.00  0.00     0.715 A 
HETATM    5  N4  UNL     1      57.009  39.104  46.517  1.00  0.00    -0.095 N 
ATOM      6  H4  UNL     1      57.943  39.108  46.106  1.00  0.00     0.208 HD
HETATM    7  N5  UNL     1      56.627  39.834  47.544  1.00  0.00    -0.012 N 
ENDROOT
BRANCH   4   8
HETATM    8  N3  UNL     1      55.953  37.500  45.109  1.00  0.00    -0.165 N 
ATOM      9  H3  UNL     1      56.460  37.699  44.248  1.00  0.00     0.186 HD
BRANCH   8  10
HETATM   10  C3  UNL     1      55.227  36.304  45.257  1.00  0.00     0.368 C 
HETATM   11  O1  UNL     1      54.030  36.368  45.575  1.00  0.00    -0.283 OA
ENDBRANCH   8  10
ENDBRANCH   4   8
BRANCH   1  12
HETATM   12  N1  UNL     1      54.629  40.117  48.765  1.00  0.00    -0.231 N 
ATOM     13  H12 UNL     1      53.705  40.538  48.675  1.00  0.00     0.174 HD
ATOM     14  H11 UNL     1      54.875  40.202  49.751  1.00  0.00     0.174 HD
ENDBRANCH   1  12
BRANCH   7  15
HETATM   15  N6  UNL     1      57.436  40.728  48.231  1.00  0.00    -0.309 N 
ATOM     16  H62 UNL     1      58.034  40.488  49.022  1.00  0.00     0.179 HD
ATOM     17  H61 UNL     1      57.522  41.723  48.023  1.00  0.00     0.179 HD
ENDBRANCH   7  15
TORSDOF 4
ENDMDL
MODEL 5
REMARK VINA RESULT: -4.394855752      2.862      4.250
REMARK  4 active torsions:
REMARK  status: ('A' for Active; 'I' for Inactive)
REMARK    1  A    between atoms: N1_1  and  C1_4 
REMARK    2  A    between atoms: C2_7  and  N3_8 
REMARK    3  A    between atoms: N3_8  and  C3_10 
REMARK    4  A    between atoms: N5_14  and  N6_15 
ROOT
HETATM    1  C1  UNL     1      55.367  37.989  46.461  1.00  0.00     0.727 A 
HETATM    2  N2  UNL     1      55.365  38.725  47.603  1.00  0.00    -0.018 N 
ATOM      3  H2  UNL     1      54.932  38.437  48.480  1.00  0.00     0.203 HD
HETATM    4  C2  UNL     1      56.014  39.888  47.413  1.00  0.00     0.715 A 
HETATM    5  N4  UNL     1      56.422  39.852  46.110  1.00  0.00    -0.095 N 
ATOM      6  H4  UNL     1      56.948  40.586  45.636  1.00  0.00     0.208 HD
HETATM    7  N5  UNL     1      56.030  38.721  45.562  1.00  0.00    -0.012 N 
ENDROOT
BRANCH   4   8
HETATM    8  N3  UNL     1      56.212  40.835  48.270  1.00  0.00    -0.165 N 
ATOM      9  H3  UNL     1      57.137  41.246  48.388  1.00  0.00     0.186 HD
BRANCH   8  10
HETATM   10  C3  UNL     1      55.121  41.286  49.035  1.00  0.00     0.368 C 
HETATM   11  O1  UNL     1      55.209  42.380  49.612  1.00  0.00    -0.283 OA
ENDBRANCH   8  10
ENDBRANCH   4   8
BRANCH   1  12
HETATM   12  N1  UNL     1      54.835  36.819  46.282  1.00  0.00    -0.231 N 
ATOM     13  H12 UNL     1      55.177  35.926  46.635  1.00  0.00     0.174 HD
ATOM     14  H11 UNL     1      53.988  36.602  45.759  1.00  0.00     0.174 HD
ENDBRANCH   1  12
BRANCH   7  15
HETATM   15  N6  UNL     1      56.271  38.347  44.247  1.00  0.00    -0.309 N 
ATOM     16  H62 UNL     1      55.570  37.976  43.606  1.00  0.00     0.179 HD
ATOM     17  H61 UNL     1      57.175  38.401  43.778  1.00  0.00     0.179 HD
ENDBRANCH   7  15
TORSDOF 4
ENDMDL
