MODEL 1
REMARK VINA RESULT: -3.659474382      0.000      0.000
REMARK  0 active torsions:
REMARK  status: ('A' for Active; 'I' for Inactive)
ROOT
HETATM    1  N1  UNL     1      57.436  40.825  45.173  1.00  0.00    -0.232 N 
ATOM      2  H11 UNL     1      57.649  40.498  44.230  1.00  0.00     0.174 HD
ATOM      3  H12 UNL     1      57.834  41.730  45.428  1.00  0.00     0.174 HD
HETATM    4  C1  UNL     1      56.714  40.155  46.004  1.00  0.00     0.713 A 
HETATM    5  N2  UNL     1      56.418  40.609  47.313  1.00  0.00    -0.184 N 
ATOM      6  H2  UNL     1      56.790  41.509  47.618  1.00  0.00     0.185 HD
HETATM    7  C2  UNL     1      55.610  39.846  48.226  1.00  0.00     0.217 A 
HETATM    8  N3  UNL     1      55.140  38.710  47.833  1.00  0.00    -0.268 N 
ATOM      9  H3  UNL     1      54.567  38.173  48.485  1.00  0.00     0.190 HD
HETATM   10  N4  UNL     1      55.376  38.174  46.562  1.00  0.00    -0.105 N 
HETATM   11  C3  UNL     1      54.990  36.984  45.900  1.00  0.00     0.375 A 
HETATM   12  O1  UNL     1      54.277  36.071  46.386  1.00  0.00    -0.242 OA
HETATM   13  N5  UNL     1      55.548  37.007  44.600  1.00  0.00    -0.230 N 
ATOM     14  H5  UNL     1      55.440  36.281  43.892  1.00  0.00     0.189 HD
HETATM   15  N6  UNL     1      56.261  38.177  44.453  1.00  0.00     0.023 NA
HETATM   16  N7  UNL     1      56.148  38.867  45.641  1.00  0.00     0.021 N 
ENDROOT
TORSDOF 0
ENDMDL
MODEL 2
REMARK VINA RESULT: -3.500773216      1.213      2.499
REMARK  0 active torsions:
REMARK  status: ('A' for Active; 'I' for Inactive)
ROOT
HETATM    1  N1  UNL     1      56.522  40.498  48.109  1.00  0.00    -0.232 N 
ATOM      2  H11 UNL     1      55.995  40.032  48.847  1.00  0.00     0.174 HD
ATOM      3  H12 UNL     1      56.981  41.369  48.377  1.00  0.00     0.174 HD
HETATM    4  C1  UNL     1      56.613  40.036  46.910  1.00  0.00     0.713 A 
HETATM    5  N2  UNL     1      57.346  40.684  45.885  1.00  0.00    -0.184 N 
ATOM      6  H2  UNL     1      57.826  41.558  46.099  1.00  0.00     0.185 HD
HETATM    7  C2  UNL     1      57.436  40.151  44.552  1.00  0.00     0.217 A 
HETATM    8  N3  UNL     1      56.828  39.044  44.286  1.00  0.00    -0.268 N 
ATOM      9  H3  UNL     1      56.897  38.670  43.340  1.00  0.00     0.190 HD
HETATM   10  N4  UNL     1      56.080  38.329  45.228  1.00  0.00    -0.105 N 
HETATM   11  C3  UNL     1      55.336  37.125  45.197  1.00  0.00     0.375 A 
HETATM   12  O1  UNL     1      55.187  36.379  44.198  1.00  0.00    -0.242 OA
HETATM   13  N5  UNL     1      54.794  36.914  46.487  1.00  0.00    -0.230 N 
ATOM     14  H5  UNL     1      54.211  36.124  46.766  1.00  0.00     0.189 HD
HETATM   15  N6  UNL     1      55.186  37.954  47.301  1.00  0.00     0.023 NA
HETATM   16  N7  UNL     1      55.959  38.796  46.529  1.00  0.00     0.021 N 
ENDROOT
TORSDOF 0
ENDMDL
MODEL 3
REMARK VINA RESULT: -3.175900420      6.196      7.973
REMARK  0 active torsions:
REMARK  status: ('A' for Active; 'I' for Inactive)
ROOT
HETATM    1  N1  UNL     1      50.686  32.812  43.094  1.00  0.00    -0.232 N 
ATOM      2  H11 UNL     1      51.553  33.249  42.780  1.00  0.00     0.174 HD
ATOM      3  H12 UNL     1      50.350  32.036  42.524  1.00  0.00     0.174 HD
HETATM    4  C1  UNL     1      50.043  33.199  44.141  1.00  0.00     0.713 A 
HETATM    5  N2  UNL     1      48.840  32.592  44.579  1.00  0.00    -0.184 N 
ATOM      6  H2  UNL     1      48.460  31.810  44.045  1.00  0.00     0.185 HD
HETATM    7  C2  UNL     1      48.136  33.039  45.751  1.00  0.00     0.217 A 
HETATM    8  N3  UNL     1      48.622  34.027  46.424  1.00  0.00    -0.268 N 
ATOM      9  H3  UNL     1      48.120  34.339  47.255  1.00  0.00     0.190 HD
HETATM   10  N4  UNL     1      49.802  34.693  46.075  1.00  0.00    -0.105 N 
HETATM   11  C3  UNL     1      50.532  35.774  46.625  1.00  0.00     0.375 A 
HETATM   12  O1  UNL     1      50.221  36.421  47.657  1.00  0.00    -0.242 OA
HETATM   13  N5  UNL     1      51.667  35.995  45.811  1.00  0.00    -0.230 N 
ATOM     14  H5  UNL     1      52.378  36.711  45.960  1.00  0.00     0.189 HD
HETATM   15  N6  UNL     1      51.649  35.080  44.781  1.00  0.00     0.023 NA
HETATM   16  N7  UNL     1      50.522  34.304  44.954  1.00  0.00     0.021 N 
ENDROOT
TORSDOF 0
ENDMDL
MODEL 4
REMARK VINA RESULT: -2.310562813      5.969      7.117
REMARK  0 active torsions:
REMARK  status: ('A' for Active; 'I' for Inactive)
ROOT
HETATM    1  N1  UNL     1      52.773  35.700  45.024  1.00  0.00    -0.232 N 
ATOM      2  H11 UNL     1      53.136  35.237  44.191  1.00  0.00     0.174 HD
ATOM      3  H12 UNL     1      53.362  36.436  45.413  1.00  0.00     0.174 HD
HETATM    4  C1  UNL     1      51.646  35.390  45.567  1.00  0.00     0.713 A 
HETATM    5  N2  UNL     1      51.141  36.033  46.725  1.00  0.00    -0.184 N 
ATOM      6  H2  UNL     1      51.691  36.778  47.154  1.00  0.00     0.185 HD
HETATM    7  C2  UNL     1      49.881  35.672  47.315  1.00  0.00     0.217 A 
HETATM    8  N3  UNL     1      49.189  34.730  46.768  1.00  0.00    -0.268 N 
ATOM      9  H3  UNL     1      48.295  34.479  47.191  1.00  0.00     0.190 HD
HETATM   10  N4  UNL     1      49.600  34.035  45.625  1.00  0.00    -0.105 N 
HETATM   11  C3  UNL     1      49.046  32.990  44.847  1.00  0.00     0.375 A 
HETATM   12  O1  UNL     1      47.948  32.418  45.060  1.00  0.00    -0.242 OA
HETATM   13  N5  UNL     1      49.945  32.707  43.793  1.00  0.00    -0.230 N 
ATOM     14  H5  UNL     1      49.813  31.999  43.070  1.00  0.00     0.189 HD
HETATM   15  N6  UNL     1      51.030  33.549  43.907  1.00  0.00     0.023 NA
HETATM   16  N7  UNL     1      50.807  34.341  45.013  1.00  0.00     0.021 N 
ENDROOT
TORSDOF 0
ENDMDL
MODEL 5
REMARK VINA RESULT: -2.193315116      2.035      3.726
REMARK  0 active torsions:
REMARK  status: ('A' for Active; 'I' for Inactive)
ROOT
HETATM    1  N1  UNL     1      55.573  36.894  44.740  1.00  0.00    -0.232 N 
ATOM      2  H11 UNL     1      54.977  36.367  45.379  1.00  0.00     0.174 HD
ATOM      3  H12 UNL     1      55.761  36.447  43.842  1.00  0.00     0.174 HD
HETATM    4  C1  UNL     1      56.067  38.048  45.029  1.00  0.00     0.713 A 
HETATM    5  N2  UNL     1      56.894  38.780  44.141  1.00  0.00    -0.184 N 
ATOM      6  H2  UNL     1      57.113  38.380  43.229  1.00  0.00     0.185 HD
HETATM    7  C2  UNL     1      57.436  40.068  44.483  1.00  0.00     0.217 A 
HETATM    8  N3  UNL     1      57.154  40.570  45.638  1.00  0.00    -0.268 N 
ATOM      9  H3  UNL     1      57.540  41.485  45.874  1.00  0.00     0.190 HD
HETATM   10  N4  UNL     1      56.347  39.927  46.583  1.00  0.00    -0.105 N 
HETATM   11  C3  UNL     1      55.896  40.250  47.886  1.00  0.00     0.375 A 
HETATM   12  O1  UNL     1      56.168  41.301  48.519  1.00  0.00    -0.242 OA
HETATM   13  N5  UNL     1      55.090  39.182  48.345  1.00  0.00    -0.230 N 
ATOM     14  H5  UNL     1      54.626  39.133  49.253  1.00  0.00     0.189 HD
HETATM   15  N6  UNL     1      55.037  38.220  47.360  1.00  0.00     0.023 NA
HETATM   16  N7  UNL     1      55.798  38.683  46.308  1.00  0.00     0.021 N 
ENDROOT
TORSDOF 0
ENDMDL
