MODEL 1
REMARK VINA RESULT: -4.464019042      0.000      0.000
REMARK  1 active torsions:
REMARK  status: ('A' for Active; 'I' for Inactive)
REMARK    1  A    between atoms: C3_7  and  N4_8 
ROOT
HETATM    1  C1  UNL     1      49.788  32.738  43.289  1.00  0.00     0.183 C 
HETATM    2  N1  UNL     1      49.896  33.587  44.465  1.00  0.00    -0.246 N 
HETATM    3  N2  UNL     1      50.849  34.497  44.576  1.00  0.00    -0.279 N 
ATOM      4  H2  UNL     1      51.520  34.600  43.814  1.00  0.00     0.188 HD
HETATM    5  C2  UNL     1      50.970  35.301  45.662  1.00  0.00     0.175 A 
HETATM    6  N3  UNL     1      51.999  36.273  45.763  1.00  0.00    -0.077 NA
HETATM    7  C3  UNL     1      50.081  35.192  46.713  1.00  0.00     0.146 A 
HETATM    8  N5  UNL     1      49.119  34.264  46.587  1.00  0.00    -0.291 N 
ATOM      9  H5  UNL     1      48.438  34.146  47.337  1.00  0.00     0.172 HD
HETATM   10  C4  UNL     1      49.032  33.485  45.493  1.00  0.00     0.342 A 
HETATM   11  O1  UNL     1      48.108  32.618  45.410  1.00  0.00    -0.245 OA
ENDROOT
BRANCH   7  12
HETATM   12  N4  UNL     1      50.186  35.953  47.755  1.00  0.00    -0.383 N 
ATOM     13  H42 UNL     1      49.412  36.522  48.102  1.00  0.00     0.157 HD
ATOM     14  H41 UNL     1      51.061  36.012  48.276  1.00  0.00     0.157 HD
ENDBRANCH   7  12
TORSDOF 1
ENDMDL
MODEL 2
REMARK VINA RESULT: -3.883595433      2.020      4.020
REMARK  1 active torsions:
REMARK  status: ('A' for Active; 'I' for Inactive)
REMARK    1  A    between atoms: C3_7  and  N4_8 
ROOT
HETATM    1  C1  UNL     1      50.032  36.249  47.753  1.00  0.00     0.183 C 
HETATM    2  N1  UNL     1      50.063  35.310  46.643  1.00  0.00    -0.246 N 
HETATM    3  N2  UNL     1      49.153  34.358  46.517  1.00  0.00    -0.279 N 
ATOM      4  H2  UNL     1      48.417  34.288  47.219  1.00  0.00     0.188 HD
HETATM    5  C2  UNL     1      49.159  33.471  45.490  1.00  0.00     0.175 A 
HETATM    6  N3  UNL     1      48.175  32.457  45.370  1.00  0.00    -0.077 NA
HETATM    7  C3  UNL     1      50.140  33.535  44.520  1.00  0.00     0.146 A 
HETATM    8  N5  UNL     1      51.057  34.507  44.660  1.00  0.00    -0.291 N 
ATOM      9  H5  UNL     1      51.801  34.594  43.968  1.00  0.00     0.172 HD
HETATM   10  C4  UNL     1      51.016  35.368  45.694  1.00  0.00     0.342 A 
HETATM   11  O1  UNL     1      51.901  36.273  45.792  1.00  0.00    -0.245 OA
ENDROOT
BRANCH   7  12
HETATM   12  N4  UNL     1      50.157  32.695  43.535  1.00  0.00    -0.383 N 
ATOM     13  H42 UNL     1      50.867  32.721  42.802  1.00  0.00     0.157 HD
ATOM     14  H41 UNL     1      49.450  31.965  43.455  1.00  0.00     0.157 HD
ENDBRANCH   7  12
TORSDOF 1
ENDMDL
MODEL 3
REMARK VINA RESULT: -3.345118158      1.829      3.341
REMARK  1 active torsions:
REMARK  status: ('A' for Active; 'I' for Inactive)
REMARK    1  A    between atoms: C3_7  and  N4_8 
ROOT
HETATM    1  C1  UNL     1      52.254  36.300  45.831  1.00  0.00     0.183 C 
HETATM    2  N1  UNL     1      51.202  35.310  45.669  1.00  0.00    -0.246 N 
HETATM    3  N2  UNL     1      51.189  34.475  44.643  1.00  0.00    -0.279 N 
ATOM      4  H2  UNL     1      51.940  34.535  43.954  1.00  0.00     0.188 HD
HETATM    5  C2  UNL     1      50.220  33.542  44.470  1.00  0.00     0.175 A 
HETATM    6  N3  UNL     1      50.223  32.655  43.363  1.00  0.00    -0.077 NA
HETATM    7  C3  UNL     1      49.189  33.431  45.381  1.00  0.00     0.146 A 
HETATM    8  N5  UNL     1      49.214  34.285  46.418  1.00  0.00    -0.291 N 
ATOM      9  H5  UNL     1      48.473  34.240  47.118  1.00  0.00     0.172 HD
HETATM   10  C4  UNL     1      50.193  35.197  46.555  1.00  0.00     0.342 A 
HETATM   11  O1  UNL     1      50.183  35.986  47.549  1.00  0.00    -0.245 OA
ENDROOT
BRANCH   7  12
HETATM   12  N4  UNL     1      48.257  32.545  45.228  1.00  0.00    -0.383 N 
ATOM     13  H42 UNL     1      47.587  32.317  45.963  1.00  0.00     0.157 HD
ATOM     14  H41 UNL     1      48.158  32.035  44.350  1.00  0.00     0.157 HD
ENDBRANCH   7  12
TORSDOF 1
ENDMDL
MODEL 4
REMARK VINA RESULT: -3.181614124      6.157      7.079
REMARK  1 active torsions:
REMARK  status: ('A' for Active; 'I' for Inactive)
REMARK    1  A    between atoms: C3_7  and  N4_8 
ROOT
HETATM    1  C1  UNL     1      55.564  36.382  44.086  1.00  0.00     0.183 C 
HETATM    2  N1  UNL     1      55.663  37.450  45.068  1.00  0.00    -0.246 N 
HETATM    3  N2  UNL     1      56.451  38.495  44.877  1.00  0.00    -0.279 N 
ATOM      4  H2  UNL     1      56.999  38.544  44.017  1.00  0.00     0.188 HD
HETATM    5  C2  UNL     1      56.560  39.504  45.777  1.00  0.00     0.175 A 
HETATM    6  N3  UNL     1      57.411  40.617  45.555  1.00  0.00    -0.077 NA
HETATM    7  C3  UNL     1      55.834  39.472  46.951  1.00  0.00     0.146 A 
HETATM    8  N5  UNL     1      55.038  38.405  47.132  1.00  0.00    -0.291 N 
ATOM      9  H5  UNL     1      54.482  38.337  47.984  1.00  0.00     0.172 HD
HETATM   10  C4  UNL     1      54.957  37.424  46.215  1.00  0.00     0.342 A 
HETATM   11  O1  UNL     1      54.193  36.432  46.422  1.00  0.00    -0.245 OA
ENDROOT
BRANCH   7  12
HETATM   12  N4  UNL     1      55.929  40.428  47.819  1.00  0.00    -0.383 N 
ATOM     13  H42 UNL     1      56.070  41.403  47.551  1.00  0.00     0.157 HD
ATOM     14  H41 UNL     1      55.865  40.238  48.818  1.00  0.00     0.157 HD
ENDBRANCH   7  12
TORSDOF 1
ENDMDL
MODEL 5
REMARK VINA RESULT: -3.050640975      6.424      8.210
REMARK  1 active torsions:
REMARK  status: ('A' for Active; 'I' for Inactive)
REMARK    1  A    between atoms: C3_7  and  N4_8 
ROOT
HETATM    1  C1  UNL     1      56.136  40.493  47.986  1.00  0.00     0.183 C 
HETATM    2  N1  UNL     1      55.990  39.480  46.954  1.00  0.00    -0.246 N 
HETATM    3  N2  UNL     1      55.189  38.439  47.114  1.00  0.00    -0.279 N 
ATOM      4  H2  UNL     1      54.666  38.354  47.986  1.00  0.00     0.188 HD
HETATM    5  C2  UNL     1      55.035  37.481  46.166  1.00  0.00     0.175 A 
HETATM    6  N3  UNL     1      54.171  36.372  46.355  1.00  0.00    -0.077 NA
HETATM    7  C3  UNL     1      55.726  37.564  44.973  1.00  0.00     0.146 A 
HETATM    8  N5  UNL     1      56.536  38.625  44.824  1.00  0.00    -0.291 N 
ATOM      9  H5  UNL     1      57.067  38.729  43.959  1.00  0.00     0.172 HD
HETATM   10  C4  UNL     1      56.661  39.555  45.789  1.00  0.00     0.342 A 
HETATM   11  O1  UNL     1      57.436  40.544  45.610  1.00  0.00    -0.245 OA
ENDROOT
BRANCH   7  12
HETATM   12  N4  UNL     1      55.588  36.656  44.060  1.00  0.00    -0.383 N 
ATOM     13  H42 UNL     1      54.758  36.590  43.470  1.00  0.00     0.157 HD
ATOM     14  H41 UNL     1      56.318  35.963  43.895  1.00  0.00     0.157 HD
ENDBRANCH   7  12
TORSDOF 1
ENDMDL
