MODEL 1
REMARK VINA RESULT: -5.356919971      0.000      0.000
REMARK  2 active torsions:
REMARK  status: ('A' for Active; 'I' for Inactive)
REMARK    1  A    between atoms: O1_1  and  N1_3 
REMARK    2  A    between atoms: N3_5  and  O2_6 
ROOT
HETATM    1  N1  UNL     1      53.637  24.983  40.894  1.00  0.00    -0.015 N 
HETATM    2  N2  UNL     1      53.737  23.723  40.508  1.00  0.00     0.076 NA
HETATM    3  N3  UNL     1      54.948  23.495  40.030  1.00  0.00    -0.051 N 
HETATM    4  N4  UNL     1      55.599  24.642  40.129  1.00  0.00     0.095 NA
HETATM    5  O3  UNL     1      54.787  25.520  40.651  1.00  0.00    -0.096 OA
ENDROOT
BRANCH   1   6
HETATM    6  O1  UNL     1      52.550  25.635  41.448  1.00  0.00    -0.248 OA
ATOM      7  H1  UNL     1      52.254  25.636  42.351  1.00  0.00     0.248 HD
ENDBRANCH   1   6
BRANCH   3   8
HETATM    8  O2  UNL     1      55.452  22.299  39.524  1.00  0.00    -0.256 OA
ATOM      9  H2  UNL     1      55.556  22.051  38.613  1.00  0.00     0.248 HD
ENDBRANCH   3   8
TORSDOF 2
ENDMDL
MODEL 2
REMARK VINA RESULT: -5.276777592      0.698      2.910
REMARK  2 active torsions:
REMARK  status: ('A' for Active; 'I' for Inactive)
REMARK    1  A    between atoms: O1_1  and  N1_3 
REMARK    2  A    between atoms: N3_5  and  O2_6 
ROOT
HETATM    1  N1  UNL     1      54.942  23.476  40.058  1.00  0.00    -0.015 N 
HETATM    2  N2  UNL     1      53.733  23.710  40.534  1.00  0.00     0.076 NA
HETATM    3  N3  UNL     1      53.638  24.971  40.918  1.00  0.00    -0.051 N 
HETATM    4  N4  UNL     1      54.817  25.516  40.668  1.00  0.00     0.095 NA
HETATM    5  O3  UNL     1      55.583  24.594  40.151  1.00  0.00    -0.096 OA
ENDROOT
BRANCH   1   6
HETATM    6  O1  UNL     1      55.460  22.296  39.554  1.00  0.00    -0.248 OA
ATOM      7  H1  UNL     1      56.034  21.669  39.979  1.00  0.00     0.248 HD
ENDBRANCH   1   6
BRANCH   3   8
HETATM    8  O2  UNL     1      52.533  25.613  41.471  1.00  0.00    -0.256 OA
ATOM      9  H2  UNL     1      52.182  26.466  41.245  1.00  0.00     0.248 HD
ENDBRANCH   3   8
TORSDOF 2
ENDMDL
MODEL 3
REMARK VINA RESULT: -4.726139529      1.162      3.190
REMARK  2 active torsions:
REMARK  status: ('A' for Active; 'I' for Inactive)
REMARK    1  A    between atoms: O1_1  and  N1_3 
REMARK    2  A    between atoms: N3_5  and  O2_6 
ROOT
HETATM    1  N1  UNL     1      55.426  24.091  40.531  1.00  0.00    -0.015 N 
HETATM    2  N2  UNL     1      54.791  25.169  40.953  1.00  0.00     0.076 NA
HETATM    3  N3  UNL     1      53.491  24.937  40.993  1.00  0.00    -0.051 N 
HETATM    4  N4  UNL     1      53.332  23.689  40.585  1.00  0.00     0.095 NA
HETATM    5  O3  UNL     1      54.513  23.203  40.313  1.00  0.00    -0.096 OA
ENDROOT
BRANCH   1   6
HETATM    6  O1  UNL     1      56.784  23.903  40.344  1.00  0.00    -0.248 OA
ATOM      7  H1  UNL     1      57.267  23.089  40.268  1.00  0.00     0.248 HD
ENDBRANCH   1   6
BRANCH   3   8
HETATM    8  O2  UNL     1      52.481  25.814  41.382  1.00  0.00    -0.256 OA
ATOM      9  H2  UNL     1      52.102  26.526  40.878  1.00  0.00     0.248 HD
ENDBRANCH   3   8
TORSDOF 2
ENDMDL
MODEL 4
REMARK VINA RESULT: -4.621323841      1.371      1.629
REMARK  2 active torsions:
REMARK  status: ('A' for Active; 'I' for Inactive)
REMARK    1  A    between atoms: O1_1  and  N1_3 
REMARK    2  A    between atoms: N3_5  and  O2_6 
ROOT
HETATM    1  N1  UNL     1      53.586  24.936  40.924  1.00  0.00    -0.015 N 
HETATM    2  N2  UNL     1      54.882  25.179  41.002  1.00  0.00     0.076 NA
HETATM    3  N3  UNL     1      55.561  24.134  40.562  1.00  0.00    -0.051 N 
HETATM    4  N4  UNL     1      54.656  23.237  40.207  1.00  0.00     0.095 NA
HETATM    5  O3  UNL     1      53.476  23.745  40.437  1.00  0.00    -0.096 OA
ENDROOT
BRANCH   1   6
HETATM    6  O1  UNL     1      52.529  25.756  41.279  1.00  0.00    -0.248 OA
ATOM      7  H1  UNL     1      51.632  25.739  40.965  1.00  0.00     0.248 HD
ENDBRANCH   1   6
BRANCH   3   8
HETATM    8  O2  UNL     1      56.944  23.991  40.479  1.00  0.00    -0.256 OA
ATOM      9  H2  UNL     1      57.594  24.238  41.126  1.00  0.00     0.248 HD
ENDBRANCH   3   8
TORSDOF 2
ENDMDL
MODEL 5
REMARK VINA RESULT: -4.422566702      1.470      2.376
REMARK  2 active torsions:
REMARK  status: ('A' for Active; 'I' for Inactive)
REMARK    1  A    between atoms: O1_1  and  N1_3 
REMARK    2  A    between atoms: N3_5  and  O2_6 
ROOT
HETATM    1  N1  UNL     1      53.218  23.682  40.351  1.00  0.00    -0.015 N 
HETATM    2  N2  UNL     1      53.540  24.672  41.164  1.00  0.00     0.076 NA
HETATM    3  N3  UNL     1      54.803  25.013  40.977  1.00  0.00    -0.051 N 
HETATM    4  N4  UNL     1      55.258  24.213  40.028  1.00  0.00     0.095 NA
HETATM    5  O3  UNL     1      54.284  23.421  39.670  1.00  0.00    -0.096 OA
ENDROOT
BRANCH   1   6
HETATM    6  O1  UNL     1      52.005  23.029  40.221  1.00  0.00    -0.248 OA
ATOM      7  H1  UNL     1      51.823  22.191  39.812  1.00  0.00     0.248 HD
ENDBRANCH   1   6
BRANCH   3   8
HETATM    8  O2  UNL     1      55.522  26.009  41.634  1.00  0.00    -0.256 OA
ATOM      9  H2  UNL     1      55.848  25.999  42.526  1.00  0.00     0.248 HD
ENDBRANCH   3   8
TORSDOF 2
ENDMDL
