MODEL 1
REMARK VINA RESULT: -5.319784044      0.000      0.000
REMARK  2 active torsions:
REMARK  status: ('A' for Active; 'I' for Inactive)
REMARK    1  A    between atoms: O1_1  and  N1_3 
REMARK    2  A    between atoms: N4_6  and  O2_7 
ROOT
HETATM    1  N1  UNL     1      53.564  25.037  40.970  1.00  0.00    -0.062 N 
HETATM    2  N2  UNL     1      54.738  25.620  40.746  1.00  0.00     0.039 NA
HETATM    3  N3  UNL     1      55.570  24.707  40.233  1.00  0.00     0.039 NA
HETATM    4  N4  UNL     1      54.910  23.562  40.141  1.00  0.00    -0.062 N 
HETATM    5  N5  UNL     1      53.683  23.767  40.593  1.00  0.00     0.065 NA
ENDROOT
BRANCH   1   6
HETATM    6  O1  UNL     1      52.598  25.643  41.445  1.00  0.00    -0.257 OA
ATOM      7  H1  UNL     1      52.686  26.280  42.145  1.00  0.00     0.248 HD
ENDBRANCH   1   6
BRANCH   4   8
HETATM    8  O2  UNL     1      55.331  22.340  39.678  1.00  0.00    -0.257 OA
ATOM      9  H2  UNL     1      56.186  22.069  39.366  1.00  0.00     0.248 HD
ENDBRANCH   4   8
TORSDOF 2
ENDMDL
MODEL 2
REMARK VINA RESULT: -5.248573921      0.102      2.828
REMARK  2 active torsions:
REMARK  status: ('A' for Active; 'I' for Inactive)
REMARK    1  A    between atoms: O1_1  and  N1_3 
REMARK    2  A    between atoms: N4_6  and  O2_7 
ROOT
HETATM    1  N1  UNL     1      54.857  23.459  40.152  1.00  0.00    -0.062 N 
HETATM    2  N2  UNL     1      55.586  24.571  40.181  1.00  0.00     0.039 NA
HETATM    3  N3  UNL     1      54.831  25.555  40.682  1.00  0.00     0.039 NA
HETATM    4  N4  UNL     1      53.638  25.051  40.961  1.00  0.00    -0.062 N 
HETATM    5  N5  UNL     1      53.657  23.768  40.636  1.00  0.00     0.065 NA
ENDROOT
BRANCH   1   6
HETATM    6  O1  UNL     1      55.300  22.383  39.735  1.00  0.00    -0.257 OA
ATOM      7  H1  UNL     1      54.795  21.804  39.176  1.00  0.00     0.248 HD
ENDBRANCH   1   6
BRANCH   4   8
HETATM    8  O2  UNL     1      52.528  25.661  41.489  1.00  0.00    -0.257 OA
ATOM      9  H2  UNL     1      51.801  26.088  41.050  1.00  0.00     0.248 HD
ENDBRANCH   4   8
TORSDOF 2
ENDMDL
MODEL 3
REMARK VINA RESULT: -4.889423265      0.924      3.118
REMARK  2 active torsions:
REMARK  status: ('A' for Active; 'I' for Inactive)
REMARK    1  A    between atoms: O1_1  and  N1_3 
REMARK    2  A    between atoms: N4_6  and  O2_7 
ROOT
HETATM    1  N1  UNL     1      55.410  24.165  40.490  1.00  0.00    -0.062 N 
HETATM    2  N2  UNL     1      54.528  23.195  40.267  1.00  0.00     0.039 NA
HETATM    3  N3  UNL     1      53.310  23.659  40.567  1.00  0.00     0.039 NA
HETATM    4  N4  UNL     1      53.440  24.913  40.974  1.00  0.00    -0.062 N 
HETATM    5  N5  UNL     1      54.727  25.220  40.926  1.00  0.00     0.065 NA
ENDROOT
BRANCH   1   6
HETATM    6  O1  UNL     1      56.623  24.020  40.299  1.00  0.00    -0.257 OA
ATOM      7  H1  UNL     1      57.228  24.751  40.268  1.00  0.00     0.248 HD
ENDBRANCH   1   6
BRANCH   4   8
HETATM    8  O2  UNL     1      52.485  25.807  41.388  1.00  0.00    -0.257 OA
ATOM      9  H2  UNL     1      52.045  25.883  42.226  1.00  0.00     0.248 HD
ENDBRANCH   4   8
TORSDOF 2
ENDMDL
MODEL 4
REMARK VINA RESULT: -4.870687636      0.975      1.638
REMARK  2 active torsions:
REMARK  status: ('A' for Active; 'I' for Inactive)
REMARK    1  A    between atoms: O1_1  and  N1_3 
REMARK    2  A    between atoms: N4_6  and  O2_7 
ROOT
HETATM    1  N1  UNL     1      53.449  24.999  40.983  1.00  0.00    -0.062 N 
HETATM    2  N2  UNL     1      53.250  23.745  40.589  1.00  0.00     0.039 NA
HETATM    3  N3  UNL     1      54.439  23.198  40.311  1.00  0.00     0.039 NA
HETATM    4  N4  UNL     1      55.370  24.114  40.534  1.00  0.00    -0.062 N 
HETATM    5  N5  UNL     1      54.761  25.215  40.945  1.00  0.00     0.065 NA
ENDROOT
BRANCH   1   6
HETATM    6  O1  UNL     1      52.523  25.752  41.307  1.00  0.00    -0.257 OA
ATOM      7  H1  UNL     1      52.170  26.410  40.721  1.00  0.00     0.248 HD
ENDBRANCH   1   6
BRANCH   4   8
HETATM    8  O2  UNL     1      56.733  24.033  40.394  1.00  0.00    -0.257 OA
ATOM      9  H2  UNL     1      57.300  23.271  40.387  1.00  0.00     0.248 HD
ENDBRANCH   4   8
TORSDOF 2
ENDMDL
MODEL 5
REMARK VINA RESULT: -4.457204793      1.418      2.506
REMARK  2 active torsions:
REMARK  status: ('A' for Active; 'I' for Inactive)
REMARK    1  A    between atoms: O1_1  and  N1_3 
REMARK    2  A    between atoms: N4_6  and  O2_7 
ROOT
HETATM    1  N1  UNL     1      55.504  24.287  40.564  1.00  0.00    -0.062 N 
HETATM    2  N2  UNL     1      54.887  25.408  40.926  1.00  0.00     0.039 NA
HETATM    3  N3  UNL     1      53.567  25.201  40.859  1.00  0.00     0.039 NA
HETATM    4  N4  UNL     1      53.370  23.955  40.457  1.00  0.00    -0.062 N 
HETATM    5  N5  UNL     1      54.557  23.397  40.277  1.00  0.00     0.065 NA
ENDROOT
BRANCH   1   6
HETATM    6  O1  UNL     1      56.735  24.184  40.531  1.00  0.00    -0.257 OA
ATOM      7  H1  UNL     1      57.303  24.906  40.288  1.00  0.00     0.248 HD
ENDBRANCH   1   6
BRANCH   4   8
HETATM    8  O2  UNL     1      52.197  23.276  40.238  1.00  0.00    -0.257 OA
ATOM      9  H2  UNL     1      51.911  22.433  40.569  1.00  0.00     0.248 HD
ENDBRANCH   4   8
TORSDOF 2
ENDMDL
