MODEL 1
REMARK VINA RESULT: -3.396672239      0.000      0.000
REMARK  4 active torsions:
REMARK  status: ('A' for Active; 'I' for Inactive)
REMARK    1  A    between atoms: N1_1  and  N2_4 
REMARK    2  A    between atoms: N2_4  and  C1_5 
REMARK    3  A    between atoms: C1_5  and  C2_6 
REMARK    4  A    between atoms: C2_6  and  C3_7 
ROOT
HETATM    1  C3  UNL     1       7.653  35.654  10.635  1.00  0.00     0.212 C 
HETATM    2  C4  UNL     1       8.769  35.629   9.616  1.00  0.00     0.265 C 
HETATM    3  N3  UNL     1       9.816  34.707  10.049  1.00  0.00    -0.072 N 
ATOM      4  H31 UNL     1      10.312  35.018  10.884  1.00  0.00     0.277 HD
ATOM      5  H32 UNL     1      10.623  34.687   9.426  1.00  0.00     0.277 HD
HETATM    6  C5  UNL     1       9.174  33.415  10.204  1.00  0.00     0.259 C 
HETATM    7  C6  UNL     1       8.337  33.506  11.463  1.00  0.00     0.260 C 
HETATM    8  N4  UNL     1       7.931  34.842  11.786  1.00  0.00    -0.068 N 
ATOM      9  H41 UNL     1       7.133  34.832  12.422  1.00  0.00     0.277 HD
ATOM     10  H42 UNL     1       8.621  35.293  12.386  1.00  0.00     0.277 HD
ENDROOT
BRANCH   1  11
HETATM   11  C2  UNL     1       7.226  37.032  11.016  1.00  0.00     0.052 C 
BRANCH  11  12
HETATM   12  C1  UNL     1       5.888  37.452  10.495  1.00  0.00     0.136 C 
BRANCH  12  13
HETATM   13  N2  UNL     1       6.098  38.595   9.642  1.00  0.00    -0.148 NA
BRANCH  13  14
HETATM   14  N1  UNL     1       5.349  38.576   8.475  1.00  0.00    -0.348 N 
ATOM     15  H12 UNL     1       4.734  37.798   8.239  1.00  0.00     0.172 HD
ATOM     16  H11 UNL     1       5.472  39.401   7.887  1.00  0.00     0.172 HD
ENDBRANCH  13  14
ENDBRANCH  12  13
ENDBRANCH  11  12
ENDBRANCH   1  11
TORSDOF 4
ENDMDL
MODEL 2
REMARK VINA RESULT: -2.570180153      1.902      2.892
REMARK  4 active torsions:
REMARK  status: ('A' for Active; 'I' for Inactive)
REMARK    1  A    between atoms: N1_1  and  N2_4 
REMARK    2  A    between atoms: N2_4  and  C1_5 
REMARK    3  A    between atoms: C1_5  and  C2_6 
REMARK    4  A    between atoms: C2_6  and  C3_7 
ROOT
HETATM    1  C3  UNL     1       9.120  33.858  10.365  1.00  0.00     0.212 C 
HETATM    2  C4  UNL     1       8.389  33.630  11.668  1.00  0.00     0.265 C 
HETATM    3  N3  UNL     1       7.230  32.768  11.443  1.00  0.00    -0.072 N 
ATOM      4  H31 UNL     1       6.503  33.205  10.877  1.00  0.00     0.277 HD
ATOM      5  H32 UNL     1       6.665  32.621  12.279  1.00  0.00     0.277 HD
HETATM    6  C5  UNL     1       7.749  31.540  10.872  1.00  0.00     0.259 C 
HETATM    7  C6  UNL     1       8.141  31.868   9.446  1.00  0.00     0.260 C 
HETATM    8  N4  UNL     1       8.463  33.249   9.243  1.00  0.00    -0.068 N 
ATOM      9  H41 UNL     1       9.015  33.370   8.394  1.00  0.00     0.277 HD
ATOM     10  H42 UNL     1       7.631  33.778   8.983  1.00  0.00     0.277 HD
ENDROOT
BRANCH   1  11
HETATM   11  C2  UNL     1       9.444  35.292  10.110  1.00  0.00     0.052 C 
BRANCH  11  12
HETATM   12  C1  UNL     1       8.624  36.279  10.880  1.00  0.00     0.136 C 
BRANCH  12  13
HETATM   13  N2  UNL     1       7.256  36.128  10.451  1.00  0.00    -0.148 NA
BRANCH  13  14
HETATM   14  N1  UNL     1       6.393  37.085  10.963  1.00  0.00    -0.348 N 
ATOM     15  H12 UNL     1       6.576  38.084  10.869  1.00  0.00     0.172 HD
ATOM     16  H11 UNL     1       5.573  36.699  11.432  1.00  0.00     0.172 HD
ENDBRANCH  13  14
ENDBRANCH  12  13
ENDBRANCH  11  12
ENDBRANCH   1  11
TORSDOF 4
ENDMDL
MODEL 3
REMARK VINA RESULT: -2.184830671      1.157      1.740
REMARK  4 active torsions:
REMARK  status: ('A' for Active; 'I' for Inactive)
REMARK    1  A    between atoms: N1_1  and  N2_4 
REMARK    2  A    between atoms: N2_4  and  C1_5 
REMARK    3  A    between atoms: C1_5  and  C2_6 
REMARK    4  A    between atoms: C2_6  and  C3_7 
ROOT
HETATM    1  C3  UNL     1       8.223  35.425  11.142  1.00  0.00     0.212 C 
HETATM    2  C4  UNL     1       7.612  34.314  11.963  1.00  0.00     0.265 C 
HETATM    3  N3  UNL     1       7.543  33.089  11.168  1.00  0.00    -0.072 N 
ATOM      4  H31 UNL     1       6.888  33.148  10.388  1.00  0.00     0.277 HD
ATOM      5  H32 UNL     1       7.089  32.315  11.653  1.00  0.00     0.277 HD
HETATM    6  C5  UNL     1       8.904  32.798  10.761  1.00  0.00     0.259 C 
HETATM    7  C6  UNL     1       9.253  33.812   9.692  1.00  0.00     0.260 C 
HETATM    8  N4  UNL     1       8.504  35.030   9.790  1.00  0.00    -0.068 N 
ATOM      9  H41 UNL     1       8.972  35.782   9.285  1.00  0.00     0.277 HD
ATOM     10  H42 UNL     1       7.644  34.969   9.247  1.00  0.00     0.277 HD
ENDROOT
BRANCH   1  11
HETATM   11  C2  UNL     1       7.451  36.701  11.199  1.00  0.00     0.052 C 
BRANCH  11  12
HETATM   12  C1  UNL     1       7.084  37.284   9.872  1.00  0.00     0.136 C 
BRANCH  12  13
HETATM   13  N2  UNL     1       5.842  37.997  10.044  1.00  0.00    -0.148 NA
BRANCH  13  14
HETATM   14  N1  UNL     1       5.421  38.684   8.915  1.00  0.00    -0.348 N 
ATOM     15  H12 UNL     1       5.533  38.301   7.976  1.00  0.00     0.172 HD
ATOM     16  H11 UNL     1       4.996  39.590   9.112  1.00  0.00     0.172 HD
ENDBRANCH  13  14
ENDBRANCH  12  13
ENDBRANCH  11  12
ENDBRANCH   1  11
TORSDOF 4
ENDMDL
MODEL 4
REMARK VINA RESULT: -2.055242070      1.195      1.454
REMARK  4 active torsions:
REMARK  status: ('A' for Active; 'I' for Inactive)
REMARK    1  A    between atoms: N1_1  and  N2_4 
REMARK    2  A    between atoms: N2_4  and  C1_5 
REMARK    3  A    between atoms: C1_5  and  C2_6 
REMARK    4  A    between atoms: C2_6  and  C3_7 
ROOT
HETATM    1  C3  UNL     1       7.858  35.254  10.698  1.00  0.00     0.212 C 
HETATM    2  C4  UNL     1       8.913  35.003   9.646  1.00  0.00     0.265 C 
HETATM    3  N3  UNL     1       9.772  33.895  10.059  1.00  0.00    -0.072 N 
ATOM      4  H31 UNL     1      10.346  34.109  10.874  1.00  0.00     0.277 HD
ATOM      5  H32 UNL     1      10.539  33.713   9.411  1.00  0.00     0.277 HD
HETATM    6  C5  UNL     1       8.894  32.757  10.252  1.00  0.00     0.259 C 
HETATM    7  C6  UNL     1       8.133  33.021  11.534  1.00  0.00     0.260 C 
HETATM    8  N4  UNL     1       8.009  34.412  11.852  1.00  0.00    -0.068 N 
ATOM      9  H41 UNL     1       7.246  34.565  12.511  1.00  0.00     0.277 HD
ATOM     10  H42 UNL     1       8.794  34.723  12.424  1.00  0.00     0.277 HD
ENDROOT
BRANCH   1  11
HETATM   11  C2  UNL     1       7.723  36.693  11.073  1.00  0.00     0.052 C 
BRANCH  11  12
HETATM   12  C1  UNL     1       6.863  37.511  10.163  1.00  0.00     0.136 C 
BRANCH  12  13
HETATM   13  N2  UNL     1       5.552  37.582  10.759  1.00  0.00    -0.148 NA
BRANCH  13  14
HETATM   14  N1  UNL     1       5.539  37.363  12.128  1.00  0.00    -0.348 N 
ATOM     15  H12 UNL     1       5.632  36.429  12.528  1.00  0.00     0.172 HD
ATOM     16  H11 UNL     1       5.430  38.211  12.686  1.00  0.00     0.172 HD
ENDBRANCH  13  14
ENDBRANCH  12  13
ENDBRANCH  11  12
ENDBRANCH   1  11
TORSDOF 4
ENDMDL
MODEL 5
REMARK VINA RESULT: -1.689591370      1.534      1.793
REMARK  4 active torsions:
REMARK  status: ('A' for Active; 'I' for Inactive)
REMARK    1  A    between atoms: N1_1  and  N2_4 
REMARK    2  A    between atoms: N2_4  and  C1_5 
REMARK    3  A    between atoms: C1_5  and  C2_6 
REMARK    4  A    between atoms: C2_6  and  C3_7 
ROOT
HETATM    1  C3  UNL     1       7.954  34.418  10.931  1.00  0.00     0.212 C 
HETATM    2  C4  UNL     1       8.203  34.028   9.493  1.00  0.00     0.265 C 
HETATM    3  N3  UNL     1       8.888  32.738   9.439  1.00  0.00    -0.072 N 
ATOM      4  H31 UNL     1       9.838  32.767   9.809  1.00  0.00     0.277 HD
ATOM      5  H32 UNL     1       9.131  32.446   8.493  1.00  0.00     0.277 HD
HETATM    6  C5  UNL     1       8.027  31.798  10.131  1.00  0.00     0.259 C 
HETATM    7  C6  UNL     1       8.144  32.122  11.606  1.00  0.00     0.260 C 
HETATM    8  N4  UNL     1       8.511  33.482  11.867  1.00  0.00    -0.068 N 
ATOM      9  H41 UNL     1       8.270  33.742  12.824  1.00  0.00     0.277 HD
ATOM     10  H42 UNL     1       9.524  33.579  11.914  1.00  0.00     0.277 HD
ENDROOT
BRANCH   1  11
HETATM   11  C2  UNL     1       8.353  35.822  11.244  1.00  0.00     0.052 C 
BRANCH  11  12
HETATM   12  C1  UNL     1       7.664  36.876  10.437  1.00  0.00     0.136 C 
BRANCH  12  13
HETATM   13  N2  UNL     1       6.384  37.120  11.054  1.00  0.00    -0.148 NA
BRANCH  13  14
HETATM   14  N1  UNL     1       5.449  37.700  10.210  1.00  0.00    -0.348 N 
ATOM     15  H12 UNL     1       5.720  38.195   9.360  1.00  0.00     0.172 HD
ATOM     16  H11 UNL     1       4.482  37.586  10.516  1.00  0.00     0.172 HD
ENDBRANCH  13  14
ENDBRANCH  12  13
ENDBRANCH  11  12
ENDBRANCH   1  11
TORSDOF 4
ENDMDL
