MODEL 1
REMARK VINA RESULT: -4.466701431      0.000      0.000
REMARK  5 active torsions:
REMARK  status: ('A' for Active; 'I' for Inactive)
REMARK    1  A    between atoms: N1_1  and  C1_4 
REMARK    2  A    between atoms: C3_12  and  N5_13 
REMARK    3  A    between atoms: N5_13  and  C4_15 
REMARK    4  A    between atoms: C4_15  and  C5_16 
REMARK    5  A    between atoms: C5_16  and  N6_17 
ROOT
HETATM    1  C1  UNL     1       9.179  34.966  10.056  1.00  0.00     0.145 A 
HETATM    2  N2  UNL     1       9.453  33.660   9.921  1.00  0.00    -0.335 N 
ATOM      3  H2  UNL     1      10.179  33.343   9.279  1.00  0.00     0.168 HD
HETATM    4  C2  UNL     1       8.749  32.779  10.652  1.00  0.00     0.199 A 
HETATM    5  N3  UNL     1       7.786  33.165  11.506  1.00  0.00    -0.294 N 
ATOM      6  H3  UNL     1       7.277  32.460  12.040  1.00  0.00     0.187 HD
HETATM    7  N4  UNL     1       7.489  34.444  11.664  1.00  0.00    -0.282 N 
ATOM      8  H4  UNL     1       6.759  34.743  12.310  1.00  0.00     0.188 HD
HETATM    9  C3  UNL     1       8.186  35.330  10.939  1.00  0.00     0.160 A 
ENDROOT
BRANCH   9  10
HETATM   10  N5  UNL     1       7.934  36.584  11.058  1.00  0.00    -0.371 N 
ATOM     11  H5  UNL     1       8.704  37.198  11.324  1.00  0.00     0.161 HD
BRANCH  10  12
HETATM   12  C4  UNL     1       6.637  37.188  10.842  1.00  0.00     0.148 C 
BRANCH  12  13
HETATM   13  C5  UNL     1       6.643  37.746   9.420  1.00  0.00     0.249 C 
BRANCH  13  14
HETATM   14  N6  UNL     1       5.531  38.663   9.335  1.00  0.00    -0.078 N 
ATOM     15  H63 UNL     1       4.758  38.420   9.956  1.00  0.00     0.274 HD
ATOM     16  H62 UNL     1       5.731  39.580   9.735  1.00  0.00     0.274 HD
ATOM     17  H61 UNL     1       5.262  38.701   8.352  1.00  0.00     0.274 HD
ENDBRANCH  13  14
ENDBRANCH  12  13
ENDBRANCH  10  12
ENDBRANCH   9  10
BRANCH   1  18
HETATM   18  N1  UNL     1       9.850  35.810   9.360  1.00  0.00    -0.382 N 
ATOM     19  H12 UNL     1       9.724  35.935   8.356  1.00  0.00     0.157 HD
ATOM     20  H11 UNL     1      10.545  36.389   9.830  1.00  0.00     0.157 HD
ENDBRANCH   1  18
TORSDOF 5
ENDMDL
MODEL 2
REMARK VINA RESULT: -3.345574641      0.772      1.933
REMARK  5 active torsions:
REMARK  status: ('A' for Active; 'I' for Inactive)
REMARK    1  A    between atoms: N1_1  and  C1_4 
REMARK    2  A    between atoms: C3_12  and  N5_13 
REMARK    3  A    between atoms: N5_13  and  C4_15 
REMARK    4  A    between atoms: C4_15  and  C5_16 
REMARK    5  A    between atoms: C5_16  and  N6_17 
ROOT
HETATM    1  C1  UNL     1       8.171  34.268  11.522  1.00  0.00     0.145 A 
HETATM    2  N2  UNL     1       8.531  33.045  11.106  1.00  0.00    -0.335 N 
ATOM      3  H2  UNL     1       8.426  32.234  11.717  1.00  0.00     0.168 HD
HETATM    4  C2  UNL     1       9.033  32.911   9.867  1.00  0.00     0.199 A 
HETATM    5  N3  UNL     1       9.185  33.958   9.039  1.00  0.00    -0.294 N 
ATOM      6  H3  UNL     1       9.570  33.810   8.106  1.00  0.00     0.187 HD
HETATM    7  N4  UNL     1       8.841  35.179   9.415  1.00  0.00    -0.282 N 
ATOM      8  H4  UNL     1       8.953  35.978   8.792  1.00  0.00     0.188 HD
HETATM    9  C3  UNL     1       8.339  35.322  10.650  1.00  0.00     0.160 A 
ENDROOT
BRANCH   9  10
HETATM   10  N5  UNL     1       7.991  36.488  11.062  1.00  0.00    -0.371 N 
ATOM     11  H5  UNL     1       8.683  37.036  11.572  1.00  0.00     0.161 HD
BRANCH  10  12
HETATM   12  C4  UNL     1       6.687  37.080  10.854  1.00  0.00     0.148 C 
BRANCH  12  13
HETATM   13  C5  UNL     1       6.734  37.781   9.497  1.00  0.00     0.249 C 
BRANCH  13  14
HETATM   14  N6  UNL     1       5.518  38.553   9.393  1.00  0.00    -0.078 N 
ATOM     15  H63 UNL     1       5.344  38.910   8.454  1.00  0.00     0.274 HD
ATOM     16  H62 UNL     1       4.673  37.989   9.473  1.00  0.00     0.274 HD
ATOM     17  H61 UNL     1       5.582  39.287  10.098  1.00  0.00     0.274 HD
ENDBRANCH  13  14
ENDBRANCH  12  13
ENDBRANCH  10  12
ENDBRANCH   9  10
BRANCH   1  18
HETATM   18  N1  UNL     1       7.691  34.399  12.705  1.00  0.00    -0.382 N 
ATOM     19  H12 UNL     1       7.107  33.695  13.155  1.00  0.00     0.157 HD
ATOM     20  H11 UNL     1       7.902  35.250  13.226  1.00  0.00     0.157 HD
ENDBRANCH   1  18
TORSDOF 5
ENDMDL
MODEL 3
REMARK VINA RESULT: -3.224120476      1.104      1.132
REMARK  5 active torsions:
REMARK  status: ('A' for Active; 'I' for Inactive)
REMARK    1  A    between atoms: N1_1  and  C1_4 
REMARK    2  A    between atoms: C3_12  and  N5_13 
REMARK    3  A    between atoms: N5_13  and  C4_15 
REMARK    4  A    between atoms: C4_15  and  C5_16 
REMARK    5  A    between atoms: C5_16  and  N6_17 
ROOT
HETATM    1  C1  UNL     1       9.025  34.582   9.931  1.00  0.00     0.145 A 
HETATM    2  N2  UNL     1       9.191  33.288   9.623  1.00  0.00    -0.335 N 
ATOM      3  H2  UNL     1       9.878  33.001   8.925  1.00  0.00     0.168 HD
HETATM    4  C2  UNL     1       8.431  32.376  10.254  1.00  0.00     0.199 A 
HETATM    5  N3  UNL     1       7.517  32.721  11.176  1.00  0.00    -0.294 N 
ATOM      6  H3  UNL     1       6.963  31.994  11.630  1.00  0.00     0.187 HD
HETATM    7  N4  UNL     1       7.327  33.987  11.505  1.00  0.00    -0.282 N 
ATOM      8  H4  UNL     1       6.635  34.256  12.205  1.00  0.00     0.188 HD
HETATM    9  C3  UNL     1       8.080  34.904  10.881  1.00  0.00     0.160 A 
ENDROOT
BRANCH   9  10
HETATM   10  N5  UNL     1       7.931  36.148  11.167  1.00  0.00    -0.371 N 
ATOM     11  H5  UNL     1       8.161  36.446  12.115  1.00  0.00     0.161 HD
BRANCH  10  12
HETATM   12  C4  UNL     1       7.461  37.155  10.241  1.00  0.00     0.148 C 
BRANCH  12  13
HETATM   13  C5  UNL     1       5.994  37.415  10.582  1.00  0.00     0.249 C 
BRANCH  13  14
HETATM   14  N6  UNL     1       5.888  37.332  12.019  1.00  0.00    -0.078 N 
ATOM     15  H63 UNL     1       6.778  37.148  12.481  1.00  0.00     0.274 HD
ATOM     16  H62 UNL     1       5.698  38.230  12.463  1.00  0.00     0.274 HD
ATOM     17  H61 UNL     1       5.178  36.626  12.215  1.00  0.00     0.274 HD
ENDBRANCH  13  14
ENDBRANCH  12  13
ENDBRANCH  10  12
ENDBRANCH   9  10
BRANCH   1  18
HETATM   18  N1  UNL     1       9.749  35.456   9.331  1.00  0.00    -0.382 N 
ATOM     19  H12 UNL     1       9.406  36.040   8.569  1.00  0.00     0.157 HD
ATOM     20  H11 UNL     1      10.717  35.575   9.627  1.00  0.00     0.157 HD
ENDBRANCH   1  18
TORSDOF 5
ENDMDL
MODEL 4
REMARK VINA RESULT: -2.725486227      1.433      3.865
REMARK  5 active torsions:
REMARK  status: ('A' for Active; 'I' for Inactive)
REMARK    1  A    between atoms: N1_1  and  C1_4 
REMARK    2  A    between atoms: C3_12  and  N5_13 
REMARK    3  A    between atoms: N5_13  and  C4_15 
REMARK    4  A    between atoms: C4_15  and  C5_16 
REMARK    5  A    between atoms: C5_16  and  N6_17 
ROOT
HETATM    1  C1  UNL     1       8.713  35.670  10.034  1.00  0.00     0.145 A 
HETATM    2  N2  UNL     1       8.061  36.774   9.642  1.00  0.00    -0.335 N 
ATOM      3  H2  UNL     1       8.314  37.250   8.776  1.00  0.00     0.168 HD
HETATM    4  C2  UNL     1       7.068  37.241  10.418  1.00  0.00     0.199 A 
HETATM    5  N3  UNL     1       6.711  36.638  11.565  1.00  0.00    -0.294 N 
ATOM      6  H3  UNL     1       5.950  37.028  12.122  1.00  0.00     0.187 HD
HETATM    7  N4  UNL     1       7.332  35.547  11.981  1.00  0.00    -0.282 N 
ATOM      8  H4  UNL     1       7.066  35.085  12.851  1.00  0.00     0.188 HD
HETATM    9  C3  UNL     1       8.324  35.075  11.215  1.00  0.00     0.160 A 
ENDROOT
BRANCH   9  10
HETATM   10  N5  UNL     1       8.958  34.017  11.577  1.00  0.00    -0.371 N 
ATOM     11  H5  UNL     1       9.959  34.102  11.752  1.00  0.00     0.161 HD
BRANCH  10  12
HETATM   12  C4  UNL     1       8.353  32.715  11.756  1.00  0.00     0.148 C 
BRANCH  12  13
HETATM   13  C5  UNL     1       7.525  32.439  10.501  1.00  0.00     0.249 C 
BRANCH  13  14
HETATM   14  N6  UNL     1       8.461  32.062   9.469  1.00  0.00    -0.078 N 
ATOM     15  H63 UNL     1       9.027  32.841   9.132  1.00  0.00     0.274 HD
ATOM     16  H62 UNL     1       9.229  31.485   9.810  1.00  0.00     0.274 HD
ATOM     17  H61 UNL     1       7.914  31.614   8.734  1.00  0.00     0.274 HD
ENDBRANCH  13  14
ENDBRANCH  12  13
ENDBRANCH  10  12
ENDBRANCH   9  10
BRANCH   1  18
HETATM   18  N1  UNL     1       9.662  35.221   9.296  1.00  0.00    -0.382 N 
ATOM     19  H12 UNL     1       9.589  35.128   8.283  1.00  0.00     0.157 HD
ATOM     20  H11 UNL     1      10.537  34.942   9.740  1.00  0.00     0.157 HD
ENDBRANCH   1  18
TORSDOF 5
ENDMDL
MODEL 5
REMARK VINA RESULT: -2.312814730      1.364      2.355
REMARK  5 active torsions:
REMARK  status: ('A' for Active; 'I' for Inactive)
REMARK    1  A    between atoms: N1_1  and  C1_4 
REMARK    2  A    between atoms: C3_12  and  N5_13 
REMARK    3  A    between atoms: N5_13  and  C4_15 
REMARK    4  A    between atoms: C4_15  and  C5_16 
REMARK    5  A    between atoms: C5_16  and  N6_17 
ROOT
HETATM    1  C1  UNL     1       8.039  33.718  11.581  1.00  0.00     0.145 A 
HETATM    2  N2  UNL     1       7.830  32.455  11.182  1.00  0.00    -0.335 N 
ATOM      3  H2  UNL     1       7.348  31.790  11.787  1.00  0.00     0.168 HD
HETATM    4  C2  UNL     1       8.270  32.086   9.967  1.00  0.00     0.199 A 
HETATM    5  N3  UNL     1       8.908  32.937   9.147  1.00  0.00    -0.294 N 
ATOM      6  H3  UNL     1       9.225  32.613   8.233  1.00  0.00     0.187 HD
HETATM    7  N4  UNL     1       9.132  34.190   9.507  1.00  0.00    -0.282 N 
ATOM      8  H4  UNL     1       9.616  34.841   8.890  1.00  0.00     0.188 HD
HETATM    9  C3  UNL     1       8.697  34.568  10.717  1.00  0.00     0.160 A 
ENDROOT
BRANCH   9  10
HETATM   10  N5  UNL     1       8.890  35.775  11.112  1.00  0.00    -0.371 N 
ATOM     11  H5  UNL     1       9.513  35.918  11.908  1.00  0.00     0.161 HD
BRANCH  10  12
HETATM   12  C4  UNL     1       8.289  36.946  10.511  1.00  0.00     0.148 C 
BRANCH  12  13
HETATM   13  C5  UNL     1       6.786  36.679  10.438  1.00  0.00     0.249 C 
BRANCH  13  14
HETATM   14  N6  UNL     1       6.210  37.256  11.629  1.00  0.00    -0.078 N 
ATOM     15  H63 UNL     1       6.559  38.192  11.835  1.00  0.00     0.274 HD
ATOM     16  H62 UNL     1       5.227  37.508  11.521  1.00  0.00     0.274 HD
ATOM     17  H61 UNL     1       6.376  36.589  12.382  1.00  0.00     0.274 HD
ENDBRANCH  13  14
ENDBRANCH  12  13
ENDBRANCH  10  12
ENDBRANCH   9  10
BRANCH   1  18
HETATM   18  N1  UNL     1       7.620  34.075  12.740  1.00  0.00    -0.382 N 
ATOM     19  H12 UNL     1       7.433  35.045  12.995  1.00  0.00     0.157 HD
ATOM     20  H11 UNL     1       7.466  33.357  13.447  1.00  0.00     0.157 HD
ENDBRANCH   1  18
TORSDOF 5
ENDMDL
