MODEL 1
REMARK VINA RESULT: -3.636044705      0.000      0.000
REMARK  3 active torsions:
REMARK  status: ('A' for Active; 'I' for Inactive)
REMARK    1  A    between atoms: C2_4  and  N2_5 
REMARK    2  A    between atoms: N2_5  and  C3_7 
REMARK    3  A    between atoms: C3_7  and  C4_8 
ROOT
HETATM    1  N2  UNL     1       8.830  35.337  11.311  1.00  0.00    -0.359 N 
ATOM      2  H2  UNL     1       9.396  35.442  12.153  1.00  0.00     0.162 HD
ENDROOT
BRANCH   1   3
HETATM    3  C2  UNL     1       8.500  34.036  10.844  1.00  0.00     0.188 C 
HETATM    4  N1  UNL     1       7.647  33.272  11.446  1.00  0.00    -0.346 N 
HETATM    5  C1  UNL     1       7.567  32.053  10.703  1.00  0.00     0.259 C 
ATOM      6  H1  UNL     1       7.127  33.498  12.295  1.00  0.00     0.163 HD
HETATM    7  N5  UNL     1       8.522  32.111   9.644  1.00  0.00    -0.119 NA
HETATM    8  N4  UNL     1       9.032  33.399   9.690  1.00  0.00    -0.274 N 
ATOM      9  H4  UNL     1       9.676  33.815   9.017  1.00  0.00     0.185 HD
ENDBRANCH   1   3
BRANCH   1  10
HETATM   10  C3  UNL     1       8.373  36.522  10.602  1.00  0.00     0.157 C 
BRANCH  10  11
HETATM   11  C4  UNL     1       6.865  36.509  10.577  1.00  0.00     0.229 A 
HETATM   12  C5  UNL     1       6.094  37.684  10.270  1.00  0.00     0.267 A 
HETATM   13  N3  UNL     1       6.236  37.210  11.671  1.00  0.00    -0.066 N 
ATOM     14  H32 UNL     1       5.596  36.961  12.425  1.00  0.00     0.277 HD
ATOM     15  H31 UNL     1       6.548  37.618  12.551  1.00  0.00     0.277 HD
ENDBRANCH  10  11
ENDBRANCH   1  10
TORSDOF 3
ENDMDL
MODEL 2
REMARK VINA RESULT: -3.542767798      1.103      1.233
REMARK  3 active torsions:
REMARK  status: ('A' for Active; 'I' for Inactive)
REMARK    1  A    between atoms: C2_4  and  N2_5 
REMARK    2  A    between atoms: N2_5  and  C3_7 
REMARK    3  A    between atoms: C3_7  and  C4_8 
ROOT
HETATM    1  N2  UNL     1       9.648  34.468   9.811  1.00  0.00    -0.359 N 
ATOM      2  H2  UNL     1      10.474  34.326   9.230  1.00  0.00     0.162 HD
ENDROOT
BRANCH   1   3
HETATM    3  C2  UNL     1       8.856  33.351  10.191  1.00  0.00     0.188 C 
HETATM    4  N1  UNL     1       8.557  33.093  11.423  1.00  0.00    -0.346 N 
HETATM    5  C1  UNL     1       7.757  31.907  11.428  1.00  0.00     0.259 C 
ATOM      6  H1  UNL     1       8.839  33.635  12.240  1.00  0.00     0.163 HD
HETATM    7  N5  UNL     1       7.677  31.415  10.090  1.00  0.00    -0.119 NA
HETATM    8  N4  UNL     1       8.294  32.384   9.314  1.00  0.00    -0.274 N 
ATOM      9  H4  UNL     1       8.337  32.400   8.295  1.00  0.00     0.185 HD
ENDBRANCH   1   3
BRANCH   1  10
HETATM   10  C3  UNL     1       9.295  35.813  10.239  1.00  0.00     0.157 C 
BRANCH  10  11
HETATM   11  C4  UNL     1       7.795  35.890  10.375  1.00  0.00     0.229 A 
HETATM   12  C5  UNL     1       7.091  37.145  10.398  1.00  0.00     0.267 A 
HETATM   13  N3  UNL     1       7.327  36.380  11.649  1.00  0.00    -0.066 N 
ATOM     14  H32 UNL     1       6.744  36.015  12.402  1.00  0.00     0.277 HD
ATOM     15  H31 UNL     1       7.751  36.576  12.556  1.00  0.00     0.277 HD
ENDBRANCH  10  11
ENDBRANCH   1  10
TORSDOF 3
ENDMDL
MODEL 3
REMARK VINA RESULT: -3.533918830      1.119      1.554
REMARK  3 active torsions:
REMARK  status: ('A' for Active; 'I' for Inactive)
REMARK    1  A    between atoms: C2_4  and  N2_5 
REMARK    2  A    between atoms: N2_5  and  C3_7 
REMARK    3  A    between atoms: C3_7  and  C4_8 
ROOT
HETATM    1  N2  UNL     1       9.597  34.556   9.623  1.00  0.00    -0.359 N 
ATOM      2  H2  UNL     1      10.331  34.438   8.925  1.00  0.00     0.162 HD
ENDROOT
BRANCH   1   3
HETATM    3  C2  UNL     1       8.937  33.412  10.148  1.00  0.00     0.188 C 
HETATM    4  N1  UNL     1       8.295  32.571   9.404  1.00  0.00    -0.346 N 
HETATM    5  C1  UNL     1       7.765  31.558  10.264  1.00  0.00     0.259 C 
ATOM      6  H1  UNL     1       8.187  32.621   8.390  1.00  0.00     0.163 HD
HETATM    7  N5  UNL     1       8.065  31.915  11.613  1.00  0.00    -0.119 NA
HETATM    8  N4  UNL     1       8.882  33.031  11.517  1.00  0.00    -0.274 N 
ATOM      9  H4  UNL     1       9.357  33.496  12.290  1.00  0.00     0.185 HD
ENDBRANCH   1   3
BRANCH   1  10
HETATM   10  C3  UNL     1       9.239  35.893  10.068  1.00  0.00     0.157 C 
BRANCH  10  11
HETATM   11  C4  UNL     1       7.754  35.925  10.332  1.00  0.00     0.229 A 
HETATM   12  C5  UNL     1       7.026  37.159  10.465  1.00  0.00     0.267 A 
HETATM   13  N3  UNL     1       7.385  36.353  11.660  1.00  0.00    -0.066 N 
ATOM     14  H32 UNL     1       6.876  35.944  12.444  1.00  0.00     0.277 HD
ATOM     15  H31 UNL     1       7.880  36.525  12.535  1.00  0.00     0.277 HD
ENDBRANCH  10  11
ENDBRANCH   1  10
TORSDOF 3
ENDMDL
MODEL 4
REMARK VINA RESULT: -3.475356174      1.186      4.355
REMARK  3 active torsions:
REMARK  status: ('A' for Active; 'I' for Inactive)
REMARK    1  A    between atoms: C2_4  and  N2_5 
REMARK    2  A    between atoms: N2_5  and  C3_7 
REMARK    3  A    between atoms: C3_7  and  C4_8 
ROOT
HETATM    1  N2  UNL     1       8.766  35.682  11.070  1.00  0.00    -0.359 N 
ATOM      2  H2  UNL     1       9.333  35.831  11.905  1.00  0.00     0.162 HD
ENDROOT
BRANCH   1   3
HETATM    3  C2  UNL     1       7.616  36.487  10.848  1.00  0.00     0.188 C 
HETATM    4  N1  UNL     1       7.424  37.146   9.752  1.00  0.00    -0.346 N 
HETATM    5  C1  UNL     1       6.178  37.836   9.881  1.00  0.00     0.259 C 
ATOM      6  H1  UNL     1       8.046  37.170   8.944  1.00  0.00     0.163 HD
HETATM    7  N5  UNL     1       5.675  37.609  11.199  1.00  0.00    -0.119 NA
HETATM    8  N4  UNL     1       6.543  36.685  11.760  1.00  0.00    -0.274 N 
ATOM      9  H4  UNL     1       6.432  36.229  12.665  1.00  0.00     0.185 HD
ENDBRANCH   1   3
BRANCH   1  10
HETATM   10  C3  UNL     1       9.145  34.647  10.121  1.00  0.00     0.157 C 
BRANCH  10  11
HETATM   11  C4  UNL     1       8.867  33.303  10.746  1.00  0.00     0.229 A 
HETATM   12  C5  UNL     1       7.796  32.454  10.295  1.00  0.00     0.267 A 
HETATM   13  N3  UNL     1       7.667  33.244  11.546  1.00  0.00    -0.066 N 
ATOM     14  H32 UNL     1       7.448  33.037  12.521  1.00  0.00     0.277 HD
ATOM     15  H31 UNL     1       7.002  33.924  11.915  1.00  0.00     0.277 HD
ENDBRANCH  10  11
ENDBRANCH   1  10
TORSDOF 3
ENDMDL
MODEL 5
REMARK VINA RESULT: -3.400493945      1.132      1.180
REMARK  3 active torsions:
REMARK  status: ('A' for Active; 'I' for Inactive)
REMARK    1  A    between atoms: C2_4  and  N2_5 
REMARK    2  A    between atoms: N2_5  and  C3_7 
REMARK    3  A    between atoms: C3_7  and  C4_8 
ROOT
HETATM    1  N2  UNL     1       8.513  36.197  10.609  1.00  0.00    -0.359 N 
ATOM      2  H2  UNL     1       9.266  36.694  10.133  1.00  0.00     0.162 HD
ENDROOT
BRANCH   1   3
HETATM    3  C2  UNL     1       8.603  34.790  10.787  1.00  0.00     0.188 C 
HETATM    4  N1  UNL     1       8.045  34.173  11.777  1.00  0.00    -0.346 N 
HETATM    5  C1  UNL     1       8.342  32.781  11.635  1.00  0.00     0.259 C 
ATOM      6  H1  UNL     1       7.494  34.600  12.522  1.00  0.00     0.163 HD
HETATM    7  N5  UNL     1       9.214  32.622  10.516  1.00  0.00    -0.119 NA
HETATM    8  N4  UNL     1       9.292  33.880   9.939  1.00  0.00    -0.274 N 
ATOM      9  H4  UNL     1       9.761  34.112   9.064  1.00  0.00     0.185 HD
ENDBRANCH   1   3
BRANCH   1  10
HETATM   10  C3  UNL     1       7.360  36.938  11.096  1.00  0.00     0.157 C 
BRANCH  10  11
HETATM   11  C4  UNL     1       6.415  37.161   9.942  1.00  0.00     0.229 A 
HETATM   12  C5  UNL     1       6.079  38.478   9.470  1.00  0.00     0.267 A 
HETATM   13  N3  UNL     1       5.129  37.703  10.310  1.00  0.00    -0.066 N 
ATOM     14  H32 UNL     1       4.158  37.402  10.224  1.00  0.00     0.277 HD
ATOM     15  H31 UNL     1       4.628  37.865  11.183  1.00  0.00     0.277 HD
ENDBRANCH  10  11
ENDBRANCH   1  10
TORSDOF 3
ENDMDL
