MODEL 1
REMARK VINA RESULT: -7.728901317      0.000      0.000
REMARK  7 active torsions:
REMARK  status: ('A' for Active; 'I' for Inactive)
REMARK    1  A    between atoms: C2_2  and  C3_3 
REMARK    2  A    between atoms: C3_3  and  C4_4 
REMARK    3  A    between atoms: C4_4  and  C5_5 
REMARK    4  A    between atoms: C5_5  and  C6_6 
REMARK    5  A    between atoms: C10_14  and  N3_15 
REMARK    6  A    between atoms: N3_15  and  C11_17 
REMARK    7  A    between atoms: C11_17  and  C12_18 
ROOT
HETATM    1  C5  UNL     1      46.687  48.625  17.020  1.00  0.00     0.083 C 
HETATM    2  C8  UNL     1      47.906  47.718  16.732  1.00  0.00     0.159 C 
HETATM    3  N1  UNL     1      49.032  48.243  17.481  1.00  0.00    -0.371 N 
ATOM      4  H1  UNL     1      49.621  47.619  18.034  1.00  0.00     0.161 HD
HETATM    5  C9  UNL     1      49.305  49.643  17.437  1.00  0.00     0.152 A 
HETATM    6  N2  UNL     1      50.513  50.150  17.743  1.00  0.00    -0.174 N 
ATOM      7  H2  UNL     1      51.257  49.508  18.016  1.00  0.00     0.186 HD
HETATM    8  C10 UNL     1      50.781  51.463  17.704  1.00  0.00     0.679 A 
HETATM    9  N4  UNL     1      49.793  52.296  17.343  1.00  0.00    -0.199 N 
ATOM     10  H4  UNL     1      49.989  53.297  17.311  1.00  0.00     0.183 HD
HETATM   11  C16 UNL     1      48.561  51.875  17.022  1.00  0.00     0.146 A 
HETATM   12  C17 UNL     1      48.305  50.500  17.070  1.00  0.00     0.130 A 
HETATM   13  O2  UNL     1      47.062  49.986  16.754  1.00  0.00    -0.333 OA
ENDROOT
BRANCH   8  14
HETATM   14  N3  UNL     1      51.924  51.957  17.992  1.00  0.00    -0.224 N 
ATOM     15  H3  UNL     1      52.734  51.399  17.721  1.00  0.00     0.177 HD
BRANCH  14  16
HETATM   16  C11 UNL     1      52.204  53.191  18.646  1.00  0.00     0.170 C 
BRANCH  16  17
HETATM   17  C12 UNL     1      52.146  53.083  20.155  1.00  0.00     0.139 C 
HETATM   18  C13 UNL     1      50.786  53.374  20.715  1.00  0.00     0.035 C 
HETATM   19  C14 UNL     1      50.831  52.555  22.013  1.00  0.00     0.029 C 
HETATM   20  C15 UNL     1      51.726  51.416  21.592  1.00  0.00     0.168 C 
HETATM   21  O1  UNL     1      52.549  51.854  20.598  1.00  0.00    -0.384 OA
ENDBRANCH  16  17
ENDBRANCH  14  16
ENDBRANCH   8  14
BRANCH   1  22
HETATM   22  C4  UNL     1      45.661  48.258  16.029  1.00  0.00     0.040 C 
BRANCH  22  23
HETATM   23  C3  UNL     1      46.071  48.145  14.599  1.00  0.00     0.003 C 
BRANCH  23  24
HETATM   24  C2  UNL     1      45.402  46.924  13.939  1.00  0.00    -0.004 C 
HETATM   25  C1  UNL     1      45.125  45.857  14.984  1.00  0.00     0.005 C 
ENDBRANCH  23  24
ENDBRANCH  22  23
ENDBRANCH   1  22
BRANCH   1  26
HETATM   26  C6  UNL     1      46.402  48.461  18.462  1.00  0.00     0.036 C 
HETATM   27  C7  UNL     1      45.367  47.478  18.861  1.00  0.00     0.008 C 
ENDBRANCH   1  26
TORSDOF 7
ENDMDL
MODEL 2
REMARK VINA RESULT: -7.689081919      2.178      3.100
REMARK  7 active torsions:
REMARK  status: ('A' for Active; 'I' for Inactive)
REMARK    1  A    between atoms: C2_2  and  C3_3 
REMARK    2  A    between atoms: C3_3  and  C4_4 
REMARK    3  A    between atoms: C4_4  and  C5_5 
REMARK    4  A    between atoms: C5_5  and  C6_6 
REMARK    5  A    between atoms: C10_14  and  N3_15 
REMARK    6  A    between atoms: N3_15  and  C11_17 
REMARK    7  A    between atoms: C11_17  and  C12_18 
ROOT
HETATM    1  C5  UNL     1      48.062  49.249  17.894  1.00  0.00     0.083 C 
HETATM    2  C8  UNL     1      47.569  50.539  17.199  1.00  0.00     0.159 C 
HETATM    3  N1  UNL     1      48.729  51.371  16.940  1.00  0.00    -0.371 N 
ATOM      4  H1  UNL     1      48.863  51.801  16.025  1.00  0.00     0.161 HD
HETATM    5  C9  UNL     1      49.681  51.580  17.982  1.00  0.00     0.152 A 
HETATM    6  N2  UNL     1      50.534  52.621  17.979  1.00  0.00    -0.174 N 
ATOM      7  H2  UNL     1      50.495  53.281  17.202  1.00  0.00     0.186 HD
HETATM    8  C10 UNL     1      51.432  52.828  18.953  1.00  0.00     0.679 A 
HETATM    9  N4  UNL     1      51.471  51.952  19.968  1.00  0.00    -0.199 N 
ATOM     10  H4  UNL     1      52.152  52.101  20.713  1.00  0.00     0.183 HD
HETATM   11  C16 UNL     1      50.659  50.888  20.049  1.00  0.00     0.146 A 
HETATM   12  C17 UNL     1      49.730  50.693  19.022  1.00  0.00     0.130 A 
HETATM   13  O2  UNL     1      48.857  49.622  19.031  1.00  0.00    -0.333 OA
ENDROOT
BRANCH   8  14
HETATM   14  N3  UNL     1      52.246  53.812  18.961  1.00  0.00    -0.224 N 
ATOM     15  H3  UNL     1      53.230  53.581  18.821  1.00  0.00     0.177 HD
BRANCH  14  16
HETATM   16  C11 UNL     1      51.948  55.193  19.143  1.00  0.00     0.170 C 
BRANCH  16  17
HETATM   17  C12 UNL     1      52.196  55.667  20.560  1.00  0.00     0.139 C 
HETATM   18  C13 UNL     1      51.170  56.650  21.040  1.00  0.00     0.035 C 
HETATM   19  C14 UNL     1      51.229  56.406  22.554  1.00  0.00     0.029 C 
HETATM   20  C15 UNL     1      51.577  54.939  22.586  1.00  0.00     0.168 C 
HETATM   21  O1  UNL     1      52.255  54.628  21.445  1.00  0.00    -0.384 OA
ENDBRANCH  16  17
ENDBRANCH  14  16
ENDBRANCH   8  14
BRANCH   1  22
HETATM   22  C4  UNL     1      46.858  48.576  18.409  1.00  0.00     0.040 C 
BRANCH  22  23
HETATM   23  C3  UNL     1      45.541  48.923  17.799  1.00  0.00     0.003 C 
BRANCH  23  24
HETATM   24  C2  UNL     1      44.524  47.788  18.029  1.00  0.00    -0.004 C 
HETATM   25  C1  UNL     1      44.753  47.154  19.390  1.00  0.00     0.005 C 
ENDBRANCH  23  24
ENDBRANCH  22  23
ENDBRANCH   1  22
BRANCH   1  26
HETATM   26  C6  UNL     1      48.913  48.562  16.898  1.00  0.00     0.036 C 
HETATM   27  C7  UNL     1      48.781  47.093  16.762  1.00  0.00     0.008 C 
ENDBRANCH   1  26
TORSDOF 7
ENDMDL
MODEL 3
REMARK VINA RESULT: -7.616980150      2.734      7.965
REMARK  7 active torsions:
REMARK  status: ('A' for Active; 'I' for Inactive)
REMARK    1  A    between atoms: C2_2  and  C3_3 
REMARK    2  A    between atoms: C3_3  and  C4_4 
REMARK    3  A    between atoms: C4_4  and  C5_5 
REMARK    4  A    between atoms: C5_5  and  C6_6 
REMARK    5  A    between atoms: C10_14  and  N3_15 
REMARK    6  A    between atoms: N3_15  and  C11_17 
REMARK    7  A    between atoms: C11_17  and  C12_18 
ROOT
HETATM    1  C5  UNL     1      51.258  55.551  20.962  1.00  0.00     0.083 C 
HETATM    2  C8  UNL     1      51.508  54.444  22.013  1.00  0.00     0.159 C 
HETATM    3  N1  UNL     1      51.859  53.231  21.299  1.00  0.00    -0.371 N 
ATOM      4  H1  UNL     1      52.661  52.673  21.593  1.00  0.00     0.161 HD
HETATM    5  C9  UNL     1      51.068  52.827  20.183  1.00  0.00     0.152 A 
HETATM    6  N2  UNL     1      51.056  51.559  19.732  1.00  0.00    -0.174 N 
ATOM      7  H2  UNL     1      51.634  50.866  20.207  1.00  0.00     0.186 HD
HETATM    8  C10 UNL     1      50.316  51.168  18.683  1.00  0.00     0.679 A 
HETATM    9  N4  UNL     1      49.561  52.090  18.068  1.00  0.00    -0.199 N 
ATOM     10  H4  UNL     1      48.995  51.801  17.269  1.00  0.00     0.183 HD
HETATM   11  C16 UNL     1      49.515  53.374  18.452  1.00  0.00     0.146 A 
HETATM   12  C17 UNL     1      50.295  53.758  19.548  1.00  0.00     0.130 A 
HETATM   13  O2  UNL     1      50.303  55.062  20.007  1.00  0.00    -0.333 OA
ENDROOT
BRANCH   8  14
HETATM   14  N3  UNL     1      50.296  49.968  18.245  1.00  0.00    -0.224 N 
ATOM     15  H3  UNL     1      50.908  49.769  17.454  1.00  0.00     0.177 HD
BRANCH  14  16
HETATM   16  C11 UNL     1      49.522  48.873  18.729  1.00  0.00     0.170 C 
BRANCH  16  17
HETATM   17  C12 UNL     1      48.267  48.637  17.915  1.00  0.00     0.139 C 
HETATM   18  C13 UNL     1      47.009  48.770  18.721  1.00  0.00     0.035 C 
HETATM   19  C14 UNL     1      46.012  49.177  17.628  1.00  0.00     0.029 C 
HETATM   20  C15 UNL     1      46.918  49.947  16.699  1.00  0.00     0.168 C 
HETATM   21  O1  UNL     1      48.188  49.473  16.838  1.00  0.00    -0.384 OA
ENDBRANCH  16  17
ENDBRANCH  14  16
ENDBRANCH   8  14
BRANCH   1  22
HETATM   22  C4  UNL     1      50.619  56.664  21.683  1.00  0.00     0.040 C 
BRANCH  22  23
HETATM   23  C3  UNL     1      49.870  57.681  20.888  1.00  0.00     0.003 C 
BRANCH  23  24
HETATM   24  C2  UNL     1      48.490  57.951  21.518  1.00  0.00    -0.004 C 
HETATM   25  C1  UNL     1      47.391  57.598  20.532  1.00  0.00     0.005 C 
ENDBRANCH  23  24
ENDBRANCH  22  23
ENDBRANCH   1  22
BRANCH   1  26
HETATM   26  C6  UNL     1      52.561  55.764  20.295  1.00  0.00     0.036 C 
HETATM   27  C7  UNL     1      53.311  57.003  20.611  1.00  0.00     0.008 C 
ENDBRANCH   1  26
TORSDOF 7
ENDMDL
MODEL 4
REMARK VINA RESULT: -7.589979515      2.451      7.478
REMARK  7 active torsions:
REMARK  status: ('A' for Active; 'I' for Inactive)
REMARK    1  A    between atoms: C2_2  and  C3_3 
REMARK    2  A    between atoms: C3_3  and  C4_4 
REMARK    3  A    between atoms: C4_4  and  C5_5 
REMARK    4  A    between atoms: C5_5  and  C6_6 
REMARK    5  A    between atoms: C10_14  and  N3_15 
REMARK    6  A    between atoms: N3_15  and  C11_17 
REMARK    7  A    between atoms: C11_17  and  C12_18 
ROOT
HETATM    1  C5  UNL     1      50.125  54.621  19.849  1.00  0.00     0.083 C 
HETATM    2  C8  UNL     1      50.247  53.485  20.890  1.00  0.00     0.159 C 
HETATM    3  N1  UNL     1      50.656  52.284  20.185  1.00  0.00    -0.371 N 
ATOM      4  H1  UNL     1      51.416  51.706  20.546  1.00  0.00     0.161 HD
HETATM    5  C9  UNL     1      49.984  51.922  18.980  1.00  0.00     0.152 A 
HETATM    6  N2  UNL     1      50.003  50.666  18.496  1.00  0.00    -0.174 N 
ATOM      7  H2  UNL     1      50.519  49.952  19.010  1.00  0.00     0.186 HD
HETATM    8  C10 UNL     1      49.375  50.314  17.365  1.00  0.00     0.679 A 
HETATM    9  N4  UNL     1      48.702  51.263  16.698  1.00  0.00    -0.199 N 
ATOM     10  H4  UNL     1      48.220  51.004  15.836  1.00  0.00     0.183 HD
HETATM   11  C16 UNL     1      48.631  52.537  17.110  1.00  0.00     0.146 A 
HETATM   12  C17 UNL     1      49.294  52.881  18.292  1.00  0.00     0.130 A 
HETATM   13  O2  UNL     1      49.270  54.172  18.785  1.00  0.00    -0.333 OA
ENDROOT
BRANCH   8  14
HETATM   14  N3  UNL     1      49.386  49.126  16.894  1.00  0.00    -0.224 N 
ATOM     15  H3  UNL     1      49.790  49.016  15.964  1.00  0.00     0.177 HD
BRANCH  14  16
HETATM   16  C11 UNL     1      48.903  47.936  17.512  1.00  0.00     0.170 C 
BRANCH  16  17
HETATM   17  C12 UNL     1      47.400  47.785  17.400  1.00  0.00     0.139 C 
HETATM   18  C13 UNL     1      46.651  48.563  18.441  1.00  0.00     0.035 C 
HETATM   19  C14 UNL     1      45.320  48.802  17.715  1.00  0.00     0.029 C 
HETATM   20  C15 UNL     1      45.794  48.877  16.284  1.00  0.00     0.168 C 
HETATM   21  O1  UNL     1      46.938  48.146  16.166  1.00  0.00    -0.384 OA
ENDBRANCH  16  17
ENDBRANCH  14  16
ENDBRANCH   8  14
BRANCH   1  22
HETATM   22  C4  UNL     1      49.427  55.725  20.528  1.00  0.00     0.040 C 
BRANCH  22  23
HETATM   23  C3  UNL     1      48.089  56.137  20.011  1.00  0.00     0.003 C 
BRANCH  23  24
HETATM   24  C2  UNL     1      47.699  57.522  20.563  1.00  0.00    -0.004 C 
HETATM   25  C1  UNL     1      48.746  57.999  21.554  1.00  0.00     0.005 C 
ENDBRANCH  23  24
ENDBRANCH  22  23
ENDBRANCH   1  22
BRANCH   1  26
HETATM   26  C6  UNL     1      51.494  54.832  19.330  1.00  0.00     0.036 C 
HETATM   27  C7  UNL     1      52.069  56.195  19.413  1.00  0.00     0.008 C 
ENDBRANCH   1  26
TORSDOF 7
ENDMDL
MODEL 5
REMARK VINA RESULT: -7.588008545      3.339      5.592
REMARK  7 active torsions:
REMARK  status: ('A' for Active; 'I' for Inactive)
REMARK    1  A    between atoms: C2_2  and  C3_3 
REMARK    2  A    between atoms: C3_3  and  C4_4 
REMARK    3  A    between atoms: C4_4  and  C5_5 
REMARK    4  A    between atoms: C5_5  and  C6_6 
REMARK    5  A    between atoms: C10_14  and  N3_15 
REMARK    6  A    between atoms: N3_15  and  C11_17 
REMARK    7  A    between atoms: C11_17  and  C12_18 
ROOT
HETATM    1  C5  UNL     1      50.788  50.688  19.121  1.00  0.00     0.083 C 
HETATM    2  C8  UNL     1      50.378  51.781  18.107  1.00  0.00     0.159 C 
HETATM    3  N1  UNL     1      51.179  52.959  18.382  1.00  0.00    -0.371 N 
ATOM      4  H1  UNL     1      51.643  53.457  17.622  1.00  0.00     0.161 HD
HETATM    5  C9  UNL     1      51.311  53.412  19.728  1.00  0.00     0.152 A 
HETATM    6  N2  UNL     1      51.669  54.674  20.031  1.00  0.00    -0.174 N 
ATOM      7  H2  UNL     1      51.853  55.325  19.268  1.00  0.00     0.186 HD
HETATM    8  C10 UNL     1      51.795  55.111  21.292  1.00  0.00     0.679 A 
HETATM    9  N4  UNL     1      51.551  54.243  22.285  1.00  0.00    -0.199 N 
ATOM     10  H4  UNL     1      51.644  54.567  23.248  1.00  0.00     0.183 HD
HETATM   11  C16 UNL     1      51.189  52.969  22.073  1.00  0.00     0.146 A 
HETATM   12  C17 UNL     1      51.064  52.536  20.748  1.00  0.00     0.130 A 
HETATM   13  O2  UNL     1      50.695  51.239  20.444  1.00  0.00    -0.333 OA
ENDROOT
BRANCH   8  14
HETATM   14  N3  UNL     1      52.134  56.305  21.592  1.00  0.00    -0.224 N 
ATOM     15  H3  UNL     1      53.107  56.439  21.870  1.00  0.00     0.177 HD
BRANCH  14  16
HETATM   16  C11 UNL     1      51.319  57.474  21.586  1.00  0.00     0.170 C 
BRANCH  16  17
HETATM   17  C12 UNL     1      49.876  57.182  21.232  1.00  0.00     0.139 C 
HETATM   18  C13 UNL     1      48.911  58.150  21.849  1.00  0.00     0.035 C 
HETATM   19  C14 UNL     1      47.755  58.081  20.841  1.00  0.00     0.029 C 
HETATM   20  C15 UNL     1      48.513  57.805  19.567  1.00  0.00     0.168 C 
HETATM   21  O1  UNL     1      49.672  57.160  19.881  1.00  0.00    -0.384 OA
ENDBRANCH  16  17
ENDBRANCH  14  16
ENDBRANCH   8  14
BRANCH   1  22
HETATM   22  C4  UNL     1      49.768  49.632  19.020  1.00  0.00     0.040 C 
BRANCH  22  23
HETATM   23  C3  UNL     1      48.531  49.920  18.236  1.00  0.00     0.003 C 
BRANCH  23  24
HETATM   24  C2  UNL     1      47.410  48.931  18.612  1.00  0.00    -0.004 C 
HETATM   25  C1  UNL     1      46.171  49.209  17.779  1.00  0.00     0.005 C 
ENDBRANCH  23  24
ENDBRANCH  22  23
ENDBRANCH   1  22
BRANCH   1  26
HETATM   26  C6  UNL     1      52.200  50.372  18.814  1.00  0.00     0.036 C 
HETATM   27  C7  UNL     1      52.991  49.646  19.835  1.00  0.00     0.008 C 
ENDBRANCH   1  26
TORSDOF 7
ENDMDL
