MODEL 1
REMARK VINA RESULT: -7.539552015      0.000      0.000
REMARK  7 active torsions:
REMARK  status: ('A' for Active; 'I' for Inactive)
REMARK    1  A    between atoms: C2_2  and  C3_3 
REMARK    2  A    between atoms: C3_3  and  C4_4 
REMARK    3  A    between atoms: C6_9  and  C7_10 
REMARK    4  A    between atoms: C7_10  and  C8_11 
REMARK    5  A    between atoms: C14_17  and  O2_18 
REMARK    6  A    between atoms: C15_20  and  N2_21 
REMARK    7  A    between atoms: N3_23  and  N4_25 
ROOT
HETATM    1  C4  UNL     1      52.413  51.208  19.402  1.00  0.00     0.104 C 
HETATM    2  C5  UNL     1      52.376  49.779  19.793  1.00  0.00     0.224 C 
HETATM    3  O1  UNL     1      53.463  49.219  20.133  1.00  0.00    -0.273 OA
HETATM    4  N1  UNL     1      51.141  49.098  19.773  1.00  0.00    -0.353 N 
ATOM      5  H1  UNL     1      50.979  48.332  20.428  1.00  0.00     0.163 HD
HETATM    6  C6  UNL     1      50.124  49.460  18.860  1.00  0.00     0.115 C 
HETATM    7  C14 UNL     1      50.112  50.903  18.436  1.00  0.00     0.165 C 
HETATM    8  C15 UNL     1      51.463  51.511  18.273  1.00  0.00     0.144 C 
ENDROOT
BRANCH   6   9
HETATM    9  C7  UNL     1      48.724  49.118  19.300  1.00  0.00     0.032 C 
BRANCH   9  10
HETATM   10  C8  UNL     1      47.916  48.369  18.302  1.00  0.00    -0.013 C 
HETATM   11  C9  UNL     1      48.658  48.066  17.034  1.00  0.00     0.005 C 
HETATM   12  C10 UNL     1      47.950  48.536  15.795  1.00  0.00     0.000 C 
HETATM   13  C11 UNL     1      47.632  50.000  15.990  1.00  0.00     0.000 C 
HETATM   14  C12 UNL     1      46.588  50.109  17.045  1.00  0.00     0.000 C 
HETATM   15  C13 UNL     1      46.612  49.068  18.097  1.00  0.00     0.005 C 
ENDBRANCH   9  10
ENDBRANCH   6   9
BRANCH   7  16
HETATM   16  O2  UNL     1      49.357  51.701  19.313  1.00  0.00    -0.391 OA
ATOM     17  H2  UNL     1      49.812  51.855  20.132  1.00  0.00     0.210 HD
ENDBRANCH   7  16
BRANCH   8  18
HETATM   18  N2  UNL     1      52.025  51.136  16.998  1.00  0.00    -0.314 N 
HETATM   19  N3  UNL     1      51.385  50.455  16.138  1.00  0.00    -0.250 N 
ATOM     20  H3  UNL     1      50.433  50.163  16.361  1.00  0.00     0.207 HD
ATOM     21  H2  UNL     1      52.976  51.431  16.779  1.00  0.00     0.182 HD
BRANCH  19  22
HETATM   22  N4  UNL     1      51.912  50.088  14.912  1.00  0.00    -0.323 N 
HETATM   23  C16 UNL     1      53.283  50.270  14.509  1.00  0.00     0.172 C 
HETATM   24  C17 UNL     1      51.002  49.465  13.947  1.00  0.00     0.172 C 
ENDBRANCH  19  22
ENDBRANCH   8  18
BRANCH   1  25
HETATM   25  C3  UNL     1      52.166  52.079  20.606  1.00  0.00     0.016 C 
BRANCH  25  26
HETATM   26  C2  UNL     1      52.047  53.539  20.227  1.00  0.00    -0.004 C 
HETATM   27  C1  UNL     1      51.371  54.341  21.317  1.00  0.00     0.005 C 
ENDBRANCH  25  26
ENDBRANCH   1  25
TORSDOF 7
ENDMDL
MODEL 2
REMARK VINA RESULT: -6.965116699      1.436      1.655
REMARK  7 active torsions:
REMARK  status: ('A' for Active; 'I' for Inactive)
REMARK    1  A    between atoms: C2_2  and  C3_3 
REMARK    2  A    between atoms: C3_3  and  C4_4 
REMARK    3  A    between atoms: C6_9  and  C7_10 
REMARK    4  A    between atoms: C7_10  and  C8_11 
REMARK    5  A    between atoms: C14_17  and  O2_18 
REMARK    6  A    between atoms: C15_20  and  N2_21 
REMARK    7  A    between atoms: N3_23  and  N4_25 
ROOT
HETATM    1  C4  UNL     1      50.985  51.025  19.368  1.00  0.00     0.104 C 
HETATM    2  C5  UNL     1      50.496  49.688  19.779  1.00  0.00     0.224 C 
HETATM    3  O1  UNL     1      51.257  48.960  20.490  1.00  0.00    -0.273 OA
HETATM    4  N1  UNL     1      49.212  49.274  19.370  1.00  0.00    -0.353 N 
ATOM      5  H1  UNL     1      48.676  48.638  19.960  1.00  0.00     0.163 HD
HETATM    6  C6  UNL     1      48.654  49.729  18.151  1.00  0.00     0.115 C 
HETATM    7  C14 UNL     1      49.112  51.085  17.691  1.00  0.00     0.165 C 
HETATM    8  C15 UNL     1      50.546  51.383  17.972  1.00  0.00     0.144 C 
ENDROOT
BRANCH   6   9
HETATM    9  C7  UNL     1      47.148  49.732  18.105  1.00  0.00     0.032 C 
BRANCH   9  10
HETATM   10  C8  UNL     1      46.517  48.386  18.082  1.00  0.00    -0.013 C 
HETATM   11  C9  UNL     1      47.336  47.351  17.368  1.00  0.00     0.005 C 
HETATM   12  C10 UNL     1      46.587  46.638  16.278  1.00  0.00     0.000 C 
HETATM   13  C11 UNL     1      46.002  47.696  15.371  1.00  0.00     0.000 C 
HETATM   14  C12 UNL     1      44.928  48.403  16.122  1.00  0.00     0.000 C 
HETATM   15  C13 UNL     1      45.114  48.506  17.586  1.00  0.00     0.005 C 
ENDBRANCH   9  10
ENDBRANCH   6   9
BRANCH   7  16
HETATM   16  O2  UNL     1      48.321  52.116  18.228  1.00  0.00    -0.391 OA
ATOM     17  H2  UNL     1      47.561  51.778  18.686  1.00  0.00     0.210 HD
ENDBRANCH   7  16
BRANCH   8  18
HETATM   18  N2  UNL     1      51.385  50.758  16.979  1.00  0.00    -0.314 N 
HETATM   19  N3  UNL     1      51.000  50.545  15.787  1.00  0.00    -0.250 N 
ATOM     20  H3  UNL     1      50.056  50.831  15.525  1.00  0.00     0.207 HD
ATOM     21  H2  UNL     1      52.328  50.475  17.246  1.00  0.00     0.182 HD
BRANCH  19  22
HETATM   22  N4  UNL     1      51.795  49.946  14.825  1.00  0.00    -0.323 N 
HETATM   23  C16 UNL     1      53.195  50.214  14.621  1.00  0.00     0.172 C 
HETATM   24  C17 UNL     1      51.160  48.961  13.946  1.00  0.00     0.172 C 
ENDBRANCH  19  22
ENDBRANCH   8  18
BRANCH   1  25
HETATM   25  C3  UNL     1      50.573  52.060  20.380  1.00  0.00     0.016 C 
BRANCH  25  26
HETATM   26  C2  UNL     1      51.610  52.224  21.470  1.00  0.00    -0.004 C 
HETATM   27  C1  UNL     1      51.454  53.546  22.189  1.00  0.00     0.005 C 
ENDBRANCH  25  26
ENDBRANCH   1  25
TORSDOF 7
ENDMDL
MODEL 3
REMARK VINA RESULT: -6.818462589      2.420      5.277
REMARK  7 active torsions:
REMARK  status: ('A' for Active; 'I' for Inactive)
REMARK    1  A    between atoms: C2_2  and  C3_3 
REMARK    2  A    between atoms: C3_3  and  C4_4 
REMARK    3  A    between atoms: C6_9  and  C7_10 
REMARK    4  A    between atoms: C7_10  and  C8_11 
REMARK    5  A    between atoms: C14_17  and  O2_18 
REMARK    6  A    between atoms: C15_20  and  N2_21 
REMARK    7  A    between atoms: N3_23  and  N4_25 
ROOT
HETATM    1  C4  UNL     1      51.174  50.608  19.157  1.00  0.00     0.104 C 
HETATM    2  C5  UNL     1      49.830  51.150  18.850  1.00  0.00     0.224 C 
HETATM    3  O1  UNL     1      48.888  50.330  18.621  1.00  0.00    -0.273 OA
HETATM    4  N1  UNL     1      49.646  52.548  18.825  1.00  0.00    -0.353 N 
ATOM      5  H1  UNL     1      48.738  52.940  19.076  1.00  0.00     0.163 HD
HETATM    6  C6  UNL     1      50.701  53.415  18.456  1.00  0.00     0.115 C 
HETATM    7  C14 UNL     1      52.088  52.916  18.753  1.00  0.00     0.165 C 
HETATM    8  C15 UNL     1      52.273  51.449  18.560  1.00  0.00     0.144 C 
ENDROOT
BRANCH   6   9
HETATM    9  C7  UNL     1      50.603  54.809  19.020  1.00  0.00     0.032 C 
BRANCH   9  10
HETATM   10  C8  UNL     1      49.581  54.986  20.085  1.00  0.00    -0.013 C 
HETATM   11  C9  UNL     1      48.367  55.742  19.632  1.00  0.00     0.005 C 
HETATM   12  C10 UNL     1      48.043  56.931  20.492  1.00  0.00     0.000 C 
HETATM   13  C11 UNL     1      49.296  57.771  20.584  1.00  0.00     0.000 C 
HETATM   14  C12 UNL     1      50.295  57.021  21.395  1.00  0.00     0.000 C 
HETATM   15  C13 UNL     1      50.231  55.545  21.307  1.00  0.00     0.005 C 
ENDBRANCH   9  10
ENDBRANCH   6   9
BRANCH   7  16
HETATM   16  O2  UNL     1      52.503  53.259  20.051  1.00  0.00    -0.391 OA
ATOM     17  H2  UNL     1      52.554  52.499  20.619  1.00  0.00     0.210 HD
ENDBRANCH   7  16
BRANCH   8  18
HETATM   18  N2  UNL     1      52.460  51.153  17.161  1.00  0.00    -0.314 N 
HETATM   19  N3  UNL     1      51.625  50.479  16.482  1.00  0.00    -0.250 N 
ATOM     20  H3  UNL     1      50.786  50.134  16.950  1.00  0.00     0.207 HD
ATOM     21  H2  UNL     1      53.300  51.500  16.697  1.00  0.00     0.182 HD
BRANCH  19  22
HETATM   22  N4  UNL     1      51.792  50.188  15.139  1.00  0.00    -0.323 N 
HETATM   23  C16 UNL     1      50.763  49.693  14.262  1.00  0.00     0.172 C 
HETATM   24  C17 UNL     1      53.124  50.400  14.566  1.00  0.00     0.172 C 
ENDBRANCH  19  22
ENDBRANCH   8  18
BRANCH   1  25
HETATM   25  C3  UNL     1      51.333  50.433  20.644  1.00  0.00     0.016 C 
BRANCH  25  26
HETATM   26  C2  UNL     1      50.346  49.430  21.200  1.00  0.00    -0.004 C 
HETATM   27  C1  UNL     1      50.742  48.012  20.854  1.00  0.00     0.005 C 
ENDBRANCH  25  26
ENDBRANCH   1  25
TORSDOF 7
ENDMDL
MODEL 4
REMARK VINA RESULT: -6.735129983      3.058      4.833
REMARK  7 active torsions:
REMARK  status: ('A' for Active; 'I' for Inactive)
REMARK    1  A    between atoms: C2_2  and  C3_3 
REMARK    2  A    between atoms: C3_3  and  C4_4 
REMARK    3  A    between atoms: C6_9  and  C7_10 
REMARK    4  A    between atoms: C7_10  and  C8_11 
REMARK    5  A    between atoms: C14_17  and  O2_18 
REMARK    6  A    between atoms: C15_20  and  N2_21 
REMARK    7  A    between atoms: N3_23  and  N4_25 
ROOT
HETATM    1  C4  UNL     1      50.430  55.684  20.309  1.00  0.00     0.104 C 
HETATM    2  C5  UNL     1      51.724  55.501  19.610  1.00  0.00     0.224 C 
HETATM    3  O1  UNL     1      52.259  56.513  19.059  1.00  0.00    -0.273 OA
HETATM    4  N1  UNL     1      52.311  54.219  19.583  1.00  0.00    -0.353 N 
ATOM      5  H1  UNL     1      53.327  54.133  19.546  1.00  0.00     0.163 HD
HETATM    6  C6  UNL     1      51.513  53.052  19.606  1.00  0.00     0.115 C 
HETATM    7  C14 UNL     1      50.190  53.181  20.311  1.00  0.00     0.165 C 
HETATM    8  C15 UNL     1      49.517  54.499  20.129  1.00  0.00     0.144 C 
ENDROOT
BRANCH   6   9
HETATM    9  C7  UNL     1      52.193  51.829  20.164  1.00  0.00     0.032 C 
BRANCH   9  10
HETATM   10  C8  UNL     1      52.097  50.613  19.314  1.00  0.00    -0.013 C 
HETATM   11  C9  UNL     1      51.280  50.812  18.072  1.00  0.00     0.005 C 
HETATM   12  C10 UNL     1      50.171  49.811  17.914  1.00  0.00     0.000 C 
HETATM   13  C11 UNL     1      49.366  49.831  19.193  1.00  0.00     0.000 C 
HETATM   14  C12 UNL     1      50.205  49.247  20.275  1.00  0.00     0.000 C 
HETATM   15  C13 UNL     1      51.665  49.456  20.153  1.00  0.00     0.005 C 
ENDBRANCH   9  10
ENDBRANCH   6   9
BRANCH   7  16
HETATM   16  O2  UNL     1      50.301  52.913  21.687  1.00  0.00    -0.391 OA
ATOM     17  H2  UNL     1      50.559  53.684  22.178  1.00  0.00     0.210 HD
ENDBRANCH   7  16
BRANCH   8  18
HETATM   18  N2  UNL     1      48.847  54.540  18.853  1.00  0.00    -0.314 N 
HETATM   19  N3  UNL     1      48.805  53.545  18.064  1.00  0.00    -0.250 N 
ATOM     20  H3  UNL     1      49.267  52.682  18.350  1.00  0.00     0.207 HD
ATOM     21  H2  UNL     1      48.386  55.406  18.573  1.00  0.00     0.182 HD
BRANCH  19  22
HETATM   22  N4  UNL     1      48.166  53.572  16.837  1.00  0.00    -0.323 N 
HETATM   23  C16 UNL     1      47.731  54.763  16.153  1.00  0.00     0.172 C 
HETATM   24  C17 UNL     1      47.911  52.287  16.182  1.00  0.00     0.172 C 
ENDBRANCH  19  22
ENDBRANCH   8  18
BRANCH   1  25
HETATM   25  C3  UNL     1      50.669  56.006  21.761  1.00  0.00     0.016 C 
BRANCH  25  26
HETATM   26  C2  UNL     1      50.369  57.457  22.070  1.00  0.00    -0.004 C 
HETATM   27  C1  UNL     1      48.964  57.833  21.653  1.00  0.00     0.005 C 
ENDBRANCH  25  26
ENDBRANCH   1  25
TORSDOF 7
ENDMDL
MODEL 5
REMARK VINA RESULT: -6.690502816      2.068      5.773
REMARK  7 active torsions:
REMARK  status: ('A' for Active; 'I' for Inactive)
REMARK    1  A    between atoms: C2_2  and  C3_3 
REMARK    2  A    between atoms: C3_3  and  C4_4 
REMARK    3  A    between atoms: C6_9  and  C7_10 
REMARK    4  A    between atoms: C7_10  and  C8_11 
REMARK    5  A    between atoms: C14_17  and  O2_18 
REMARK    6  A    between atoms: C15_20  and  N2_21 
REMARK    7  A    between atoms: N3_23  and  N4_25 
ROOT
HETATM    1  C4  UNL     1      50.594  50.866  18.781  1.00  0.00     0.104 C 
HETATM    2  C5  UNL     1      49.664  51.962  18.421  1.00  0.00     0.224 C 
HETATM    3  O1  UNL     1      48.553  51.657  17.884  1.00  0.00    -0.273 OA
HETATM    4  N1  UNL     1      50.041  53.294  18.686  1.00  0.00    -0.353 N 
ATOM      5  H1  UNL     1      49.323  53.989  18.890  1.00  0.00     0.163 HD
HETATM    6  C6  UNL     1      51.401  53.682  18.672  1.00  0.00     0.115 C 
HETATM    7  C14 UNL     1      52.389  52.608  19.037  1.00  0.00     0.165 C 
HETATM    8  C15 UNL     1      52.033  51.246  18.547  1.00  0.00     0.144 C 
ENDROOT
BRANCH   6   9
HETATM    9  C7  UNL     1      51.726  54.887  19.515  1.00  0.00     0.032 C 
BRANCH   9  10
HETATM   10  C8  UNL     1      50.743  55.186  20.589  1.00  0.00    -0.013 C 
HETATM   11  C9  UNL     1      49.848  56.350  20.278  1.00  0.00     0.005 C 
HETATM   12  C10 UNL     1      49.850  57.411  21.341  1.00  0.00     0.000 C 
HETATM   13  C11 UNL     1      51.291  57.790  21.593  1.00  0.00     0.000 C 
HETATM   14  C12 UNL     1      51.961  56.638  22.256  1.00  0.00     0.000 C 
HETATM   15  C13 UNL     1      51.456  55.294  21.897  1.00  0.00     0.005 C 
ENDBRANCH   9  10
ENDBRANCH   6   9
BRANCH   7  16
HETATM   16  O2  UNL     1      52.608  52.549  20.425  1.00  0.00    -0.391 OA
ATOM     17  H2  UNL     1      53.367  53.057  20.686  1.00  0.00     0.210 HD
ENDBRANCH   7  16
BRANCH   8  18
HETATM   18  N2  UNL     1      52.393  51.111  17.157  1.00  0.00    -0.314 N 
HETATM   19  N3  UNL     1      51.743  50.381  16.345  1.00  0.00    -0.250 N 
ATOM     20  H3  UNL     1      50.931  49.872  16.696  1.00  0.00     0.207 HD
ATOM     21  H2  UNL     1      53.205  51.623  16.812  1.00  0.00     0.182 HD
BRANCH  19  22
HETATM   22  N4  UNL     1      52.078  50.242  15.010  1.00  0.00    -0.323 N 
HETATM   23  C16 UNL     1      53.355  50.577  14.435  1.00  0.00     0.172 C 
HETATM   24  C17 UNL     1      51.051  49.711  14.110  1.00  0.00     0.172 C 
ENDBRANCH  19  22
ENDBRANCH   8  18
BRANCH   1  25
HETATM   25  C3  UNL     1      50.343  50.422  20.198  1.00  0.00     0.016 C 
BRANCH  25  26
HETATM   26  C2  UNL     1      50.022  48.945  20.274  1.00  0.00    -0.004 C 
HETATM   27  C1  UNL     1      49.353  48.458  19.007  1.00  0.00     0.005 C 
ENDBRANCH  25  26
ENDBRANCH   1  25
TORSDOF 7
ENDMDL
