MODEL 1
REMARK VINA RESULT: -5.833395215      0.000      0.000
REMARK  4 active torsions:
REMARK  status: ('A' for Active; 'I' for Inactive)
REMARK    1  A    between atoms: N1_1  and  N2_4 
REMARK    2  A    between atoms: N2_4  and  C1_6 
REMARK    3  A    between atoms: C3_12  and  C4_13 
REMARK       I    between atoms: C4_13  and  N5_15 
REMARK    4  A    between atoms: N5_15  and  N6_17 
ROOT
HETATM    1  C1  UNL     1      21.540  58.801   7.595  1.00  0.00     0.147 A 
HETATM    2  N3  UNL     1      22.178  59.623   6.717  1.00  0.00    -0.336 N 
ATOM      3  H3  UNL     1      23.168  59.510   6.499  1.00  0.00     0.168 HD
HETATM    4  C2  UNL     1      21.436  60.592   6.153  1.00  0.00     0.182 A 
HETATM    5  N4  UNL     1      20.142  60.754   6.427  1.00  0.00    -0.346 N 
ATOM      6  H4  UNL     1      19.636  61.509   5.965  1.00  0.00     0.167 HD
HETATM    7  C3  UNL     1      19.467  59.958   7.294  1.00  0.00     0.131 A 
HETATM    8  C5  UNL     1      20.203  58.956   7.887  1.00  0.00     0.124 A 
HETATM    9  N7  UNL     1      19.593  58.054   8.822  1.00  0.00    -0.096 NA
ENDROOT
BRANCH   7  10
HETATM   10  C4  UNL     1      18.070  60.128   7.595  1.00  0.00     0.288 C 
HETATM   11  O1  UNL     1      17.740  60.935   8.505  1.00  0.00    -0.264 OA
HETATM   12  N5  UNL     1      17.025  59.446   6.935  1.00  0.00    -0.271 N 
ATOM     13  H5  UNL     1      17.269  58.788   6.195  1.00  0.00     0.189 HD
BRANCH  12  14
HETATM   14  N6  UNL     1      15.675  59.624   7.241  1.00  0.00    -0.342 N 
ATOM     15  H62 UNL     1      15.444  59.868   8.204  1.00  0.00     0.176 HD
ATOM     16  H61 UNL     1      14.925  59.522   6.558  1.00  0.00     0.176 HD
ENDBRANCH  12  14
ENDBRANCH   7  10
BRANCH   1  17
HETATM   17  N2  UNL     1      22.254  57.881   8.127  1.00  0.00    -0.290 N 
ATOM     18  H2  UNL     1      22.996  58.167   8.765  1.00  0.00     0.188 HD
BRANCH  17  19
HETATM   19  N1  UNL     1      22.088  56.519   7.897  1.00  0.00    -0.344 N 
ATOM     20  H12 UNL     1      21.275  56.245   7.345  1.00  0.00     0.176 HD
ATOM     21  H11 UNL     1      22.717  55.793   8.240  1.00  0.00     0.176 HD
ENDBRANCH  17  19
ENDBRANCH   1  17
TORSDOF 4
ENDMDL
MODEL 2
REMARK VINA RESULT: -5.777176645      2.055      3.142
REMARK  4 active torsions:
REMARK  status: ('A' for Active; 'I' for Inactive)
REMARK    1  A    between atoms: N1_1  and  N2_4 
REMARK    2  A    between atoms: N2_4  and  C1_6 
REMARK    3  A    between atoms: C3_12  and  C4_13 
REMARK       I    between atoms: C4_13  and  N5_15 
REMARK    4  A    between atoms: N5_15  and  N6_17 
ROOT
HETATM    1  C1  UNL     1      19.605  57.649   8.093  1.00  0.00     0.147 A 
HETATM    2  N3  UNL     1      19.046  56.567   8.701  1.00  0.00    -0.336 N 
ATOM      3  H3  UNL     1      19.612  55.786   9.032  1.00  0.00     0.168 HD
HETATM    4  C2  UNL     1      17.709  56.582   8.844  1.00  0.00     0.182 A 
HETATM    5  N4  UNL     1      16.955  57.595   8.418  1.00  0.00    -0.346 N 
ATOM      6  H4  UNL     1      15.946  57.544   8.557  1.00  0.00     0.167 HD
HETATM    7  C3  UNL     1      17.470  58.691   7.808  1.00  0.00     0.131 A 
HETATM    8  C5  UNL     1      18.838  58.703   7.648  1.00  0.00     0.124 A 
HETATM    9  N7  UNL     1      19.493  59.812   7.015  1.00  0.00    -0.096 NA
ENDROOT
BRANCH   7  10
HETATM   10  C4  UNL     1      16.661  59.788   7.345  1.00  0.00     0.288 C 
HETATM   11  O1  UNL     1      15.644  59.537   6.644  1.00  0.00    -0.264 OA
HETATM   12  N5  UNL     1      16.927  61.146   7.622  1.00  0.00    -0.271 N 
ATOM     13  H5  UNL     1      17.745  61.373   8.187  1.00  0.00     0.189 HD
BRANCH  12  14
HETATM   14  N6  UNL     1      16.131  62.197   7.163  1.00  0.00    -0.342 N 
ATOM     15  H62 UNL     1      15.518  62.005   6.370  1.00  0.00     0.176 HD
ATOM     16  H61 UNL     1      16.136  63.129   7.577  1.00  0.00     0.176 HD
ENDBRANCH  12  14
ENDBRANCH   7  10
BRANCH   1  17
HETATM   17  N2  UNL     1      20.878  57.627   7.961  1.00  0.00    -0.290 N 
ATOM     18  H2  UNL     1      21.363  58.521   7.887  1.00  0.00     0.188 HD
BRANCH  17  19
HETATM   19  N1  UNL     1      21.647  56.469   7.913  1.00  0.00    -0.344 N 
ATOM     20  H12 UNL     1      21.723  56.008   7.007  1.00  0.00     0.176 HD
ATOM     21  H11 UNL     1      22.131  56.061   8.713  1.00  0.00     0.176 HD
ENDBRANCH  17  19
ENDBRANCH   1  17
TORSDOF 4
ENDMDL
MODEL 3
REMARK VINA RESULT: -5.752260013      1.887      3.033
REMARK  4 active torsions:
REMARK  status: ('A' for Active; 'I' for Inactive)
REMARK    1  A    between atoms: N1_1  and  N2_4 
REMARK    2  A    between atoms: N2_4  and  C1_6 
REMARK    3  A    between atoms: C3_12  and  C4_13 
REMARK       I    between atoms: C4_13  and  N5_15 
REMARK    4  A    between atoms: N5_15  and  N6_17 
ROOT
HETATM    1  C1  UNL     1      19.929  58.359   8.112  1.00  0.00     0.147 A 
HETATM    2  N3  UNL     1      19.548  57.148   8.605  1.00  0.00    -0.336 N 
ATOM      3  H3  UNL     1      20.229  56.465   8.937  1.00  0.00     0.168 HD
HETATM    4  C2  UNL     1      18.226  56.899   8.632  1.00  0.00     0.182 A 
HETATM    5  N4  UNL     1      17.323  57.781   8.202  1.00  0.00    -0.346 N 
ATOM      6  H4  UNL     1      16.336  57.530   8.249  1.00  0.00     0.167 HD
HETATM    7  C3  UNL     1      17.659  58.997   7.704  1.00  0.00     0.131 A 
HETATM    8  C5  UNL     1      19.007  59.278   7.665  1.00  0.00     0.124 A 
HETATM    9  N7  UNL     1      19.478  60.536   7.157  1.00  0.00    -0.096 NA
ENDROOT
BRANCH   7  10
HETATM   10  C4  UNL     1      16.689  59.952   7.238  1.00  0.00     0.288 C 
HETATM   11  O1  UNL     1      15.748  59.550   6.503  1.00  0.00    -0.264 OA
HETATM   12  N5  UNL     1      16.715  61.329   7.548  1.00  0.00    -0.271 N 
ATOM     13  H5  UNL     1      17.468  61.677   8.141  1.00  0.00     0.189 HD
BRANCH  12  14
HETATM   14  N6  UNL     1      15.765  62.241   7.086  1.00  0.00    -0.342 N 
ATOM     15  H62 UNL     1      16.085  62.957   6.433  1.00  0.00     0.176 HD
ATOM     16  H61 UNL     1      14.784  62.223   7.366  1.00  0.00     0.176 HD
ENDBRANCH  12  14
ENDBRANCH   7  10
BRANCH   1  17
HETATM   17  N2  UNL     1      21.189  58.588   8.090  1.00  0.00    -0.290 N 
ATOM     18  H2  UNL     1      21.776  57.952   7.551  1.00  0.00     0.188 HD
BRANCH  17  19
HETATM   19  N1  UNL     1      21.812  59.641   8.750  1.00  0.00    -0.344 N 
ATOM     20  H12 UNL     1      21.634  59.722   9.751  1.00  0.00     0.176 HD
ATOM     21  H11 UNL     1      22.424  60.324   8.303  1.00  0.00     0.176 HD
ENDBRANCH  17  19
ENDBRANCH   1  17
TORSDOF 4
ENDMDL
MODEL 4
REMARK VINA RESULT: -5.589855681      2.693      4.152
REMARK  4 active torsions:
REMARK  status: ('A' for Active; 'I' for Inactive)
REMARK    1  A    between atoms: N1_1  and  N2_4 
REMARK    2  A    between atoms: N2_4  and  C1_6 
REMARK    3  A    between atoms: C3_12  and  C4_13 
REMARK       I    between atoms: C4_13  and  N5_15 
REMARK    4  A    between atoms: N5_15  and  N6_17 
ROOT
HETATM    1  C1  UNL     1      17.482  58.290   8.128  1.00  0.00     0.147 A 
HETATM    2  N3  UNL     1      16.327  57.599   8.331  1.00  0.00    -0.336 N 
ATOM      3  H3  UNL     1      16.315  56.582   8.402  1.00  0.00     0.168 HD
HETATM    4  C2  UNL     1      15.201  58.327   8.434  1.00  0.00     0.182 A 
HETATM    5  N4  UNL     1      15.198  59.658   8.344  1.00  0.00    -0.346 N 
ATOM      6  H4  UNL     1      14.310  60.150   8.431  1.00  0.00     0.167 HD
HETATM    7  C3  UNL     1      16.325  60.385   8.142  1.00  0.00     0.131 A 
HETATM    8  C5  UNL     1      17.494  59.664   8.033  1.00  0.00     0.124 A 
HETATM    9  N7  UNL     1      18.748  60.329   7.818  1.00  0.00    -0.096 NA
ENDROOT
BRANCH   7  10
HETATM   10  C4  UNL     1      16.329  61.821   8.043  1.00  0.00     0.288 C 
HETATM   11  O1  UNL     1      16.425  62.500   9.100  1.00  0.00    -0.264 OA
HETATM   12  N5  UNL     1      16.231  62.535   6.830  1.00  0.00    -0.271 N 
ATOM     13  H5  UNL     1      16.152  62.005   5.962  1.00  0.00     0.189 HD
BRANCH  12  14
HETATM   14  N6  UNL     1      16.235  63.928   6.754  1.00  0.00    -0.342 N 
ATOM     15  H62 UNL     1      15.332  64.400   6.798  1.00  0.00     0.176 HD
ATOM     16  H61 UNL     1      17.085  64.484   6.659  1.00  0.00     0.176 HD
ENDBRANCH  12  14
ENDBRANCH   7  10
BRANCH   1  17
HETATM   17  N2  UNL     1      18.549  57.589   8.032  1.00  0.00    -0.290 N 
ATOM     18  H2  UNL     1      18.616  56.932   7.254  1.00  0.00     0.188 HD
BRANCH  17  19
HETATM   19  N1  UNL     1      19.623  57.659   8.912  1.00  0.00    -0.344 N 
ATOM     20  H12 UNL     1      20.532  57.884   8.508  1.00  0.00     0.176 HD
ATOM     21  H11 UNL     1      19.559  57.502   9.918  1.00  0.00     0.176 HD
ENDBRANCH  17  19
ENDBRANCH   1  17
TORSDOF 4
ENDMDL
MODEL 5
REMARK VINA RESULT: -5.504455438      3.311      5.236
REMARK  4 active torsions:
REMARK  status: ('A' for Active; 'I' for Inactive)
REMARK    1  A    between atoms: N1_1  and  N2_4 
REMARK    2  A    between atoms: N2_4  and  C1_6 
REMARK    3  A    between atoms: C3_12  and  C4_13 
REMARK       I    between atoms: C4_13  and  N5_15 
REMARK    4  A    between atoms: N5_15  and  N6_17 
ROOT
HETATM    1  C1  UNL     1      16.992  58.536   8.086  1.00  0.00     0.147 A 
HETATM    2  N3  UNL     1      18.205  58.585   7.469  1.00  0.00    -0.336 N 
ATOM      3  H3  UNL     1      18.328  59.037   6.563  1.00  0.00     0.168 HD
HETATM    4  C2  UNL     1      19.233  58.007   8.116  1.00  0.00     0.182 A 
HETATM    5  N4  UNL     1      19.089  57.413   9.300  1.00  0.00    -0.346 N 
ATOM      6  H4  UNL     1      19.909  56.993   9.738  1.00  0.00     0.167 HD
HETATM    7  C3  UNL     1      17.901  57.341   9.950  1.00  0.00     0.131 A 
HETATM    8  C5  UNL     1      16.830  57.925   9.309  1.00  0.00     0.124 A 
HETATM    9  N7  UNL     1      15.524  57.910   9.904  1.00  0.00    -0.096 NA
ENDROOT
BRANCH   7  10
HETATM   10  C4  UNL     1      17.739  56.700  11.228  1.00  0.00     0.288 C 
HETATM   11  O1  UNL     1      18.044  57.341  12.270  1.00  0.00    -0.264 OA
HETATM   12  N5  UNL     1      17.257  55.385  11.405  1.00  0.00    -0.271 N 
ATOM     13  H5  UNL     1      17.004  54.849  10.575  1.00  0.00     0.189 HD
BRANCH  12  14
HETATM   14  N6  UNL     1      17.108  54.780  12.653  1.00  0.00    -0.342 N 
ATOM     15  H62 UNL     1      17.253  55.366  13.475  1.00  0.00     0.176 HD
ATOM     16  H61 UNL     1      16.866  53.797  12.776  1.00  0.00     0.176 HD
ENDBRANCH  12  14
ENDBRANCH   7  10
BRANCH   1  17
HETATM   17  N2  UNL     1      16.020  59.089   7.463  1.00  0.00    -0.290 N 
ATOM     18  H2  UNL     1      15.074  58.890   7.790  1.00  0.00     0.188 HD
BRANCH  17  19
HETATM   19  N1  UNL     1      16.162  59.941   6.374  1.00  0.00    -0.344 N 
ATOM     20  H12 UNL     1      17.079  60.366   6.243  1.00  0.00     0.176 HD
ATOM     21  H11 UNL     1      15.419  60.162   5.710  1.00  0.00     0.176 HD
ENDBRANCH  17  19
ENDBRANCH   1  17
TORSDOF 4
ENDMDL
