MODEL 1
REMARK VINA RESULT: -6.294028035      0.000      0.000
REMARK  2 active torsions:
REMARK  status: ('A' for Active; 'I' for Inactive)
REMARK    1  A    between atoms: N1_1  and  C1_4 
REMARK    2  A    between atoms: C2_7  and  N3_8 
ROOT
HETATM    1  C1  UNL     1      20.060  57.843   7.674  1.00  0.00     0.694 A 
HETATM    2  N2  UNL     1      18.788  58.209   7.839  1.00  0.00    -0.021 N 
ATOM      3  H2  UNL     1      18.180  57.635   8.423  1.00  0.00     0.203 HD
HETATM    4  C2  UNL     1      18.278  59.330   7.249  1.00  0.00     0.723 A 
HETATM    5  N7  UNL     1      19.121  60.048   6.494  1.00  0.00    -0.138 N 
ATOM      6  H7  UNL     1      18.763  60.890   6.042  1.00  0.00     0.189 HD
HETATM    7  C4  UNL     1      20.414  59.721   6.297  1.00  0.00     0.352 A 
HETATM    8  O1  UNL     1      21.184  60.416   5.580  1.00  0.00    -0.246 OA
HETATM    9  N8  UNL     1      20.868  58.592   6.909  1.00  0.00    -0.141 N 
ATOM     10  H8  UNL     1      21.841  58.310   6.784  1.00  0.00     0.189 HD
ENDROOT
BRANCH   4  11
HETATM   11  N3  UNL     1      16.916  59.692   7.445  1.00  0.00    -0.039 N 
HETATM   12  N4  UNL     1      15.833  59.647   6.679  1.00  0.00     0.005 NA
HETATM   13  N5  UNL     1      15.101  60.162   7.667  1.00  0.00    -0.254 N 
HETATM   14  C3  UNL     1      16.209  60.208   8.453  1.00  0.00     0.243 A 
ATOM     15  H5  UNL     1      14.119  60.415   7.785  1.00  0.00     0.187 HD
HETATM   16  N6  UNL     1      16.404  60.646   9.781  1.00  0.00    -0.060 NA
ENDBRANCH   4  11
BRANCH   1  17
HETATM   17  N1  UNL     1      20.474  56.777   8.259  1.00  0.00    -0.234 N 
ATOM     18  H12 UNL     1      19.960  56.351   9.031  1.00  0.00     0.174 HD
ATOM     19  H11 UNL     1      21.342  56.349   7.938  1.00  0.00     0.174 HD
ENDBRANCH   1  17
TORSDOF 2
ENDMDL
MODEL 2
REMARK VINA RESULT: -6.224093484      1.019      1.574
REMARK  2 active torsions:
REMARK  status: ('A' for Active; 'I' for Inactive)
REMARK    1  A    between atoms: N1_1  and  C1_4 
REMARK    2  A    between atoms: C2_7  and  N3_8 
ROOT
HETATM    1  C1  UNL     1      20.879  57.673   7.477  1.00  0.00     0.694 A 
HETATM    2  N2  UNL     1      19.671  57.845   8.014  1.00  0.00    -0.021 N 
ATOM      3  H2  UNL     1      19.339  57.178   8.711  1.00  0.00     0.203 HD
HETATM    4  C2  UNL     1      18.866  58.889   7.659  1.00  0.00     0.723 A 
HETATM    5  N7  UNL     1      19.350  59.736   6.741  1.00  0.00    -0.138 N 
ATOM      6  H7  UNL     1      18.767  60.525   6.459  1.00  0.00     0.189 HD
HETATM    7  C4  UNL     1      20.564  59.606   6.169  1.00  0.00     0.352 A 
HETATM    8  O1  UNL     1      20.994  60.420   5.306  1.00  0.00    -0.246 OA
HETATM    9  N8  UNL     1      21.324  58.546   6.561  1.00  0.00    -0.141 N 
ATOM     10  H8  UNL     1      22.249  58.413   6.150  1.00  0.00     0.189 HD
ENDROOT
BRANCH   4  11
HETATM   11  N3  UNL     1      17.582  59.044   8.252  1.00  0.00    -0.039 N 
HETATM   12  N4  UNL     1      17.119  58.923   9.490  1.00  0.00     0.005 NA
HETATM   13  N5  UNL     1      15.893  59.242   9.074  1.00  0.00    -0.254 N 
HETATM   14  C3  UNL     1      16.365  59.367   7.806  1.00  0.00     0.243 A 
ATOM     15  H5  UNL     1      14.982  59.347   9.521  1.00  0.00     0.187 HD
HETATM   16  N6  UNL     1      15.727  59.706   6.593  1.00  0.00    -0.060 NA
ENDBRANCH   4  11
BRANCH   1  17
HETATM   17  N1  UNL     1      21.584  56.668   7.857  1.00  0.00    -0.234 N 
ATOM     18  H12 UNL     1      21.180  55.739   7.973  1.00  0.00     0.174 HD
ATOM     19  H11 UNL     1      22.576  56.812   8.048  1.00  0.00     0.174 HD
ENDBRANCH   1  17
TORSDOF 2
ENDMDL
MODEL 3
REMARK VINA RESULT: -6.154693547      2.409      5.349
REMARK  2 active torsions:
REMARK  status: ('A' for Active; 'I' for Inactive)
REMARK    1  A    between atoms: N1_1  and  C1_4 
REMARK    2  A    between atoms: C2_7  and  N3_8 
ROOT
HETATM    1  C1  UNL     1      18.082  59.017   7.418  1.00  0.00     0.694 A 
HETATM    2  N2  UNL     1      19.373  59.133   7.104  1.00  0.00    -0.021 N 
ATOM      3  H2  UNL     1      19.675  59.922   6.532  1.00  0.00     0.203 HD
HETATM    4  C2  UNL     1      20.302  58.226   7.526  1.00  0.00     0.723 A 
HETATM    5  N7  UNL     1      19.852  57.210   8.275  1.00  0.00    -0.138 N 
ATOM      6  H7  UNL     1      20.528  56.518   8.602  1.00  0.00     0.189 HD
HETATM    7  C4  UNL     1      18.559  57.048   8.620  1.00  0.00     0.352 A 
HETATM    8  O1  UNL     1      18.164  56.081   9.326  1.00  0.00    -0.246 OA
HETATM    9  N8  UNL     1      17.676  57.984   8.170  1.00  0.00    -0.141 N 
ATOM     10  H8  UNL     1      16.688  57.896   8.409  1.00  0.00     0.189 HD
ENDROOT
BRANCH   4  11
HETATM   11  N3  UNL     1      21.672  58.378   7.173  1.00  0.00    -0.039 N 
HETATM   12  N4  UNL     1      22.331  59.220   6.386  1.00  0.00     0.005 NA
HETATM   13  N5  UNL     1      23.481  58.612   6.682  1.00  0.00    -0.254 N 
HETATM   14  C3  UNL     1      22.807  57.750   7.489  1.00  0.00     0.243 A 
ATOM     15  H5  UNL     1      24.457  58.740   6.415  1.00  0.00     0.187 HD
HETATM   16  N6  UNL     1      23.244  56.670   8.285  1.00  0.00    -0.060 NA
ENDBRANCH   4  11
BRANCH   1  17
HETATM   17  N1  UNL     1      17.262  59.908   6.987  1.00  0.00    -0.234 N 
ATOM     18  H12 UNL     1      16.408  59.658   6.487  1.00  0.00     0.174 HD
ATOM     19  H11 UNL     1      17.478  60.891   7.152  1.00  0.00     0.174 HD
ENDBRANCH   1  17
TORSDOF 2
ENDMDL
MODEL 4
REMARK VINA RESULT: -6.152035928      1.746      2.037
REMARK  2 active torsions:
REMARK  status: ('A' for Active; 'I' for Inactive)
REMARK    1  A    between atoms: N1_1  and  C1_4 
REMARK    2  A    between atoms: C2_7  and  N3_8 
ROOT
HETATM    1  C1  UNL     1      21.393  57.439   7.627  1.00  0.00     0.694 A 
HETATM    2  N2  UNL     1      20.187  57.354   8.189  1.00  0.00    -0.021 N 
ATOM      3  H2  UNL     1      20.018  56.636   8.893  1.00  0.00     0.203 HD
HETATM    4  C2  UNL     1      19.171  58.200   7.848  1.00  0.00     0.723 A 
HETATM    5  N7  UNL     1      19.446  59.125   6.918  1.00  0.00    -0.138 N 
ATOM      6  H7  UNL     1      18.703  59.770   6.647  1.00  0.00     0.189 HD
HETATM    7  C4  UNL     1      20.648  59.253   6.322  1.00  0.00     0.352 A 
HETATM    8  O1  UNL     1      20.878  60.133   5.449  1.00  0.00    -0.246 OA
HETATM    9  N8  UNL     1      21.624  58.380   6.700  1.00  0.00    -0.141 N 
ATOM     10  H8  UNL     1      22.547  58.444   6.271  1.00  0.00     0.189 HD
ENDROOT
BRANCH   4  11
HETATM   11  N3  UNL     1      17.895  58.083   8.466  1.00  0.00    -0.039 N 
HETATM   12  N4  UNL     1      16.648  58.242   8.040  1.00  0.00     0.005 NA
HETATM   13  N5  UNL     1      16.184  57.936   9.252  1.00  0.00    -0.254 N 
HETATM   14  C3  UNL     1      17.460  57.772   9.690  1.00  0.00     0.243 A 
ATOM     15  H5  UNL     1      15.258  57.858   9.674  1.00  0.00     0.187 HD
HETATM   16  N6  UNL     1      17.984  57.415  10.951  1.00  0.00    -0.060 NA
ENDBRANCH   4  11
BRANCH   1  17
HETATM   17  N1  UNL     1      22.303  56.610   7.995  1.00  0.00    -0.234 N 
ATOM     18  H12 UNL     1      22.077  55.668   8.316  1.00  0.00     0.174 HD
ATOM     19  H11 UNL     1      23.278  56.909   7.965  1.00  0.00     0.174 HD
ENDBRANCH   1  17
TORSDOF 2
ENDMDL
MODEL 5
REMARK VINA RESULT: -6.099505800      2.738      3.248
REMARK  2 active torsions:
REMARK  status: ('A' for Active; 'I' for Inactive)
REMARK    1  A    between atoms: N1_1  and  C1_4 
REMARK    2  A    between atoms: C2_7  and  N3_8 
ROOT
HETATM    1  C1  UNL     1      19.143  57.251   8.360  1.00  0.00     0.694 A 
HETATM    2  N2  UNL     1      18.499  58.349   7.963  1.00  0.00    -0.021 N 
ATOM      3  H2  UNL     1      19.029  59.106   7.531  1.00  0.00     0.203 HD
HETATM    4  C2  UNL     1      17.150  58.490   8.117  1.00  0.00     0.723 A 
HETATM    5  N7  UNL     1      16.501  57.466   8.689  1.00  0.00    -0.138 N 
ATOM      6  H7  UNL     1      15.491  57.547   8.816  1.00  0.00     0.189 HD
HETATM    7  C4  UNL     1      17.105  56.335   9.107  1.00  0.00     0.352 A 
HETATM    8  O1  UNL     1      16.469  55.388   9.643  1.00  0.00    -0.246 OA
HETATM    9  N8  UNL     1      18.453  56.251   8.928  1.00  0.00    -0.141 N 
ATOM     10  H8  UNL     1      18.947  55.412   9.232  1.00  0.00     0.189 HD
ENDROOT
BRANCH   4  11
HETATM   11  N3  UNL     1      16.492  59.674   7.683  1.00  0.00    -0.039 N 
HETATM   12  N4  UNL     1      15.718  59.969   6.646  1.00  0.00     0.005 NA
HETATM   13  N5  UNL     1      15.604  61.226   7.075  1.00  0.00    -0.254 N 
HETATM   14  C3  UNL     1      16.397  60.926   8.137  1.00  0.00     0.243 A 
ATOM     15  H5  UNL     1      15.124  62.064   6.744  1.00  0.00     0.187 HD
HETATM   16  N6  UNL     1      16.859  61.708   9.218  1.00  0.00    -0.060 NA
ENDBRANCH   4  11
BRANCH   1  17
HETATM   17  N1  UNL     1      20.414  57.187   8.184  1.00  0.00    -0.234 N 
ATOM     18  H12 UNL     1      21.045  57.906   8.538  1.00  0.00     0.174 HD
ATOM     19  H11 UNL     1      20.796  56.390   7.674  1.00  0.00     0.174 HD
ENDBRANCH   1  17
TORSDOF 2
ENDMDL
