MODEL 1
REMARK VINA RESULT: -5.921235907      0.000      0.000
REMARK  4 active torsions:
REMARK  status: ('A' for Active; 'I' for Inactive)
REMARK    1  A    between atoms: N1_1  and  N2_4 
REMARK    2  A    between atoms: N2_4  and  C1_6 
REMARK    3  A    between atoms: N5_11  and  C2_12 
REMARK    4  A    between atoms: N6_15  and  N7_16 
ROOT
HETATM    1  C1  UNL     1      14.957  53.479  14.262  1.00  0.00     0.207 A 
HETATM    2  N3  UNL     1      16.239  53.125  14.408  1.00  0.00    -0.265 N 
ATOM      3  H3  UNL     1      16.630  52.573  15.172  1.00  0.00     0.190 HD
HETATM    4  N4  UNL     1      16.900  53.619  13.388  1.00  0.00    -0.232 N 
ATOM      5  H4  UNL     1      17.903  53.504  13.241  1.00  0.00     0.209 HD
HETATM    6  N5  UNL     1      16.109  54.277  12.587  1.00  0.00    -0.212 N 
HETATM    7  C5  UNL     1      14.878  54.202  13.116  1.00  0.00     0.314 A 
HETATM    8  O1  UNL     1      13.841  54.731  12.606  1.00  0.00    -0.262 OA
ENDROOT
BRANCH   6   9
HETATM    9  C2  UNL     1      16.451  54.953  11.378  1.00  0.00     0.150 C 
HETATM   10  C3  UNL     1      17.280  55.973  11.374  1.00  0.00     0.065 A 
HETATM   11  C4  UNL     1      18.042  57.056  10.689  1.00  0.00     0.208 A 
HETATM   12  N6  UNL     1      18.151  56.891  12.112  1.00  0.00    -0.294 N 
BRANCH  12  13
HETATM   13  N7  UNL     1      18.730  57.354  13.296  1.00  0.00    -0.342 N 
ATOM     14  H72 UNL     1      18.831  58.137  13.942  1.00  0.00     0.177 HD
ATOM     15  H71 UNL     1      19.316  57.225  14.120  1.00  0.00     0.177 HD
ENDBRANCH  12  13
ENDBRANCH   6   9
BRANCH   1  16
HETATM   16  N2  UNL     1      13.966  53.201  15.042  1.00  0.00    -0.286 N 
ATOM     17  H2  UNL     1      13.734  52.222  15.208  1.00  0.00     0.188 HD
BRANCH  16  18
HETATM   18  N1  UNL     1      13.202  54.183  15.664  1.00  0.00    -0.343 N 
ATOM     19  H12 UNL     1      13.621  55.107  15.778  1.00  0.00     0.176 HD
ATOM     20  H11 UNL     1      12.255  54.012  16.001  1.00  0.00     0.176 HD
ENDBRANCH  16  18
ENDBRANCH   1  16
TORSDOF 4
ENDMDL
MODEL 2
REMARK VINA RESULT: -5.651724325      7.876     10.285
REMARK  4 active torsions:
REMARK  status: ('A' for Active; 'I' for Inactive)
REMARK    1  A    between atoms: N1_1  and  N2_4 
REMARK    2  A    between atoms: N2_4  and  C1_6 
REMARK    3  A    between atoms: N5_11  and  C2_12 
REMARK    4  A    between atoms: N6_15  and  N7_16 
ROOT
HETATM    1  C1  UNL     1      15.132  64.060   6.826  1.00  0.00     0.207 A 
HETATM    2  N3  UNL     1      16.449  63.887   6.672  1.00  0.00    -0.265 N 
ATOM      3  H3  UNL     1      17.123  64.599   6.387  1.00  0.00     0.190 HD
HETATM    4  N4  UNL     1      16.716  62.634   6.956  1.00  0.00    -0.232 N 
ATOM      5  H4  UNL     1      17.649  62.221   6.922  1.00  0.00     0.209 HD
HETATM    6  N5  UNL     1      15.635  61.985   7.286  1.00  0.00    -0.212 N 
HETATM    7  C5  UNL     1      14.622  62.863   7.213  1.00  0.00     0.314 A 
HETATM    8  O1  UNL     1      13.408  62.585   7.467  1.00  0.00    -0.262 OA
ENDROOT
BRANCH   6   9
HETATM    9  C2  UNL     1      15.516  60.613   7.659  1.00  0.00     0.150 C 
HETATM   10  C3  UNL     1      16.544  59.796   7.602  1.00  0.00     0.065 A 
HETATM   11  C4  UNL     1      17.184  58.460   7.774  1.00  0.00     0.208 A 
HETATM   12  N6  UNL     1      17.960  59.572   7.300  1.00  0.00    -0.294 N 
BRANCH  12  13
HETATM   13  N7  UNL     1      19.212  60.017   6.871  1.00  0.00    -0.342 N 
ATOM     14  H72 UNL     1      19.981  60.668   7.028  1.00  0.00     0.177 HD
ATOM     15  H71 UNL     1      20.011  59.980   6.238  1.00  0.00     0.177 HD
ENDBRANCH  12  13
ENDBRANCH   6   9
BRANCH   1  16
HETATM   16  N2  UNL     1      14.450  65.142   6.649  1.00  0.00    -0.286 N 
ATOM     17  H2  UNL     1      13.644  65.316   7.249  1.00  0.00     0.188 HD
BRANCH  16  18
HETATM   18  N1  UNL     1      14.770  66.080   5.673  1.00  0.00    -0.343 N 
ATOM     19  H12 UNL     1      14.367  65.953   4.744  1.00  0.00     0.176 HD
ATOM     20  H11 UNL     1      15.383  66.875   5.853  1.00  0.00     0.176 HD
ENDBRANCH  16  18
ENDBRANCH   1  16
TORSDOF 4
ENDMDL
MODEL 3
REMARK VINA RESULT: -5.623934609      1.689      5.038
REMARK  4 active torsions:
REMARK  status: ('A' for Active; 'I' for Inactive)
REMARK    1  A    between atoms: N1_1  and  N2_4 
REMARK    2  A    between atoms: N2_4  and  C1_6 
REMARK    3  A    between atoms: N5_11  and  C2_12 
REMARK    4  A    between atoms: N6_15  and  N7_16 
ROOT
HETATM    1  C1  UNL     1      16.799  54.476  12.445  1.00  0.00     0.207 A 
HETATM    2  N3  UNL     1      17.259  53.684  13.420  1.00  0.00    -0.265 N 
ATOM      3  H3  UNL     1      18.236  53.450  13.598  1.00  0.00     0.190 HD
HETATM    4  N4  UNL     1      16.222  53.263  14.106  1.00  0.00    -0.232 N 
ATOM      5  H4  UNL     1      16.279  52.641  14.912  1.00  0.00     0.209 HD
HETATM    6  N5  UNL     1      15.111  53.745  13.623  1.00  0.00    -0.212 N 
HETATM    7  C5  UNL     1      15.449  54.513  12.575  1.00  0.00     0.314 A 
HETATM    8  O1  UNL     1      14.619  55.149  11.852  1.00  0.00    -0.262 OA
ENDROOT
BRANCH   6   9
HETATM    9  C2  UNL     1      13.782  53.520  14.091  1.00  0.00     0.150 C 
HETATM   10  C3  UNL     1      13.549  53.108  15.318  1.00  0.00     0.065 A 
HETATM   11  C4  UNL     1      12.638  52.699  16.426  1.00  0.00     0.208 A 
HETATM   12  N6  UNL     1      14.060  52.708  16.631  1.00  0.00    -0.294 N 
BRANCH  12  13
HETATM   13  N7  UNL     1      15.107  52.474  17.525  1.00  0.00    -0.342 N 
ATOM     14  H72 UNL     1      16.056  52.723  17.806  1.00  0.00     0.177 HD
ATOM     15  H71 UNL     1      15.515  51.989  18.324  1.00  0.00     0.177 HD
ENDBRANCH  12  13
ENDBRANCH   6   9
BRANCH   1  16
HETATM   16  N2  UNL     1      17.482  55.098  11.543  1.00  0.00    -0.286 N 
ATOM     17  H2  UNL     1      18.104  54.558  10.942  1.00  0.00     0.188 HD
BRANCH  16  18
HETATM   18  N1  UNL     1      17.402  56.474  11.357  1.00  0.00    -0.343 N 
ATOM     19  H12 UNL     1      17.546  57.071  12.172  1.00  0.00     0.176 HD
ATOM     20  H11 UNL     1      17.209  56.897  10.449  1.00  0.00     0.176 HD
ENDBRANCH  16  18
ENDBRANCH   1  16
TORSDOF 4
ENDMDL
MODEL 4
REMARK VINA RESULT: -5.608368624      3.774      6.752
REMARK  4 active torsions:
REMARK  status: ('A' for Active; 'I' for Inactive)
REMARK    1  A    between atoms: N1_1  and  N2_4 
REMARK    2  A    between atoms: N2_4  and  C1_6 
REMARK    3  A    between atoms: N5_11  and  C2_12 
REMARK    4  A    between atoms: N6_15  and  N7_16 
ROOT
HETATM    1  C1  UNL     1      18.512  58.905   7.691  1.00  0.00     0.207 A 
HETATM    2  N3  UNL     1      19.673  58.339   8.042  1.00  0.00    -0.265 N 
ATOM      3  H3  UNL     1      20.606  58.701   7.843  1.00  0.00     0.190 HD
HETATM    4  N4  UNL     1      19.390  57.234   8.689  1.00  0.00    -0.232 N 
ATOM      5  H4  UNL     1      20.087  56.597   9.076  1.00  0.00     0.209 HD
HETATM    6  N5  UNL     1      18.101  57.054   8.775  1.00  0.00    -0.212 N 
HETATM    7  C5  UNL     1      17.526  58.096   8.153  1.00  0.00     0.314 A 
HETATM    8  O1  UNL     1      16.271  58.261   8.036  1.00  0.00    -0.262 OA
ENDROOT
BRANCH   6   9
HETATM    9  C2  UNL     1      17.406  55.976   9.401  1.00  0.00     0.150 C 
HETATM   10  C3  UNL     1      17.409  55.826  10.707  1.00  0.00     0.065 A 
HETATM   11  C4  UNL     1      17.018  55.114  11.958  1.00  0.00     0.208 A 
HETATM   12  N6  UNL     1      17.839  56.291  12.028  1.00  0.00    -0.294 N 
BRANCH  12  13
HETATM   13  N7  UNL     1      18.524  57.183  12.855  1.00  0.00    -0.342 N 
ATOM     14  H72 UNL     1      19.007  58.079  12.923  1.00  0.00     0.177 HD
ATOM     15  H71 UNL     1      18.909  57.456  13.759  1.00  0.00     0.177 HD
ENDBRANCH  12  13
ENDBRANCH   6   9
BRANCH   1  16
HETATM   16  N2  UNL     1      18.334  60.005   7.039  1.00  0.00    -0.286 N 
ATOM     17  H2  UNL     1      18.942  60.208   6.246  1.00  0.00     0.188 HD
BRANCH  16  18
HETATM   18  N1  UNL     1      17.345  60.925   7.375  1.00  0.00    -0.343 N 
ATOM     19  H12 UNL     1      17.104  61.020   8.362  1.00  0.00     0.176 HD
ATOM     20  H11 UNL     1      16.865  61.495   6.679  1.00  0.00     0.176 HD
ENDBRANCH  16  18
ENDBRANCH   1  16
TORSDOF 4
ENDMDL
MODEL 5
REMARK VINA RESULT: -5.599221168      3.929      7.177
REMARK  4 active torsions:
REMARK  status: ('A' for Active; 'I' for Inactive)
REMARK    1  A    between atoms: N1_1  and  N2_4 
REMARK    2  A    between atoms: N2_4  and  C1_6 
REMARK    3  A    between atoms: N5_11  and  C2_12 
REMARK    4  A    between atoms: N6_15  and  N7_16 
ROOT
HETATM    1  C1  UNL     1      15.124  52.299  15.518  1.00  0.00     0.207 A 
HETATM    2  N3  UNL     1      14.819  52.586  16.788  1.00  0.00    -0.265 N 
ATOM      3  H3  UNL     1      15.291  53.265  17.384  1.00  0.00     0.190 HD
HETATM    4  N4  UNL     1      13.800  51.831  17.126  1.00  0.00    -0.232 N 
ATOM      5  H4  UNL     1      13.355  51.840  18.045  1.00  0.00     0.209 HD
HETATM    6  N5  UNL     1      13.429  51.068  16.136  1.00  0.00    -0.212 N 
HETATM    7  C5  UNL     1      14.248  51.345  15.110  1.00  0.00     0.314 A 
HETATM    8  O1  UNL     1      14.186  50.790  13.969  1.00  0.00    -0.262 OA
ENDROOT
BRANCH   6   9
HETATM    9  C2  UNL     1      12.366  50.117  16.113  1.00  0.00     0.150 C 
HETATM   10  C3  UNL     1      11.198  50.382  16.656  1.00  0.00     0.065 A 
HETATM   11  C4  UNL     1       9.795  50.027  17.015  1.00  0.00     0.208 A 
HETATM   12  N6  UNL     1      10.326  51.312  17.377  1.00  0.00    -0.294 N 
BRANCH  12  13
HETATM   13  N7  UNL     1      10.080  52.538  17.998  1.00  0.00    -0.342 N 
ATOM     14  H72 UNL     1      10.459  53.448  18.259  1.00  0.00     0.177 HD
ATOM     15  H71 UNL     1       9.472  53.187  18.497  1.00  0.00     0.177 HD
ENDBRANCH  12  13
ENDBRANCH   6   9
BRANCH   1  16
HETATM   16  N2  UNL     1      16.062  52.813  14.794  1.00  0.00    -0.286 N 
ATOM     17  H2  UNL     1      17.031  52.603  15.029  1.00  0.00     0.188 HD
BRANCH  16  18
HETATM   18  N1  UNL     1      15.803  53.642  13.707  1.00  0.00    -0.343 N 
ATOM     19  H12 UNL     1      15.516  54.602  13.902  1.00  0.00     0.176 HD
ATOM     20  H11 UNL     1      15.889  53.326  12.742  1.00  0.00     0.176 HD
ENDBRANCH  16  18
ENDBRANCH   1  16
TORSDOF 4
ENDMDL
