MODEL 1
REMARK VINA RESULT: -5.670310063      0.000      0.000
REMARK  0 active torsions:
REMARK  status: ('A' for Active; 'I' for Inactive)
REMARK       I    between atoms: N1_1  and  C1_5 
REMARK       I    between atoms: C1_5  and  N2_6 
REMARK       I    between atoms: C1_5  and  N3_10 
ROOT
HETATM    1  N1  UNL     1      21.571  59.579   8.574  1.00  0.00    -0.032 N 
ATOM      2  H11 UNL     1      21.247  59.715   9.532  1.00  0.00     0.279 HD
ATOM      3  H12 UNL     1      22.429  60.099   8.394  1.00  0.00     0.279 HD
ATOM      4  H13 UNL     1      21.926  58.633   8.431  1.00  0.00     0.279 HD
HETATM    5  C1  UNL     1      20.541  59.909   7.610  1.00  0.00     0.494 C 
HETATM    6  N2  UNL     1      21.003  59.715   6.242  1.00  0.00    -0.032 N 
ATOM      7  H21 UNL     1      20.278  59.948   5.563  1.00  0.00     0.279 HD
ATOM      8  H22 UNL     1      21.358  58.769   6.100  1.00  0.00     0.279 HD
ATOM      9  H23 UNL     1      21.862  60.235   6.063  1.00  0.00     0.279 HD
HETATM   10  N3  UNL     1      19.393  59.086   7.908  1.00  0.00    -0.198 N 
HETATM   11  C2  UNL     1      18.164  59.632   7.943  1.00  0.00     0.337 A 
HETATM   12  O1  UNL     1      17.995  60.877   7.714  1.00  0.00    -0.246 OA
HETATM   13  N4  UNL     1      17.136  58.815   8.227  1.00  0.00    -0.260 N 
ATOM     14  H4  UNL     1      16.196  59.210   8.259  1.00  0.00     0.175 HD
HETATM   15  C3  UNL     1      17.286  57.499   8.471  1.00  0.00     0.332 A 
HETATM   16  O2  UNL     1      16.274  56.770   8.735  1.00  0.00    -0.246 OA
HETATM   17  N5  UNL     1      18.524  56.971   8.432  1.00  0.00    -0.260 N 
ATOM     18  H5  UNL     1      18.669  55.977   8.612  1.00  0.00     0.175 HD
HETATM   19  C4  UNL     1      19.571  57.776   8.150  1.00  0.00     0.337 A 
HETATM   20  O3  UNL     1      20.734  57.249   8.119  1.00  0.00    -0.246 OA
ENDROOT
TORSDOF 0
ENDMDL
MODEL 2
REMARK VINA RESULT: -5.632149920      1.230      3.565
REMARK  0 active torsions:
REMARK  status: ('A' for Active; 'I' for Inactive)
REMARK       I    between atoms: N1_1  and  C1_5 
REMARK       I    between atoms: C1_5  and  N2_6 
REMARK       I    between atoms: C1_5  and  N3_10 
ROOT
HETATM    1  N1  UNL     1      16.949  60.959   8.491  1.00  0.00    -0.032 N 
ATOM      2  H11 UNL     1      17.264  60.833   9.453  1.00  0.00     0.279 HD
ATOM      3  H12 UNL     1      16.129  61.563   8.445  1.00  0.00     0.279 HD
ATOM      4  H13 UNL     1      17.601  61.534   7.958  1.00  0.00     0.279 HD
HETATM    5  C1  UNL     1      16.707  59.689   7.838  1.00  0.00     0.494 C 
HETATM    6  N2  UNL     1      16.257  59.868   6.464  1.00  0.00    -0.032 N 
ATOM      7  H21 UNL     1      16.086  58.973   6.005  1.00  0.00     0.279 HD
ATOM      8  H22 UNL     1      16.909  60.443   5.931  1.00  0.00     0.279 HD
ATOM      9  H23 UNL     1      15.437  60.472   6.418  1.00  0.00     0.279 HD
HETATM   10  N3  UNL     1      17.934  58.930   7.904  1.00  0.00    -0.198 N 
HETATM   11  C2  UNL     1      17.906  57.636   8.270  1.00  0.00     0.337 A 
HETATM   12  O1  UNL     1      16.803  57.062   8.561  1.00  0.00    -0.246 OA
HETATM   13  N4  UNL     1      19.081  56.984   8.313  1.00  0.00    -0.260 N 
ATOM     14  H4  UNL     1      19.081  56.002   8.588  1.00  0.00     0.175 HD
HETATM   15  C3  UNL     1      20.258  57.565   8.010  1.00  0.00     0.332 A 
HETATM   16  O2  UNL     1      21.342  56.898   8.068  1.00  0.00    -0.246 OA
HETATM   17  N5  UNL     1      20.265  58.861   7.646  1.00  0.00    -0.260 N 
ATOM     18  H5  UNL     1      21.140  59.328   7.410  1.00  0.00     0.175 HD
HETATM   19  C4  UNL     1      19.095  59.535   7.598  1.00  0.00     0.337 A 
HETATM   20  O3  UNL     1      19.131  60.763   7.250  1.00  0.00    -0.246 OA
ENDROOT
TORSDOF 0
ENDMDL
MODEL 3
REMARK VINA RESULT: -5.630709891      1.393      2.688
REMARK  0 active torsions:
REMARK  status: ('A' for Active; 'I' for Inactive)
REMARK       I    between atoms: N1_1  and  C1_5 
REMARK       I    between atoms: C1_5  and  N2_6 
REMARK       I    between atoms: C1_5  and  N3_10 
ROOT
HETATM    1  N1  UNL     1      22.009  59.545   6.434  1.00  0.00    -0.032 N 
ATOM      2  H11 UNL     1      21.668  59.006   5.638  1.00  0.00     0.279 HD
ATOM      3  H12 UNL     1      23.026  59.629   6.418  1.00  0.00     0.279 HD
ATOM      4  H13 UNL     1      21.768  60.533   6.346  1.00  0.00     0.279 HD
HETATM    5  C1  UNL     1      21.543  58.997   7.691  1.00  0.00     0.494 C 
HETATM    6  N2  UNL     1      22.030  59.767   8.827  1.00  0.00    -0.032 N 
ATOM      7  H21 UNL     1      21.701  59.380   9.712  1.00  0.00     0.279 HD
ATOM      8  H22 UNL     1      21.788  60.754   8.739  1.00  0.00     0.279 HD
ATOM      9  H23 UNL     1      23.046  59.850   8.811  1.00  0.00     0.279 HD
HETATM   10  N3  UNL     1      20.100  58.972   7.641  1.00  0.00    -0.198 N 
HETATM   11  C2  UNL     1      19.431  57.873   8.036  1.00  0.00     0.337 A 
HETATM   12  O1  UNL     1      20.057  56.845   8.460  1.00  0.00    -0.246 OA
HETATM   13  N4  UNL     1      18.090  57.912   7.965  1.00  0.00    -0.260 N 
ATOM     14  H4  UNL     1      17.565  57.089   8.260  1.00  0.00     0.175 HD
HETATM   15  C3  UNL     1      17.405  58.984   7.523  1.00  0.00     0.332 A 
HETATM   16  O2  UNL     1      16.132  58.965   7.477  1.00  0.00    -0.246 OA
HETATM   17  N5  UNL     1      18.093  60.074   7.131  1.00  0.00    -0.260 N 
ATOM     18  H5  UNL     1      17.602  60.901   6.793  1.00  0.00     0.175 HD
HETATM   19  C4  UNL     1      19.442  60.056   7.194  1.00  0.00     0.337 A 
HETATM   20  O3  UNL     1      20.068  61.102   6.816  1.00  0.00    -0.246 OA
ENDROOT
TORSDOF 0
ENDMDL
MODEL 4
REMARK VINA RESULT: -5.496724660      0.489      2.532
REMARK  0 active torsions:
REMARK  status: ('A' for Active; 'I' for Inactive)
REMARK       I    between atoms: N1_1  and  C1_5 
REMARK       I    between atoms: C1_5  and  N2_6 
REMARK       I    between atoms: C1_5  and  N3_10 
ROOT
HETATM    1  N1  UNL     1      20.744  60.078   6.322  1.00  0.00    -0.032 N 
ATOM      2  H11 UNL     1      20.383  59.516   5.551  1.00  0.00     0.279 HD
ATOM      3  H12 UNL     1      21.582  60.590   6.048  1.00  0.00     0.279 HD
ATOM      4  H13 UNL     1      20.133  60.870   6.524  1.00  0.00     0.279 HD
HETATM    5  C1  UNL     1      20.977  59.275   7.505  1.00  0.00     0.494 C 
HETATM    6  N2  UNL     1      21.493  60.077   8.606  1.00  0.00    -0.032 N 
ATOM      7  H21 UNL     1      21.657  59.512   9.439  1.00  0.00     0.279 HD
ATOM      8  H22 UNL     1      20.882  60.869   8.808  1.00  0.00     0.279 HD
ATOM      9  H23 UNL     1      22.331  60.589   8.332  1.00  0.00     0.279 HD
HETATM   10  N3  UNL     1      19.727  58.639   7.847  1.00  0.00    -0.198 N 
HETATM   11  C2  UNL     1      19.700  57.330   8.157  1.00  0.00     0.337 A 
HETATM   12  O1  UNL     1      20.772  56.636   8.156  1.00  0.00    -0.246 OA
HETATM   13  N4  UNL     1      18.506  56.796   8.466  1.00  0.00    -0.260 N 
ATOM     14  H4  UNL     1      18.465  55.805   8.704  1.00  0.00     0.175 HD
HETATM   15  C3  UNL     1      17.361  57.506   8.476  1.00  0.00     0.332 A 
HETATM   16  O2  UNL     1      16.256  56.946   8.776  1.00  0.00    -0.246 OA
HETATM   17  N5  UNL     1      17.409  58.814   8.162  1.00  0.00    -0.260 N 
ATOM     18  H5  UNL     1      16.558  59.377   8.162  1.00  0.00     0.175 HD
HETATM   19  C4  UNL     1      18.599  59.370   7.848  1.00  0.00     0.337 A 
HETATM   20  O3  UNL     1      18.614  60.613   7.554  1.00  0.00    -0.246 OA
ENDROOT
TORSDOF 0
ENDMDL
MODEL 5
REMARK VINA RESULT: -5.452502325      9.088     10.079
REMARK  0 active torsions:
REMARK  status: ('A' for Active; 'I' for Inactive)
REMARK       I    between atoms: N1_1  and  C1_5 
REMARK       I    between atoms: C1_5  and  N2_6 
REMARK       I    between atoms: C1_5  and  N3_10 
ROOT
HETATM    1  N1  UNL     1       8.740  58.893   6.386  1.00  0.00    -0.032 N 
ATOM      2  H11 UNL     1       7.826  59.228   6.694  1.00  0.00     0.279 HD
ATOM      3  H12 UNL     1       8.664  58.003   5.895  1.00  0.00     0.279 HD
ATOM      4  H13 UNL     1       9.108  59.464   5.625  1.00  0.00     0.279 HD
HETATM    5  C1  UNL     1       9.677  58.811   7.488  1.00  0.00     0.494 C 
HETATM    6  N2  UNL     1      10.981  58.333   7.049  1.00  0.00    -0.032 N 
ATOM      7  H21 UNL     1      11.641  58.276   7.825  1.00  0.00     0.279 HD
ATOM      8  H22 UNL     1      11.350  58.904   6.287  1.00  0.00     0.279 HD
ATOM      9  H23 UNL     1      10.905  57.443   6.558  1.00  0.00     0.279 HD
HETATM   10  N3  UNL     1       9.761  60.125   8.081  1.00  0.00    -0.198 N 
HETATM   11  C2  UNL     1       9.708  60.265   9.418  1.00  0.00     0.337 A 
HETATM   12  O1  UNL     1       9.586  59.246  10.177  1.00  0.00    -0.246 OA
HETATM   13  N4  UNL     1       9.790  61.513   9.909  1.00  0.00    -0.260 N 
ATOM     14  H4  UNL     1       9.752  61.640  10.919  1.00  0.00     0.175 HD
HETATM   15  C3  UNL     1       9.921  62.605   9.130  1.00  0.00     0.332 A 
HETATM   16  O2  UNL     1       9.994  63.765   9.651  1.00  0.00    -0.246 OA
HETATM   17  N5  UNL     1       9.971  62.444   7.794  1.00  0.00    -0.260 N 
ATOM     18  H5  UNL     1      10.070  63.252   7.179  1.00  0.00     0.175 HD
HETATM   19  C4  UNL     1       9.889  61.198   7.280  1.00  0.00     0.337 A 
HETATM   20  O3  UNL     1       9.939  61.075   6.010  1.00  0.00    -0.246 OA
ENDROOT
TORSDOF 0
ENDMDL
