MODEL 1
REMARK VINA RESULT: -8.463710743      0.000      0.000
REMARK  6 active torsions:
REMARK  status: ('A' for Active; 'I' for Inactive)
REMARK    1  A    between atoms: C2_2  and  C3_3 
REMARK    2  A    between atoms: C3_3  and  N1_4 
REMARK    3  A    between atoms: N3_10  and  C6_12 
REMARK    4  A    between atoms: C6_12  and  C7_13 
REMARK    5  A    between atoms: C7_13  and  C8_14 
REMARK    6  A    between atoms: C8_14  and  O2_15 
ROOT
HETATM    1  N1  UNL     1       1.002  -0.406  26.226  1.00  0.00    -0.280 N 
HETATM    2  C4  UNL     1       0.272  -1.502  26.014  1.00  0.00     0.330 A 
HETATM    3  O1  UNL     1      -0.282  -2.024  26.997  1.00  0.00    -0.246 OA
HETATM    4  N2  UNL     1       0.132  -2.029  24.803  1.00  0.00    -0.292 N 
ATOM      5  H2  UNL     1      -0.438  -2.868  24.693  1.00  0.00     0.172 HD
HETATM    6  C5  UNL     1       0.730  -1.481  23.691  1.00  0.00     0.136 A 
HETATM    7  N3  UNL     1       0.504  -2.094  22.633  1.00  0.00    -0.374 N 
ATOM      8  H3  UNL     1       0.935  -1.707  21.794  1.00  0.00     0.161 HD
HETATM    9  C9  UNL     1       1.477  -0.367  23.881  1.00  0.00     0.131 A 
HETATM   10  C10 UNL     1       1.608   0.174  25.181  1.00  0.00     0.145 A 
HETATM   11  N4  UNL     1       2.384   1.257  25.106  1.00  0.00    -0.325 N 
ATOM     12  H4  UNL     1       2.657   1.857  25.884  1.00  0.00     0.169 HD
HETATM   13  C11 UNL     1       2.742   1.416  23.824  1.00  0.00     0.123 A 
HETATM   14  C12 UNL     1       3.529   2.375  23.228  1.00  0.00     0.005 A 
HETATM   15  C13 UNL     1       4.125   3.448  24.060  1.00  0.00     0.054 C 
HETATM   16  C14 UNL     1       3.752   2.327  21.881  1.00  0.00     0.016 A 
HETATM   17  C15 UNL     1       4.588   3.323  21.168  1.00  0.00     0.069 C 
HETATM   18  N5  UNL     1       3.200   1.349  21.167  1.00  0.00    -0.349 N 
ATOM     19  H5  UNL     1       3.367   1.315  20.161  1.00  0.00     0.167 HD
HETATM   20  C16 UNL     1       2.410   0.383  21.746  1.00  0.00     0.086 A 
HETATM   21  C17 UNL     1       1.893  -0.604  20.787  1.00  0.00     0.089 C 
HETATM   22  N6  UNL     1       2.198   0.432  23.039  1.00  0.00    -0.280 N 
ENDROOT
BRANCH   7  23
HETATM   23  C6  UNL     1      -0.282  -3.271  22.442  1.00  0.00     0.123 C 
BRANCH  23  24
HETATM   24  C7  UNL     1      -1.340  -3.153  21.381  1.00  0.00     0.045 C 
BRANCH  24  25
HETATM   25  C8  UNL     1      -1.369  -1.763  20.789  1.00  0.00     0.165 C 
BRANCH  25  26
HETATM   26  O2  UNL     1      -2.269  -0.995  21.529  1.00  0.00    -0.401 OA
ATOM     27  H2  UNL     1      -1.855  -0.164  21.729  1.00  0.00     0.209 HD
ENDBRANCH  25  26
ENDBRANCH  24  25
ENDBRANCH  23  24
ENDBRANCH   7  23
BRANCH   1  28
HETATM   28  C3  UNL     1       1.128   0.135  27.556  1.00  0.00     0.162 C 
BRANCH  28  29
HETATM   29  C2  UNL     1       0.069   1.146  27.838  1.00  0.00    -0.017 C 
HETATM   30  C1  UNL     1       0.399   2.428  27.934  1.00  0.00     0.008 C 
ENDBRANCH  28  29
ENDBRANCH   1  28
TORSDOF 6
ENDMDL
MODEL 2
REMARK VINA RESULT: -8.369787000      2.051      6.241
REMARK  6 active torsions:
REMARK  status: ('A' for Active; 'I' for Inactive)
REMARK    1  A    between atoms: C2_2  and  C3_3 
REMARK    2  A    between atoms: C3_3  and  N1_4 
REMARK    3  A    between atoms: N3_10  and  C6_12 
REMARK    4  A    between atoms: C6_12  and  C7_13 
REMARK    5  A    between atoms: C7_13  and  C8_14 
REMARK    6  A    between atoms: C8_14  and  O2_15 
ROOT
HETATM    1  N1  UNL     1      -0.513  -1.535  22.283  1.00  0.00    -0.280 N 
HETATM    2  C4  UNL     1       0.460  -1.077  21.493  1.00  0.00     0.330 A 
HETATM    3  O1  UNL     1       0.428  -1.399  20.293  1.00  0.00    -0.246 OA
HETATM    4  N2  UNL     1       1.435  -0.304  21.958  1.00  0.00    -0.292 N 
ATOM      5  H2  UNL     1       2.155   0.022  21.313  1.00  0.00     0.172 HD
HETATM    6  C5  UNL     1       1.505   0.073  23.280  1.00  0.00     0.136 A 
HETATM    7  N3  UNL     1       2.479   0.795  23.556  1.00  0.00    -0.374 N 
ATOM      8  H3  UNL     1       2.554   1.089  24.529  1.00  0.00     0.161 HD
HETATM    9  C9  UNL     1       0.528  -0.380  24.101  1.00  0.00     0.131 A 
HETATM   10  C10 UNL     1      -0.499  -1.201  23.581  1.00  0.00     0.145 A 
HETATM   11  N4  UNL     1      -1.330  -1.513  24.577  1.00  0.00    -0.325 N 
ATOM     12  H4  UNL     1      -2.165  -2.094  24.504  1.00  0.00     0.169 HD
HETATM   13  C11 UNL     1      -0.870  -0.926  25.691  1.00  0.00     0.123 A 
HETATM   14  C12 UNL     1      -1.364  -0.938  26.976  1.00  0.00     0.005 A 
HETATM   15  C13 UNL     1      -2.602  -1.699  27.273  1.00  0.00     0.054 C 
HETATM   16  C14 UNL     1      -0.710  -0.252  27.959  1.00  0.00     0.016 A 
HETATM   17  C15 UNL     1      -1.180  -0.217  29.366  1.00  0.00     0.069 C 
HETATM   18  N5  UNL     1       0.398   0.419  27.654  1.00  0.00    -0.349 N 
ATOM     19  H5  UNL     1       0.885   0.932  28.390  1.00  0.00     0.167 HD
HETATM   20  C16 UNL     1       0.906   0.443  26.376  1.00  0.00     0.086 A 
HETATM   21  C17 UNL     1       2.132   1.243  26.245  1.00  0.00     0.089 C 
HETATM   22  N6  UNL     1       0.275  -0.218  25.434  1.00  0.00    -0.280 N 
ENDROOT
BRANCH   7  23
HETATM   23  C6  UNL     1       3.508   1.266  22.684  1.00  0.00     0.123 C 
BRANCH  23  24
HETATM   24  C7  UNL     1       3.366   2.703  22.265  1.00  0.00     0.045 C 
BRANCH  24  25
HETATM   25  C8  UNL     1       3.187   2.822  20.769  1.00  0.00     0.165 C 
BRANCH  25  26
HETATM   26  O2  UNL     1       2.699   1.605  20.293  1.00  0.00    -0.401 OA
ATOM     27  H2  UNL     1       1.789   1.529  20.554  1.00  0.00     0.209 HD
ENDBRANCH  25  26
ENDBRANCH  24  25
ENDBRANCH  23  24
ENDBRANCH   7  23
BRANCH   1  28
HETATM   28  C3  UNL     1      -1.553  -2.372  21.739  1.00  0.00     0.162 C 
BRANCH  28  29
HETATM   29  C2  UNL     1      -1.161  -3.810  21.750  1.00  0.00    -0.017 C 
HETATM   30  C1  UNL     1      -1.893  -4.692  21.081  1.00  0.00     0.008 C 
ENDBRANCH  28  29
ENDBRANCH   1  28
TORSDOF 6
ENDMDL
MODEL 3
REMARK VINA RESULT: -8.270022106      2.059      4.969
REMARK  6 active torsions:
REMARK  status: ('A' for Active; 'I' for Inactive)
REMARK    1  A    between atoms: C2_2  and  C3_3 
REMARK    2  A    between atoms: C3_3  and  N1_4 
REMARK    3  A    between atoms: N3_10  and  C6_12 
REMARK    4  A    between atoms: C6_12  and  C7_13 
REMARK    5  A    between atoms: C7_13  and  C8_14 
REMARK    6  A    between atoms: C8_14  and  O2_15 
ROOT
HETATM    1  N1  UNL     1       2.274   0.536  22.873  1.00  0.00    -0.280 N 
HETATM    2  C4  UNL     1       1.810   0.135  21.688  1.00  0.00     0.330 A 
HETATM    3  O1  UNL     1       2.505   0.377  20.686  1.00  0.00    -0.246 OA
HETATM    4  N2  UNL     1       0.651  -0.501  21.566  1.00  0.00    -0.292 N 
ATOM      5  H2  UNL     1       0.341  -0.788  20.638  1.00  0.00     0.172 HD
HETATM    6  C5  UNL     1      -0.146  -0.787  22.652  1.00  0.00     0.136 A 
HETATM    7  N3  UNL     1      -1.200  -1.384  22.371  1.00  0.00    -0.374 N 
ATOM      8  H3  UNL     1      -1.808  -1.608  23.158  1.00  0.00     0.161 HD
HETATM    9  C9  UNL     1       0.303  -0.389  23.866  1.00  0.00     0.131 A 
HETATM   10  C10 UNL     1       1.542   0.286  23.967  1.00  0.00     0.145 A 
HETATM   11  N4  UNL     1       1.759   0.569  25.253  1.00  0.00    -0.325 N 
ATOM     12  H4  UNL     1       2.573   1.054  25.633  1.00  0.00     0.169 HD
HETATM   13  C11 UNL     1       0.717   0.104  25.956  1.00  0.00     0.123 A 
HETATM   14  C12 UNL     1       0.463   0.144  27.308  1.00  0.00     0.005 A 
HETATM   15  C13 UNL     1       1.444   0.786  28.215  1.00  0.00     0.054 C 
HETATM   16  C14 UNL     1      -0.687  -0.408  27.796  1.00  0.00     0.016 A 
HETATM   17  C15 UNL     1      -1.032  -0.405  29.240  1.00  0.00     0.069 C 
HETATM   18  N5  UNL     1      -1.544  -0.977  26.952  1.00  0.00    -0.349 N 
ATOM     19  H5  UNL     1      -2.402  -1.389  27.319  1.00  0.00     0.167 HD
HETATM   20  C16 UNL     1      -1.306  -1.025  25.598  1.00  0.00     0.086 A 
HETATM   21  C17 UNL     1      -2.369  -1.698  24.838  1.00  0.00     0.089 C 
HETATM   22  N6  UNL     1      -0.200  -0.494  25.132  1.00  0.00    -0.280 N 
ENDROOT
BRANCH   7  23
HETATM   23  C6  UNL     1      -1.668  -1.796  21.086  1.00  0.00     0.123 C 
BRANCH  23  24
HETATM   24  C7  UNL     1      -1.510  -3.264  20.803  1.00  0.00     0.045 C 
BRANCH  24  25
HETATM   25  C8  UNL     1      -2.029  -3.616  19.428  1.00  0.00     0.165 C 
BRANCH  25  26
HETATM   26  O2  UNL     1      -1.687  -2.579  18.558  1.00  0.00    -0.401 OA
ATOM     27  H2  UNL     1      -1.350  -2.964  17.758  1.00  0.00     0.209 HD
ENDBRANCH  25  26
ENDBRANCH  24  25
ENDBRANCH  23  24
ENDBRANCH   7  23
BRANCH   1  28
HETATM   28  C3  UNL     1       3.537   1.223  22.961  1.00  0.00     0.162 C 
BRANCH  28  29
HETATM   29  C2  UNL     1       3.353   2.701  23.045  1.00  0.00    -0.017 C 
HETATM   30  C1  UNL     1       4.119   3.409  23.865  1.00  0.00     0.008 C 
ENDBRANCH  28  29
ENDBRANCH   1  28
TORSDOF 6
ENDMDL
MODEL 4
REMARK VINA RESULT: -8.247726892      1.677      4.605
REMARK  6 active torsions:
REMARK  status: ('A' for Active; 'I' for Inactive)
REMARK    1  A    between atoms: C2_2  and  C3_3 
REMARK    2  A    between atoms: C3_3  and  N1_4 
REMARK    3  A    between atoms: N3_10  and  C6_12 
REMARK    4  A    between atoms: C6_12  and  C7_13 
REMARK    5  A    between atoms: C7_13  and  C8_14 
REMARK    6  A    between atoms: C8_14  and  O2_15 
ROOT
HETATM    1  N1  UNL     1       0.255  -2.301  22.233  1.00  0.00    -0.280 N 
HETATM    2  C4  UNL     1      -0.156  -3.026  23.275  1.00  0.00     0.330 A 
HETATM    3  O1  UNL     1      -0.819  -4.050  23.038  1.00  0.00    -0.246 OA
HETATM    4  N2  UNL     1       0.127  -2.680  24.526  1.00  0.00    -0.292 N 
ATOM      5  H2  UNL     1      -0.209  -3.269  25.288  1.00  0.00     0.172 HD
HETATM    6  C5  UNL     1       0.859  -1.554  24.828  1.00  0.00     0.136 A 
HETATM    7  N3  UNL     1       1.034  -1.368  26.045  1.00  0.00    -0.374 N 
ATOM      8  H3  UNL     1       1.574  -0.540  26.295  1.00  0.00     0.161 HD
HETATM    9  C9  UNL     1       1.287  -0.802  23.786  1.00  0.00     0.131 A 
HETATM   10  C10 UNL     1       0.973  -1.193  22.464  1.00  0.00     0.145 A 
HETATM   11  N4  UNL     1       1.502  -0.298  21.627  1.00  0.00    -0.325 N 
ATOM     12  H4  UNL     1       1.440  -0.317  20.609  1.00  0.00     0.169 HD
HETATM   13  C11 UNL     1       2.128   0.630  22.363  1.00  0.00     0.123 A 
HETATM   14  C12 UNL     1       2.825   1.754  21.980  1.00  0.00     0.005 A 
HETATM   15  C13 UNL     1       2.956   2.072  20.537  1.00  0.00     0.054 C 
HETATM   16  C14 UNL     1       3.385   2.559  22.930  1.00  0.00     0.016 A 
HETATM   17  C15 UNL     1       4.150   3.786  22.595  1.00  0.00     0.069 C 
HETATM   18  N5  UNL     1       3.246   2.241  24.214  1.00  0.00    -0.349 N 
ATOM     19  H5  UNL     1       3.665   2.844  24.922  1.00  0.00     0.167 HD
HETATM   20  C16 UNL     1       2.553   1.123  24.616  1.00  0.00     0.086 A 
HETATM   21  C17 UNL     1       2.518   0.945  26.074  1.00  0.00     0.089 C 
HETATM   22  N6  UNL     1       2.017   0.351  23.700  1.00  0.00    -0.280 N 
ENDROOT
BRANCH   7  23
HETATM   23  C6  UNL     1       0.575  -2.165  27.138  1.00  0.00     0.123 C 
BRANCH  23  24
HETATM   24  C7  UNL     1      -0.491  -1.520  27.979  1.00  0.00     0.045 C 
BRANCH  24  25
HETATM   25  C8  UNL     1      -1.872  -1.848  27.460  1.00  0.00     0.165 C 
BRANCH  25  26
HETATM   26  O2  UNL     1      -2.115  -1.049  26.342  1.00  0.00    -0.401 OA
ATOM     27  H2  UNL     1      -3.043  -1.095  26.142  1.00  0.00     0.209 HD
ENDBRANCH  25  26
ENDBRANCH  24  25
ENDBRANCH  23  24
ENDBRANCH   7  23
BRANCH   1  28
HETATM   28  C3  UNL     1      -0.071  -2.712  20.891  1.00  0.00     0.162 C 
BRANCH  28  29
HETATM   29  C2  UNL     1      -1.411  -2.207  20.475  1.00  0.00    -0.017 C 
HETATM   30  C1  UNL     1      -1.968  -2.672  19.364  1.00  0.00     0.008 C 
ENDBRANCH  28  29
ENDBRANCH   1  28
TORSDOF 6
ENDMDL
MODEL 5
REMARK VINA RESULT: -8.235028653      1.786      4.882
REMARK  6 active torsions:
REMARK  status: ('A' for Active; 'I' for Inactive)
REMARK    1  A    between atoms: C2_2  and  C3_3 
REMARK    2  A    between atoms: C3_3  and  N1_4 
REMARK    3  A    between atoms: N3_10  and  C6_12 
REMARK    4  A    between atoms: C6_12  and  C7_13 
REMARK    5  A    between atoms: C7_13  and  C8_14 
REMARK    6  A    between atoms: C8_14  and  O2_15 
ROOT
HETATM    1  N1  UNL     1       0.089  -2.405  21.874  1.00  0.00    -0.280 N 
HETATM    2  C4  UNL     1      -0.391  -3.235  22.801  1.00  0.00     0.330 A 
HETATM    3  O1  UNL     1      -1.059  -4.209  22.412  1.00  0.00    -0.246 OA
HETATM    4  N2  UNL     1      -0.172  -3.043  24.097  1.00  0.00    -0.292 N 
ATOM      5  H2  UNL     1      -0.560  -3.707  24.766  1.00  0.00     0.172 HD
HETATM    6  C5  UNL     1       0.562  -1.977  24.566  1.00  0.00     0.136 A 
HETATM    7  N3  UNL     1       0.674  -1.937  25.803  1.00  0.00    -0.374 N 
ATOM      8  H3  UNL     1       1.214  -1.156  26.176  1.00  0.00     0.161 HD
HETATM    9  C9  UNL     1       1.060  -1.120  23.642  1.00  0.00     0.131 A 
HETATM   10  C10 UNL     1       0.812  -1.349  22.269  1.00  0.00     0.145 A 
HETATM   11  N4  UNL     1       1.402  -0.376  21.571  1.00  0.00    -0.325 N 
ATOM     12  H4  UNL     1       1.396  -0.276  20.556  1.00  0.00     0.169 HD
HETATM   13  C11 UNL     1       2.003   0.446  22.442  1.00  0.00     0.123 A 
HETATM   14  C12 UNL     1       2.740   1.589  22.229  1.00  0.00     0.005 A 
HETATM   15  C13 UNL     1       2.956   2.068  20.842  1.00  0.00     0.054 C 
HETATM   16  C14 UNL     1       3.261   2.266  23.294  1.00  0.00     0.016 A 
HETATM   17  C15 UNL     1       4.065   3.505  23.146  1.00  0.00     0.069 C 
HETATM   18  N5  UNL     1       3.047   1.806  24.524  1.00  0.00    -0.349 N 
ATOM     19  H5  UNL     1       3.437   2.312  25.318  1.00  0.00     0.167 HD
HETATM   20  C16 UNL     1       2.313   0.665  24.755  1.00  0.00     0.086 A 
HETATM   21  C17 UNL     1       2.195   0.321  26.180  1.00  0.00     0.089 C 
HETATM   22  N6  UNL     1       1.814   0.017  23.730  1.00  0.00    -0.280 N 
ENDROOT
BRANCH   7  23
HETATM   23  C6  UNL     1       0.141  -2.843  26.770  1.00  0.00     0.123 C 
BRANCH  23  24
HETATM   24  C7  UNL     1       1.175  -3.546  27.606  1.00  0.00     0.045 C 
BRANCH  24  25
HETATM   25  C8  UNL     1       1.686  -4.788  26.914  1.00  0.00     0.165 C 
BRANCH  25  26
HETATM   26  O2  UNL     1       0.735  -5.182  25.972  1.00  0.00    -0.401 OA
ATOM     27  H2  UNL     1      -0.053  -4.672  26.116  1.00  0.00     0.209 HD
ENDBRANCH  25  26
ENDBRANCH  24  25
ENDBRANCH  23  24
ENDBRANCH   7  23
BRANCH   1  28
HETATM   28  C3  UNL     1      -0.171  -2.650  20.477  1.00  0.00     0.162 C 
BRANCH  28  29
HETATM   29  C2  UNL     1      -1.570  -2.288  20.109  1.00  0.00    -0.017 C 
HETATM   30  C1  UNL     1      -2.104  -2.788  19.002  1.00  0.00     0.008 C 
ENDBRANCH  28  29
ENDBRANCH   1  28
TORSDOF 6
ENDMDL
