MODEL 1
REMARK VINA RESULT: -7.635426262      0.000      0.000
REMARK  4 active torsions:
REMARK  status: ('A' for Active; 'I' for Inactive)
REMARK    1  A    between atoms: C3_3  and  C4_4 
REMARK    2  A    between atoms: N1_5  and  N2_7 
REMARK    3  A    between atoms: C8_15  and  N6_16 
REMARK    4  A    between atoms: N7_22  and  C13_23 
ROOT
HETATM    1  C1  UNL     1       2.167  -1.435  20.587  1.00  0.00     0.069 C 
HETATM    2  C2  UNL     1       1.587  -1.344  21.951  1.00  0.00     0.024 A 
HETATM    3  C3  UNL     1       1.931  -0.416  22.892  1.00  0.00     0.028 A 
HETATM    4  C6  UNL     1       1.176  -0.688  24.003  1.00  0.00     0.102 A 
HETATM    5  C7  UNL     1       1.206   0.028  25.245  1.00  0.00     0.104 C 
HETATM    6  N5  UNL     1       1.227   0.591  26.267  1.00  0.00    -0.191 NA
HETATM    7  C8  UNL     1       0.371  -1.807  23.697  1.00  0.00     0.128 A 
HETATM    8  N7  UNL     1       0.629  -2.195  22.447  1.00  0.00    -0.322 N 
ENDROOT
BRANCH   3   9
HETATM    9  C4  UNL     1       2.920   0.665  22.705  1.00  0.00     0.122 C 
HETATM   10  N1  UNL     1       2.632   1.744  22.130  1.00  0.00    -0.309 N 
ATOM     11  H1  UNL     1       1.669   1.815  21.800  1.00  0.00     0.186 HD
BRANCH  10  12
HETATM   12  N2  UNL     1       3.387   2.803  21.884  1.00  0.00    -0.276 N 
HETATM   13  C5  UNL     1       3.745   3.482  20.894  1.00  0.00     0.215 C 
HETATM   14  N3  UNL     1       4.617   4.594  21.162  1.00  0.00    -0.065 NA
HETATM   15  N4  UNL     1       3.305   3.170  19.562  1.00  0.00    -0.065 NA
ATOM     16  H2  UNL     1       3.792   3.171  22.745  1.00  0.00     0.189 HD
ENDBRANCH  10  12
ENDBRANCH   3   9
BRANCH   7  17
HETATM   17  N6  UNL     1      -0.576  -2.384  24.602  1.00  0.00    -0.364 N 
HETATM   18  C9  UNL     1      -1.991  -2.100  24.454  1.00  0.00     0.134 C 
HETATM   19  C10 UNL     1      -2.485  -1.185  25.530  1.00  0.00     0.093 C 
HETATM   20  S1  UNL     1      -1.916  -1.739  27.172  1.00  0.00    -0.166 SA
HETATM   21  C11 UNL     1      -0.644  -3.002  27.016  1.00  0.00     0.093 C 
HETATM   22  C12 UNL     1      -0.149  -3.266  25.651  1.00  0.00     0.134 C 
ENDBRANCH   7  17
BRANCH   8  23
HETATM   23  C13 UNL     1       0.049  -3.258  21.653  1.00  0.00     0.254 C 
HETATM   24  C14 UNL     1      -1.077  -2.823  20.832  1.00  0.00     0.079 C 
HETATM   25  N8  UNL     1      -1.956  -2.470  20.163  1.00  0.00    -0.196 NA
ENDBRANCH   8  23
TORSDOF 4
ENDMDL
MODEL 2
REMARK VINA RESULT: -7.331003299      2.284      5.576
REMARK  4 active torsions:
REMARK  status: ('A' for Active; 'I' for Inactive)
REMARK    1  A    between atoms: C3_3  and  C4_4 
REMARK    2  A    between atoms: N1_5  and  N2_7 
REMARK    3  A    between atoms: C8_15  and  N6_16 
REMARK    4  A    between atoms: N7_22  and  C13_23 
ROOT
HETATM    1  C1  UNL     1       2.360   0.441  21.439  1.00  0.00     0.069 C 
HETATM    2  C2  UNL     1       1.710   0.181  22.748  1.00  0.00     0.024 A 
HETATM    3  C3  UNL     1       0.452  -0.322  22.916  1.00  0.00     0.028 A 
HETATM    4  C6  UNL     1       0.238  -0.396  24.268  1.00  0.00     0.102 A 
HETATM    5  C7  UNL     1      -0.954  -0.863  24.914  1.00  0.00     0.104 C 
HETATM    6  N5  UNL     1      -1.922  -1.227  25.455  1.00  0.00    -0.191 NA
HETATM    7  C8  UNL     1       1.407   0.078  24.902  1.00  0.00     0.128 A 
HETATM    8  N7  UNL     1       2.294   0.425  23.968  1.00  0.00    -0.322 N 
ENDROOT
BRANCH   3   9
HETATM    9  C4  UNL     1      -0.465  -0.712  21.826  1.00  0.00     0.122 C 
HETATM   10  N1  UNL     1      -0.374  -1.819  21.238  1.00  0.00    -0.309 N 
ATOM     11  H1  UNL     1       0.379  -2.423  21.567  1.00  0.00     0.186 HD
BRANCH  10  12
HETATM   12  N2  UNL     1      -1.106  -2.321  20.256  1.00  0.00    -0.276 N 
HETATM   13  C5  UNL     1      -1.742  -3.373  20.013  1.00  0.00     0.215 C 
HETATM   14  N3  UNL     1      -2.403  -3.440  18.738  1.00  0.00    -0.065 NA
HETATM   15  N4  UNL     1      -1.810  -4.453  20.958  1.00  0.00    -0.065 NA
ATOM     16  H2  UNL     1      -1.170  -1.667  19.476  1.00  0.00     0.189 HD
ENDBRANCH  10  12
ENDBRANCH   3   9
BRANCH   7  17
HETATM   17  N6  UNL     1       1.580   0.137  26.322  1.00  0.00    -0.364 N 
HETATM   18  C9  UNL     1       2.144  -0.995  27.033  1.00  0.00     0.134 C 
HETATM   19  C10 UNL     1       1.105  -1.716  27.833  1.00  0.00     0.093 C 
HETATM   20  S1  UNL     1       0.095  -0.545  28.801  1.00  0.00    -0.166 SA
HETATM   21  C11 UNL     1       0.384   1.147  28.262  1.00  0.00     0.093 C 
HETATM   22  C12 UNL     1       1.224   1.315  27.060  1.00  0.00     0.134 C 
ENDBRANCH   7  17
BRANCH   8  23
HETATM   23  C13 UNL     1       3.646   0.928  24.095  1.00  0.00     0.254 C 
HETATM   24  C14 UNL     1       3.710   2.352  24.410  1.00  0.00     0.079 C 
HETATM   25  N8  UNL     1       3.757   3.478  24.682  1.00  0.00    -0.196 NA
ENDBRANCH   8  23
TORSDOF 4
ENDMDL
MODEL 3
REMARK VINA RESULT: -7.220022416      1.685      2.749
REMARK  4 active torsions:
REMARK  status: ('A' for Active; 'I' for Inactive)
REMARK    1  A    between atoms: C3_3  and  C4_4 
REMARK    2  A    between atoms: N1_5  and  N2_7 
REMARK    3  A    between atoms: C8_15  and  N6_16 
REMARK    4  A    between atoms: N7_22  and  C13_23 
ROOT
HETATM    1  C1  UNL     1      -0.623  -1.399  21.690  1.00  0.00     0.069 C 
HETATM    2  C2  UNL     1      -0.010  -0.967  22.972  1.00  0.00     0.024 A 
HETATM    3  C3  UNL     1       1.062  -0.130  23.088  1.00  0.00     0.028 A 
HETATM    4  C6  UNL     1       1.312  -0.001  24.430  1.00  0.00     0.102 A 
HETATM    5  C7  UNL     1       2.355   0.782  25.027  1.00  0.00     0.104 C 
HETATM    6  N5  UNL     1       3.205   1.404  25.528  1.00  0.00    -0.191 NA
HETATM    7  C8  UNL     1       0.356  -0.786  25.111  1.00  0.00     0.128 A 
HETATM    8  N7  UNL     1      -0.442  -1.367  24.213  1.00  0.00    -0.322 N 
ENDROOT
BRANCH   3   9
HETATM    9  C4  UNL     1       1.778   0.504  21.963  1.00  0.00     0.122 C 
HETATM   10  N1  UNL     1       2.551   1.481  22.126  1.00  0.00    -0.309 N 
ATOM     11  H1  UNL     1       2.643   1.803  23.090  1.00  0.00     0.186 HD
BRANCH  10  12
HETATM   12  N2  UNL     1       3.263   2.158  21.240  1.00  0.00    -0.276 N 
HETATM   13  C5  UNL     1       4.205   2.985  21.237  1.00  0.00     0.215 C 
HETATM   14  N3  UNL     1       4.645   3.448  19.949  1.00  0.00    -0.065 NA
HETATM   15  N4  UNL     1       4.814   3.443  22.455  1.00  0.00    -0.065 NA
ATOM     16  H2  UNL     1       2.959   1.947  20.289  1.00  0.00     0.189 HD
ENDBRANCH  10  12
ENDBRANCH   3   9
BRANCH   7  17
HETATM   17  N6  UNL     1       0.276  -0.893  26.536  1.00  0.00    -0.364 N 
HETATM   18  C9  UNL     1       0.950  -1.978  27.222  1.00  0.00     0.134 C 
HETATM   19  C10 UNL     1      -0.023  -2.995  27.733  1.00  0.00     0.093 C 
HETATM   20  S1  UNL     1      -1.410  -2.193  28.605  1.00  0.00    -0.166 SA
HETATM   21  C11 UNL     1      -1.415  -0.419  28.305  1.00  0.00     0.093 C 
HETATM   22  C12 UNL     1      -0.446   0.078  27.308  1.00  0.00     0.134 C 
ENDBRANCH   7  17
BRANCH   8  23
HETATM   23  C13 UNL     1      -1.589  -2.231  24.395  1.00  0.00     0.254 C 
HETATM   24  C14 UNL     1      -2.753  -1.545  24.949  1.00  0.00     0.079 C 
HETATM   25  N8  UNL     1      -3.682  -0.992  25.367  1.00  0.00    -0.196 NA
ENDBRANCH   8  23
TORSDOF 4
ENDMDL
MODEL 4
REMARK VINA RESULT: -7.198425123      3.100      5.550
REMARK  4 active torsions:
REMARK  status: ('A' for Active; 'I' for Inactive)
REMARK    1  A    between atoms: C3_3  and  C4_4 
REMARK    2  A    between atoms: N1_5  and  N2_7 
REMARK    3  A    between atoms: C8_15  and  N6_16 
REMARK    4  A    between atoms: N7_22  and  C13_23 
ROOT
HETATM    1  C1  UNL     1       4.453   3.528  24.422  1.00  0.00     0.069 C 
HETATM    2  C2  UNL     1       3.569   2.340  24.300  1.00  0.00     0.024 A 
HETATM    3  C3  UNL     1       2.868   1.773  25.325  1.00  0.00     0.028 A 
HETATM    4  C6  UNL     1       2.195   0.704  24.792  1.00  0.00     0.102 A 
HETATM    5  C7  UNL     1       1.332  -0.195  25.502  1.00  0.00     0.104 C 
HETATM    6  N5  UNL     1       0.637  -0.942  26.068  1.00  0.00    -0.191 NA
HETATM    7  C8  UNL     1       2.517   0.651  23.418  1.00  0.00     0.128 A 
HETATM    8  N7  UNL     1       3.352   1.651  23.132  1.00  0.00    -0.322 N 
ENDROOT
BRANCH   3   9
HETATM    9  C4  UNL     1       2.851   2.256  26.720  1.00  0.00     0.122 C 
HETATM   10  N1  UNL     1       2.262   3.313  27.057  1.00  0.00    -0.309 N 
ATOM     11  H1  UNL     1       1.800   3.811  26.296  1.00  0.00     0.186 HD
BRANCH  10  12
HETATM   12  N2  UNL     1       2.148   3.880  28.247  1.00  0.00    -0.276 N 
HETATM   13  C5  UNL     1       2.840   4.596  29.008  1.00  0.00     0.215 C 
HETATM   14  N3  UNL     1       2.237   4.968  30.259  1.00  0.00    -0.065 NA
HETATM   15  N4  UNL     1       4.165   5.023  28.649  1.00  0.00    -0.065 NA
ATOM     16  H2  UNL     1       1.239   3.678  28.663  1.00  0.00     0.189 HD
ENDBRANCH  10  12
ENDBRANCH   3   9
BRANCH   7  17
HETATM   17  N6  UNL     1       1.990  -0.322  22.510  1.00  0.00    -0.364 N 
HETATM   18  C9  UNL     1       0.690  -0.118  21.901  1.00  0.00     0.134 C 
HETATM   19  C10 UNL     1      -0.339  -1.039  22.478  1.00  0.00     0.093 C 
HETATM   20  S1  UNL     1       0.284  -2.752  22.553  1.00  0.00    -0.166 SA
HETATM   21  C11 UNL     1       2.058  -2.801  22.254  1.00  0.00     0.093 C 
HETATM   22  C12 UNL     1       2.742  -1.496  22.168  1.00  0.00     0.134 C 
ENDBRANCH   7  17
BRANCH   8  23
HETATM   23  C13 UNL     1       3.942   2.052  21.872  1.00  0.00     0.254 C 
HETATM   24  C14 UNL     1       2.956   2.374  20.844  1.00  0.00     0.079 C 
HETATM   25  N8  UNL     1       2.171   2.652  20.037  1.00  0.00    -0.196 NA
ENDBRANCH   8  23
TORSDOF 4
ENDMDL
MODEL 5
REMARK VINA RESULT: -7.123876280      2.497      5.645
REMARK  4 active torsions:
REMARK  status: ('A' for Active; 'I' for Inactive)
REMARK    1  A    between atoms: C3_3  and  C4_4 
REMARK    2  A    between atoms: N1_5  and  N2_7 
REMARK    3  A    between atoms: C8_15  and  N6_16 
REMARK    4  A    between atoms: N7_22  and  C13_23 
ROOT
HETATM    1  C1  UNL     1       2.132  -0.075  21.642  1.00  0.00     0.069 C 
HETATM    2  C2  UNL     1       1.368  -0.204  22.909  1.00  0.00     0.024 A 
HETATM    3  C3  UNL     1       0.057  -0.573  23.002  1.00  0.00     0.028 A 
HETATM    4  C6  UNL     1      -0.259  -0.557  24.337  1.00  0.00     0.102 A 
HETATM    5  C7  UNL     1      -1.534  -0.872  24.910  1.00  0.00     0.104 C 
HETATM    6  N5  UNL     1      -2.569  -1.113  25.392  1.00  0.00    -0.191 NA
HETATM    7  C8  UNL     1       0.905  -0.166  25.036  1.00  0.00     0.128 A 
HETATM    8  N7  UNL     1       1.886   0.044  24.157  1.00  0.00    -0.322 N 
ENDROOT
BRANCH   3   9
HETATM    9  C4  UNL     1      -0.815  -0.928  21.865  1.00  0.00     0.122 C 
HETATM   10  N1  UNL     1      -0.655  -1.982  21.201  1.00  0.00    -0.309 N 
ATOM     11  H1  UNL     1       0.121  -2.571  21.505  1.00  0.00     0.186 HD
BRANCH  10  12
HETATM   12  N2  UNL     1      -1.338  -2.448  20.167  1.00  0.00    -0.276 N 
HETATM   13  C5  UNL     1      -1.916  -3.508  19.834  1.00  0.00     0.215 C 
HETATM   14  N3  UNL     1      -2.544  -3.515  18.540  1.00  0.00    -0.065 NA
HETATM   15  N4  UNL     1      -1.952  -4.656  20.699  1.00  0.00    -0.065 NA
ATOM     16  H2  UNL     1      -1.416  -1.743  19.434  1.00  0.00     0.189 HD
ENDBRANCH  10  12
ENDBRANCH   3   9
BRANCH   7  17
HETATM   17  N6  UNL     1       0.981  -0.052  26.460  1.00  0.00    -0.364 N 
HETATM   18  C9  UNL     1       0.550   1.168  27.116  1.00  0.00     0.134 C 
HETATM   19  C10 UNL     1       1.713   1.957  27.632  1.00  0.00     0.093 C 
HETATM   20  S1  UNL     1       2.874   0.888  28.546  1.00  0.00    -0.166 SA
HETATM   21  C11 UNL     1       2.495  -0.850  28.273  1.00  0.00     0.093 C 
HETATM   22  C12 UNL     1       1.460  -1.142  27.263  1.00  0.00     0.134 C 
ENDBRANCH   7  17
BRANCH   8  23
HETATM   23  C13 UNL     1       3.268   0.420  24.364  1.00  0.00     0.254 C 
HETATM   24  C14 UNL     1       3.498   1.860  24.288  1.00  0.00     0.079 C 
HETATM   25  N8  UNL     1       3.674   3.005  24.249  1.00  0.00    -0.196 NA
ENDBRANCH   8  23
TORSDOF 4
ENDMDL
