MODEL 1
REMARK VINA RESULT: -6.503053406      0.000      0.000
REMARK  11 active torsions:
REMARK  status: ('A' for Active; 'I' for Inactive)
REMARK    1  A    between atoms: O1_2  and  C2_3 
REMARK       I    between atoms: C2_3  and  N1_5 
REMARK       I    between atoms: N1_5  and  C3_7 
REMARK       I    between atoms: C3_7  and  N2_8 
REMARK       I    between atoms: C3_7  and  N11_35 
REMARK    2  A    between atoms: N2_8  and  O3_10 
REMARK    3  A    between atoms: O3_10  and  C4_11 
REMARK    4  A    between atoms: C4_11  and  N4_15 
REMARK    5  A    between atoms: N4_15  and  N5_17 
REMARK    6  A    between atoms: N6_19  and  C6_21 
REMARK    7  A    between atoms: C8_25  and  N8_26 
REMARK    8  A    between atoms: C9_31  and  N10_32 
REMARK    9  A    between atoms: C11_41  and  N14_42 
REMARK   10  A    between atoms: N14_42  and  O4_43 
REMARK   11  A    between atoms: N14_42  and  O5_45 
ROOT
HETATM    1  C4  UNL     1       6.720  -2.250  30.022  1.00  0.00     0.259 C 
HETATM    2  N3  UNL     1       6.722  -1.795  31.226  1.00  0.00    -0.362 N 
ATOM      3  H31 UNL     1       7.393  -2.214  31.870  1.00  0.00     0.159 HD
ATOM      4  H32 UNL     1       6.095  -1.055  31.540  1.00  0.00     0.159 HD
ENDROOT
BRANCH   1   5
HETATM    5  O3  UNL     1       5.808  -1.682  29.145  1.00  0.00    -0.185 OA
BRANCH   5   6
HETATM    6  N2  UNL     1       5.550  -0.374  29.036  1.00  0.00    -0.087 N 
HETATM    7  C3  UNL     1       4.989   0.120  27.837  1.00  0.00     0.717 C 
HETATM    8  N1  UNL     1       3.862  -0.709  27.445  1.00  0.00    -0.133 N 
HETATM    9  N11 UNL     1       5.814   0.548  26.779  1.00  0.00    -0.109 N 
HETATM   10  C2  UNL     1       2.503  -0.306  27.503  1.00  0.00     0.378 C 
ATOM     11  H1  UNL     1       4.062  -1.649  27.103  1.00  0.00     0.190 HD
HETATM   12  O2  UNL     1       2.178   0.839  27.914  1.00  0.00    -0.238 OA
HETATM   13  C10 UNL     1       5.667   1.761  26.159  1.00  0.00     0.226 A 
HETATM   14  C11 UNL     1       6.826  -0.024  26.154  1.00  0.00     0.248 A 
HETATM   15  N12 UNL     1       6.563   1.898  25.204  1.00  0.00    -0.293 N 
HETATM   16  N13 UNL     1       7.285   0.826  25.176  1.00  0.00    -0.270 N 
ATOM     17  H12 UNL     1       6.670   2.707  24.592  1.00  0.00     0.187 HD
ATOM     18  H13 UNL     1       8.060   0.642  24.539  1.00  0.00     0.189 HD
ATOM     19  H2  UNL     1       5.755   0.258  29.809  1.00  0.00     0.214 HD
BRANCH  10  20
HETATM   20  O1  UNL     1       1.472  -1.145  27.114  1.00  0.00    -0.308 OA
HETATM   21  C1  UNL     1       0.193  -1.114  27.733  1.00  0.00     0.215 C 
ENDBRANCH  10  20
BRANCH  14  22
HETATM   22  N14 UNL     1       7.427  -1.281  26.354  1.00  0.00     0.002 NA
BRANCH  22  23
HETATM   23  O4  UNL     1       6.529  -2.313  26.367  1.00  0.00    -0.282 OA
ATOM     24  H4  UNL     1       6.919  -3.152  26.151  1.00  0.00     0.240 HD
ENDBRANCH  22  23
BRANCH  22  25
HETATM   25  O5  UNL     1       8.233  -1.601  25.270  1.00  0.00    -0.282 OA
ATOM     26  H5  UNL     1       9.012  -1.058  25.272  1.00  0.00     0.240 HD
ENDBRANCH  22  25
ENDBRANCH  14  22
ENDBRANCH   5   6
ENDBRANCH   1   5
BRANCH   1  27
HETATM   27  N4  UNL     1       7.602  -3.290  29.580  1.00  0.00    -0.245 N 
HETATM   28  C5  UNL     1       7.806  -4.497  30.356  1.00  0.00     0.183 C 
BRANCH  27  29
HETATM   29  N5  UNL     1       8.291  -3.152  28.376  1.00  0.00    -0.237 N 
HETATM   30  N6  UNL     1       9.366  -2.540  28.236  1.00  0.00    -0.281 N 
ATOM     31  H6  UNL     1       9.809  -2.485  27.319  1.00  0.00     0.188 HD
ATOM     32  H5  UNL     1       7.883  -3.586  27.546  1.00  0.00     0.208 HD
BRANCH  30  33
HETATM   33  C6  UNL     1       9.972  -1.919  29.360  1.00  0.00     0.109 A 
HETATM   34  C7  UNL     1      10.747  -2.590  30.283  1.00  0.00     0.141 A 
HETATM   35  N7  UNL     1      11.276  -1.910  31.310  1.00  0.00    -0.200 N 
HETATM   36  C8  UNL     1      11.100  -0.592  31.509  1.00  0.00     0.677 A 
ATOM     37  H7  UNL     1      11.846  -2.424  31.982  1.00  0.00     0.183 HD
HETATM   38  N9  UNL     1      10.349   0.079  30.620  1.00  0.00    -0.175 N 
HETATM   39  C9  UNL     1       9.795  -0.559  29.569  1.00  0.00     0.144 A 
ATOM     40  H9  UNL     1      10.196   1.080  30.740  1.00  0.00     0.186 HD
BRANCH  36  41
HETATM   41  N8  UNL     1      11.632   0.038  32.525  1.00  0.00    -0.234 N 
ATOM     42  H82 UNL     1      11.975   0.991  32.411  1.00  0.00     0.174 HD
ATOM     43  H81 UNL     1      11.720  -0.390  33.447  1.00  0.00     0.174 HD
ENDBRANCH  36  41
BRANCH  39  44
HETATM   44  N10 UNL     1       9.083   0.112  28.735  1.00  0.00    -0.383 N 
ATOM     45 2H10 UNL     1       8.351  -0.367  28.210  1.00  0.00     0.157 HD
ATOM     46 1H10 UNL     1       9.265   1.109  28.619  1.00  0.00     0.157 HD
ENDBRANCH  39  44
ENDBRANCH  30  33
ENDBRANCH  27  29
ENDBRANCH   1  27
TORSDOF 11
ENDMDL
MODEL 2
REMARK VINA RESULT: -6.487963637      2.035      2.596
REMARK  11 active torsions:
REMARK  status: ('A' for Active; 'I' for Inactive)
REMARK    1  A    between atoms: O1_2  and  C2_3 
REMARK       I    between atoms: C2_3  and  N1_5 
REMARK       I    between atoms: N1_5  and  C3_7 
REMARK       I    between atoms: C3_7  and  N2_8 
REMARK       I    between atoms: C3_7  and  N11_35 
REMARK    2  A    between atoms: N2_8  and  O3_10 
REMARK    3  A    between atoms: O3_10  and  C4_11 
REMARK    4  A    between atoms: C4_11  and  N4_15 
REMARK    5  A    between atoms: N4_15  and  N5_17 
REMARK    6  A    between atoms: N6_19  and  C6_21 
REMARK    7  A    between atoms: C8_25  and  N8_26 
REMARK    8  A    between atoms: C9_31  and  N10_32 
REMARK    9  A    between atoms: C11_41  and  N14_42 
REMARK   10  A    between atoms: N14_42  and  O4_43 
REMARK   11  A    between atoms: N14_42  and  O5_45 
ROOT
HETATM    1  C4  UNL     1       7.793  -0.588  31.168  1.00  0.00     0.259 C 
HETATM    2  N3  UNL     1       7.765   0.023  32.301  1.00  0.00    -0.362 N 
ATOM      3  H31 UNL     1       8.116  -0.496  33.106  1.00  0.00     0.159 HD
ATOM      4  H32 UNL     1       7.417   0.976  32.409  1.00  0.00     0.159 HD
ENDROOT
BRANCH   1   5
HETATM    5  O3  UNL     1       7.317   0.117  30.072  1.00  0.00    -0.185 OA
BRANCH   5   6
HETATM    6  N2  UNL     1       6.042   0.464  29.868  1.00  0.00    -0.087 N 
HETATM    7  C3  UNL     1       5.351  -0.071  28.758  1.00  0.00     0.717 C 
HETATM    8  N1  UNL     1       5.557  -1.508  28.699  1.00  0.00    -0.133 N 
HETATM    9  N11 UNL     1       5.367   0.588  27.514  1.00  0.00    -0.109 N 
HETATM   10  C2  UNL     1       4.563  -2.479  28.983  1.00  0.00     0.378 C 
ATOM     11  H1  UNL     1       6.483  -1.843  28.434  1.00  0.00     0.190 HD
HETATM   12  O2  UNL     1       3.397  -2.143  29.317  1.00  0.00    -0.238 OA
HETATM   13  C10 UNL     1       4.231   0.870  26.802  1.00  0.00     0.226 A 
HETATM   14  C11 UNL     1       6.352   1.053  26.768  1.00  0.00     0.248 A 
HETATM   15  N12 UNL     1       4.538   1.482  25.676  1.00  0.00    -0.293 N 
HETATM   16  N13 UNL     1       5.823   1.608  25.626  1.00  0.00    -0.270 N 
ATOM     17  H12 UNL     1       3.877   1.800  24.967  1.00  0.00     0.187 HD
ATOM     18  H13 UNL     1       6.353   2.043  24.872  1.00  0.00     0.189 HD
ATOM     19  H2  UNL     1       5.574   1.107  30.507  1.00  0.00     0.214 HD
BRANCH  10  20
HETATM   20  O1  UNL     1       4.823  -3.839  28.908  1.00  0.00    -0.308 OA
HETATM   21  C1  UNL     1       5.947  -4.432  29.544  1.00  0.00     0.215 C 
ENDBRANCH  10  20
BRANCH  14  22
HETATM   22  N14 UNL     1       7.742   1.045  26.985  1.00  0.00     0.002 NA
BRANCH  22  23
HETATM   23  O4  UNL     1       8.139   1.898  27.978  1.00  0.00    -0.282 OA
ATOM     24  H4  UNL     1       8.513   1.451  28.729  1.00  0.00     0.240 HD
ENDBRANCH  22  23
BRANCH  22  25
HETATM   25  O5  UNL     1       8.139  -0.191  27.477  1.00  0.00    -0.282 OA
ATOM     26  H5  UNL     1       8.324  -0.128  28.406  1.00  0.00     0.240 HD
ENDBRANCH  22  25
ENDBRANCH  14  22
ENDBRANCH   5   6
ENDBRANCH   1   5
BRANCH   1  27
HETATM   27  N4  UNL     1       8.283  -1.926  31.015  1.00  0.00    -0.245 N 
HETATM   28  C5  UNL     1       8.212  -2.891  32.094  1.00  0.00     0.183 C 
BRANCH  27  29
HETATM   29  N5  UNL     1       8.848  -2.325  29.804  1.00  0.00    -0.237 N 
HETATM   30  N6  UNL     1       9.997  -2.034  29.424  1.00  0.00    -0.281 N 
ATOM     31  H6  UNL     1      10.338  -2.367  28.522  1.00  0.00     0.188 HD
ATOM     32  H5  UNL     1       8.276  -2.899  29.184  1.00  0.00     0.208 HD
BRANCH  30  33
HETATM   33  C6  UNL     1      10.831  -1.237  30.251  1.00  0.00     0.109 A 
HETATM   34  C7  UNL     1      11.502  -1.717  31.356  1.00  0.00     0.141 A 
HETATM   35  N7  UNL     1      12.266  -0.881  32.072  1.00  0.00    -0.200 N 
HETATM   36  C8  UNL     1      12.428   0.422  31.785  1.00  0.00     0.677 A 
ATOM     37  H7  UNL     1      12.755  -1.256  32.886  1.00  0.00     0.183 HD
HETATM   38  N9  UNL     1      11.781   0.909  30.712  1.00  0.00    -0.175 N 
HETATM   39  C9  UNL     1      11.001   0.109  29.958  1.00  0.00     0.144 A 
ATOM     40  H9  UNL     1      11.883   1.894  30.464  1.00  0.00     0.186 HD
BRANCH  36  41
HETATM   41  N8  UNL     1      13.181   1.209  32.508  1.00  0.00    -0.234 N 
ATOM     42  H82 UNL     1      13.153   1.150  33.526  1.00  0.00     0.174 HD
ATOM     43  H81 UNL     1      13.812   1.895  32.091  1.00  0.00     0.174 HD
ENDBRANCH  36  41
BRANCH  39  44
HETATM   44  N10 UNL     1      10.398   0.605  28.937  1.00  0.00    -0.383 N 
ATOM     45 2H10 UNL     1       9.752   0.019  28.409  1.00  0.00     0.157 HD
ATOM     46 1H10 UNL     1      10.578   1.576  28.680  1.00  0.00     0.157 HD
ENDBRANCH  39  44
ENDBRANCH  30  33
ENDBRANCH  27  29
ENDBRANCH   1  27
TORSDOF 11
ENDMDL
MODEL 3
REMARK VINA RESULT: -6.304296836      3.245      5.040
REMARK  11 active torsions:
REMARK  status: ('A' for Active; 'I' for Inactive)
REMARK    1  A    between atoms: O1_2  and  C2_3 
REMARK       I    between atoms: C2_3  and  N1_5 
REMARK       I    between atoms: N1_5  and  C3_7 
REMARK       I    between atoms: C3_7  and  N2_8 
REMARK       I    between atoms: C3_7  and  N11_35 
REMARK    2  A    between atoms: N2_8  and  O3_10 
REMARK    3  A    between atoms: O3_10  and  C4_11 
REMARK    4  A    between atoms: C4_11  and  N4_15 
REMARK    5  A    between atoms: N4_15  and  N5_17 
REMARK    6  A    between atoms: N6_19  and  C6_21 
REMARK    7  A    between atoms: C8_25  and  N8_26 
REMARK    8  A    between atoms: C9_31  and  N10_32 
REMARK    9  A    between atoms: C11_41  and  N14_42 
REMARK   10  A    between atoms: N14_42  and  O4_43 
REMARK   11  A    between atoms: N14_42  and  O5_45 
ROOT
HETATM    1  C4  UNL     1       7.796  -0.769  31.714  1.00  0.00     0.259 C 
HETATM    2  N3  UNL     1       6.901  -0.017  32.254  1.00  0.00    -0.362 N 
ATOM      3  H31 UNL     1       6.781  -0.104  33.263  1.00  0.00     0.159 HD
ATOM      4  H32 UNL     1       6.330   0.638  31.719  1.00  0.00     0.159 HD
ENDROOT
BRANCH   1   5
HETATM    5  O3  UNL     1       7.958  -0.652  30.342  1.00  0.00    -0.185 OA
BRANCH   5   6
HETATM    6  N2  UNL     1       7.437  -1.475  29.427  1.00  0.00    -0.087 N 
HETATM    7  C3  UNL     1       8.197  -1.804  28.282  1.00  0.00     0.717 C 
HETATM    8  N1  UNL     1       9.541  -2.187  28.680  1.00  0.00    -0.133 N 
HETATM    9  N11 UNL     1       8.119  -1.019  27.115  1.00  0.00    -0.109 N 
HETATM   10  C2  UNL     1      10.055  -3.508  28.622  1.00  0.00     0.378 C 
ATOM     11  H1  UNL     1      10.159  -1.454  29.026  1.00  0.00     0.190 HD
HETATM   12  O2  UNL     1       9.353  -4.466  28.207  1.00  0.00    -0.238 OA
HETATM   13  C10 UNL     1       7.892  -1.547  25.872  1.00  0.00     0.226 A 
HETATM   14  C11 UNL     1       8.236   0.279  26.909  1.00  0.00     0.248 A 
HETATM   15  N12 UNL     1       7.875  -0.592  24.965  1.00  0.00    -0.293 N 
HETATM   16  N13 UNL     1       8.082   0.533  25.567  1.00  0.00    -0.270 N 
ATOM     17  H12 UNL     1       7.725  -0.717  23.964  1.00  0.00     0.187 HD
ATOM     18  H13 UNL     1       8.124   1.451  25.123  1.00  0.00     0.189 HD
ATOM     19  H2  UNL     1       6.501  -1.862  29.554  1.00  0.00     0.214 HD
BRANCH  10  20
HETATM   20  O1  UNL     1      11.349  -3.808  29.018  1.00  0.00    -0.308 OA
HETATM   21  C1  UNL     1      12.088  -4.880  28.447  1.00  0.00     0.215 C 
ENDBRANCH  10  20
BRANCH  14  22
HETATM   22  N14 UNL     1       8.479   1.328  27.816  1.00  0.00     0.002 NA
BRANCH  22  23
HETATM   23  O4  UNL     1       7.458   1.520  28.706  1.00  0.00    -0.282 OA
ATOM     24  H4  UNL     1       6.994   2.338  28.574  1.00  0.00     0.240 HD
ENDBRANCH  22  23
BRANCH  22  25
HETATM   25  O5  UNL     1       9.542   1.002  28.647  1.00  0.00    -0.282 OA
ATOM     26  H5  UNL     1      10.302   1.527  28.425  1.00  0.00     0.240 HD
ENDBRANCH  22  25
ENDBRANCH  14  22
ENDBRANCH   5   6
ENDBRANCH   1   5
BRANCH   1  27
HETATM   27  N4  UNL     1       8.597  -1.689  32.465  1.00  0.00    -0.245 N 
HETATM   28  C5  UNL     1       8.692  -3.089  32.102  1.00  0.00     0.183 C 
BRANCH  27  29
HETATM   29  N5  UNL     1       9.309  -1.243  33.578  1.00  0.00    -0.237 N 
HETATM   30  N6  UNL     1      10.502  -0.891  33.566  1.00  0.00    -0.281 N 
ATOM     31  H6  UNL     1      10.953  -0.575  34.426  1.00  0.00     0.188 HD
ATOM     32  H5  UNL     1       8.814  -1.204  34.470  1.00  0.00     0.208 HD
BRANCH  30  33
HETATM   33  C6  UNL     1      11.235  -0.928  32.350  1.00  0.00     0.109 A 
HETATM   34  C7  UNL     1      11.177   0.058  31.387  1.00  0.00     0.141 A 
HETATM   35  N7  UNL     1      11.909  -0.073  30.272  1.00  0.00    -0.200 N 
HETATM   36  C8  UNL     1      12.713  -1.120  30.020  1.00  0.00     0.677 A 
ATOM     37  H7  UNL     1      11.853   0.667  29.573  1.00  0.00     0.183 HD
HETATM   38  N9  UNL     1      12.783  -2.091  30.946  1.00  0.00    -0.175 N 
HETATM   39  C9  UNL     1      12.066  -2.007  32.085  1.00  0.00     0.144 A 
ATOM     40  H9  UNL     1      13.384  -2.900  30.787  1.00  0.00     0.186 HD
BRANCH  36  41
HETATM   41  N8  UNL     1      13.413  -1.215  28.919  1.00  0.00    -0.234 N 
ATOM     42  H82 UNL     1      13.074  -1.787  28.146  1.00  0.00     0.174 HD
ATOM     43  H81 UNL     1      14.302  -0.730  28.795  1.00  0.00     0.174 HD
ENDBRANCH  36  41
BRANCH  39  44
HETATM   44  N10 UNL     1      12.157  -2.952  32.952  1.00  0.00    -0.383 N 
ATOM     45 2H10 UNL     1      11.735  -3.857  32.745  1.00  0.00     0.157 HD
ATOM     46 1H10 UNL     1      12.650  -2.775  33.827  1.00  0.00     0.157 HD
ENDBRANCH  39  44
ENDBRANCH  30  33
ENDBRANCH  27  29
ENDBRANCH   1  27
TORSDOF 11
ENDMDL
MODEL 4
REMARK VINA RESULT: -6.286391091      2.484      4.399
REMARK  11 active torsions:
REMARK  status: ('A' for Active; 'I' for Inactive)
REMARK    1  A    between atoms: O1_2  and  C2_3 
REMARK       I    between atoms: C2_3  and  N1_5 
REMARK       I    between atoms: N1_5  and  C3_7 
REMARK       I    between atoms: C3_7  and  N2_8 
REMARK       I    between atoms: C3_7  and  N11_35 
REMARK    2  A    between atoms: N2_8  and  O3_10 
REMARK    3  A    between atoms: O3_10  and  C4_11 
REMARK    4  A    between atoms: C4_11  and  N4_15 
REMARK    5  A    between atoms: N4_15  and  N5_17 
REMARK    6  A    between atoms: N6_19  and  C6_21 
REMARK    7  A    between atoms: C8_25  and  N8_26 
REMARK    8  A    between atoms: C9_31  and  N10_32 
REMARK    9  A    between atoms: C11_41  and  N14_42 
REMARK   10  A    between atoms: N14_42  and  O4_43 
REMARK   11  A    between atoms: N14_42  and  O5_45 
ROOT
HETATM    1  C4  UNL     1       8.654  -2.745  31.497  1.00  0.00     0.259 C 
HETATM    2  N3  UNL     1       8.927  -3.968  31.204  1.00  0.00    -0.362 N 
ATOM      3  H31 UNL     1       9.548  -4.463  31.844  1.00  0.00     0.159 HD
ATOM      4  H32 UNL     1       8.551  -4.439  30.381  1.00  0.00     0.159 HD
ENDROOT
BRANCH   1   5
HETATM    5  O3  UNL     1       7.809  -2.073  30.627  1.00  0.00    -0.185 OA
BRANCH   5   6
HETATM    6  N2  UNL     1       6.725  -2.593  30.042  1.00  0.00    -0.087 N 
HETATM    7  C3  UNL     1       5.976  -1.798  29.147  1.00  0.00     0.717 C 
HETATM    8  N1  UNL     1       6.869  -1.152  28.199  1.00  0.00    -0.133 N 
HETATM    9  N11 UNL     1       4.914  -0.997  29.610  1.00  0.00    -0.109 N 
HETATM   10  C2  UNL     1       6.966  -1.487  26.824  1.00  0.00     0.378 C 
ATOM     11  H1  UNL     1       7.468  -0.405  28.548  1.00  0.00     0.190 HD
HETATM   12  O2  UNL     1       6.259  -2.398  26.321  1.00  0.00    -0.238 OA
HETATM   13  C10 UNL     1       3.664  -1.014  29.051  1.00  0.00     0.226 A 
HETATM   14  C11 UNL     1       4.831  -0.108  30.583  1.00  0.00     0.248 A 
HETATM   15  N12 UNL     1       2.872  -0.165  29.674  1.00  0.00    -0.293 N 
HETATM   16  N13 UNL     1       3.555   0.402  30.613  1.00  0.00    -0.270 N 
ATOM     17  H12 UNL     1       1.892   0.013  29.454  1.00  0.00     0.187 HD
ATOM     18  H13 UNL     1       3.208   1.107  31.264  1.00  0.00     0.189 HD
ATOM     19  H2  UNL     1       6.444  -3.554  30.240  1.00  0.00     0.214 HD
BRANCH  10  20
HETATM   20  O1  UNL     1       7.840  -0.832  25.971  1.00  0.00    -0.308 OA
HETATM   21  C1  UNL     1       7.634   0.513  25.560  1.00  0.00     0.215 C 
ENDBRANCH  10  20
BRANCH  14  22
HETATM   22  N14 UNL     1       5.804   0.334  31.499  1.00  0.00     0.002 NA
BRANCH  22  23
HETATM   23  O4  UNL     1       6.111  -0.599  32.452  1.00  0.00    -0.282 OA
ATOM     24  H4  UNL     1       7.022  -0.573  32.722  1.00  0.00     0.240 HD
ENDBRANCH  22  23
BRANCH  22  25
HETATM   25  O5  UNL     1       7.020   0.512  30.853  1.00  0.00    -0.282 OA
ATOM     26  H5  UNL     1       7.258   1.432  30.855  1.00  0.00     0.240 HD
ENDBRANCH  22  25
ENDBRANCH  14  22
ENDBRANCH   5   6
ENDBRANCH   1   5
BRANCH   1  27
HETATM   27  N4  UNL     1       9.182  -2.084  32.654  1.00  0.00    -0.245 N 
HETATM   28  C5  UNL     1       9.869  -2.813  33.701  1.00  0.00     0.183 C 
BRANCH  27  29
HETATM   29  N5  UNL     1       9.037  -0.704  32.793  1.00  0.00    -0.237 N 
HETATM   30  N6  UNL     1       9.768   0.147  32.253  1.00  0.00    -0.281 N 
ATOM     31  H6  UNL     1       9.595   1.141  32.404  1.00  0.00     0.188 HD
ATOM     32  H5  UNL     1       8.275  -0.367  33.381  1.00  0.00     0.208 HD
BRANCH  30  33
HETATM   33  C6  UNL     1      10.843  -0.273  31.425  1.00  0.00     0.109 A 
HETATM   34  C7  UNL     1      12.046  -0.743  31.908  1.00  0.00     0.141 A 
HETATM   35  N7  UNL     1      12.998  -1.114  31.041  1.00  0.00    -0.200 N 
HETATM   36  C8  UNL     1      12.861  -1.059  29.705  1.00  0.00     0.677 A 
ATOM     37  H7  UNL     1      13.881  -1.460  31.418  1.00  0.00     0.183 HD
HETATM   38  N9  UNL     1      11.696  -0.604  29.215  1.00  0.00    -0.175 N 
HETATM   39  C9  UNL     1      10.706  -0.218  30.046  1.00  0.00     0.144 A 
ATOM     40  H9  UNL     1      11.558  -0.550  28.206  1.00  0.00     0.186 HD
BRANCH  36  41
HETATM   41  N8  UNL     1      13.814  -1.430  28.889  1.00  0.00    -0.234 N 
ATOM     42  H82 UNL     1      14.063  -2.416  28.808  1.00  0.00     0.174 HD
ATOM     43  H81 UNL     1      14.332  -0.763  28.316  1.00  0.00     0.174 HD
ENDBRANCH  36  41
BRANCH  39  44
HETATM   44  N10 UNL     1       9.602   0.211  29.545  1.00  0.00    -0.383 N 
ATOM     45 2H10 UNL     1       9.077   0.928  30.046  1.00  0.00     0.157 HD
ATOM     46 1H10 UNL     1       9.279  -0.174  28.658  1.00  0.00     0.157 HD
ENDBRANCH  39  44
ENDBRANCH  30  33
ENDBRANCH  27  29
ENDBRANCH   1  27
TORSDOF 11
ENDMDL
MODEL 5
REMARK VINA RESULT: -6.176313393      1.342      1.943
REMARK  11 active torsions:
REMARK  status: ('A' for Active; 'I' for Inactive)
REMARK    1  A    between atoms: O1_2  and  C2_3 
REMARK       I    between atoms: C2_3  and  N1_5 
REMARK       I    between atoms: N1_5  and  C3_7 
REMARK       I    between atoms: C3_7  and  N2_8 
REMARK       I    between atoms: C3_7  and  N11_35 
REMARK    2  A    between atoms: N2_8  and  O3_10 
REMARK    3  A    between atoms: O3_10  and  C4_11 
REMARK    4  A    between atoms: C4_11  and  N4_15 
REMARK    5  A    between atoms: N4_15  and  N5_17 
REMARK    6  A    between atoms: N6_19  and  C6_21 
REMARK    7  A    between atoms: C8_25  and  N8_26 
REMARK    8  A    between atoms: C9_31  and  N10_32 
REMARK    9  A    between atoms: C11_41  and  N14_42 
REMARK   10  A    between atoms: N14_42  and  O4_43 
REMARK   11  A    between atoms: N14_42  and  O5_45 
ROOT
HETATM    1  C4  UNL     1       7.195  -2.419  29.691  1.00  0.00     0.259 C 
HETATM    2  N3  UNL     1       8.303  -2.114  29.111  1.00  0.00    -0.362 N 
ATOM      3  H31 UNL     1       9.142  -2.580  29.457  1.00  0.00     0.159 HD
ATOM      4  H32 UNL     1       8.362  -1.445  28.342  1.00  0.00     0.159 HD
ENDROOT
BRANCH   1   5
HETATM    5  O3  UNL     1       6.055  -1.785  29.221  1.00  0.00    -0.185 OA
BRANCH   5   6
HETATM    6  N2  UNL     1       5.866  -0.462  29.175  1.00  0.00    -0.087 N 
HETATM    7  C3  UNL     1       5.257   0.108  28.035  1.00  0.00     0.717 C 
HETATM    8  N1  UNL     1       4.061  -0.641  27.691  1.00  0.00    -0.133 N 
HETATM    9  N11 UNL     1       6.034   0.531  26.939  1.00  0.00    -0.109 N 
HETATM   10  C2  UNL     1       2.734  -0.166  27.855  1.00  0.00     0.378 C 
ATOM     11  H1  UNL     1       4.183  -1.576  27.303  1.00  0.00     0.190 HD
HETATM   12  O2  UNL     1       2.503   0.978  28.326  1.00  0.00    -0.238 OA
HETATM   13  C10 UNL     1       5.918   1.774  26.373  1.00  0.00     0.226 A 
HETATM   14  C11 UNL     1       6.968  -0.072  26.228  1.00  0.00     0.248 A 
HETATM   15  N12 UNL     1       6.756   1.897  25.365  1.00  0.00    -0.293 N 
HETATM   16  N13 UNL     1       7.411   0.789  25.251  1.00  0.00    -0.270 N 
ATOM     17  H12 UNL     1       6.869   2.723  24.776  1.00  0.00     0.187 HD
ATOM     18  H13 UNL     1       8.130   0.587  24.557  1.00  0.00     0.189 HD
ATOM     19  H2  UNL     1       6.157   0.128  29.954  1.00  0.00     0.214 HD
BRANCH  10  20
HETATM   20  O1  UNL     1       1.633  -0.931  27.507  1.00  0.00    -0.308 OA
HETATM   21  C1  UNL     1       1.174  -1.036  26.166  1.00  0.00     0.215 C 
ENDBRANCH  10  20
BRANCH  14  22
HETATM   22  N14 UNL     1       7.508  -1.367  26.342  1.00  0.00     0.002 NA
BRANCH  22  23
HETATM   23  O4  UNL     1       6.555  -2.348  26.366  1.00  0.00    -0.282 OA
ATOM     24  H4  UNL     1       6.146  -2.495  25.521  1.00  0.00     0.240 HD
ENDBRANCH  22  23
BRANCH  22  25
HETATM   25  O5  UNL     1       8.233  -1.683  25.201  1.00  0.00    -0.282 OA
ATOM     26  H5  UNL     1       8.557  -2.574  25.257  1.00  0.00     0.240 HD
ENDBRANCH  22  25
ENDBRANCH  14  22
ENDBRANCH   5   6
ENDBRANCH   1   5
BRANCH   1  27
HETATM   27  N4  UNL     1       7.112  -3.358  30.770  1.00  0.00    -0.245 N 
HETATM   28  C5  UNL     1       7.710  -4.676  30.680  1.00  0.00     0.183 C 
BRANCH  27  29
HETATM   29  N5  UNL     1       6.440  -3.014  31.942  1.00  0.00    -0.237 N 
HETATM   30  N6  UNL     1       6.926  -2.341  32.870  1.00  0.00    -0.281 N 
ATOM     31  H6  UNL     1       6.367  -2.130  33.697  1.00  0.00     0.188 HD
ATOM     32  H5  UNL     1       5.478  -3.338  32.046  1.00  0.00     0.208 HD
BRANCH  30  33
HETATM   33  C6  UNL     1       8.261  -1.868  32.772  1.00  0.00     0.109 A 
HETATM   34  C7  UNL     1       9.372  -2.641  33.038  1.00  0.00     0.141 A 
HETATM   35  N7  UNL     1      10.591  -2.098  32.915  1.00  0.00    -0.200 N 
HETATM   36  C8  UNL     1      10.813  -0.825  32.544  1.00  0.00     0.677 A 
ATOM     37  H7  UNL     1      11.400  -2.687  33.116  1.00  0.00     0.183 HD
HETATM   38  N9  UNL     1       9.743  -0.056  32.280  1.00  0.00    -0.175 N 
HETATM   39  C9  UNL     1       8.495  -0.555  32.388  1.00  0.00     0.144 A 
ATOM     40  H9  UNL     1       9.876   0.914  31.994  1.00  0.00     0.186 HD
BRANCH  36  41
HETATM   41  N8  UNL     1      12.019  -0.329  32.436  1.00  0.00    -0.234 N 
ATOM     42  H82 UNL     1      12.783  -0.914  32.099  1.00  0.00     0.174 HD
ATOM     43  H81 UNL     1      12.234   0.638  32.678  1.00  0.00     0.174 HD
ENDBRANCH  36  41
BRANCH  39  44
HETATM   44  N10 UNL     1       7.493   0.206  32.127  1.00  0.00    -0.383 N 
ATOM     45 2H10 UNL     1       6.557  -0.198  32.101  1.00  0.00     0.157 HD
ATOM     46 1H10 UNL     1       7.657   1.198  31.953  1.00  0.00     0.157 HD
ENDBRANCH  39  44
ENDBRANCH  30  33
ENDBRANCH  27  29
ENDBRANCH   1  27
TORSDOF 11
ENDMDL
