MODEL 1
REMARK VINA RESULT: -7.581157493      0.000      0.000
REMARK  10 active torsions:
REMARK  status: ('A' for Active; 'I' for Inactive)
REMARK    1  A    between atoms: C2_5  and  C3_6 
REMARK    2  A    between atoms: C3_6  and  O1_7 
REMARK    3  A    between atoms: C3_6  and  N3_9 
REMARK    4  A    between atoms: N3_9  and  C4_11 
REMARK    5  A    between atoms: C4_11  and  C5_12 
REMARK    6  A    between atoms: C5_12  and  C6_13 
REMARK    7  A    between atoms: N4_15  and  C8_16 
REMARK    8  A    between atoms: C11_26  and  N8_27 
REMARK    9  A    between atoms: N12_36  and  N13_38 
REMARK   10  A    between atoms: C13_43  and  N15_44 
ROOT
HETATM    1  C4  UNL     1       2.884 -10.050  26.002  1.00  0.00     0.122 C 
ENDROOT
BRANCH   1   2
HETATM    2  N3  UNL     1       1.675  -9.641  26.607  1.00  0.00    -0.392 N 
ATOM      3  H3  UNL     1       0.770  -9.773  26.156  1.00  0.00     0.156 HD
BRANCH   2   4
HETATM    4  C3  UNL     1       1.803  -9.038  27.881  1.00  0.00     0.270 C 
BRANCH   4   5
HETATM    5  C2  UNL     1       1.046  -9.816  28.892  1.00  0.00     0.120 A 
HETATM    6  N2  UNL     1       0.104 -10.708  28.498  1.00  0.00    -0.281 N 
HETATM    7  N1  UNL     1      -0.676 -11.384  29.312  1.00  0.00    -0.128 N 
ATOM      8  H2  UNL     1      -0.008 -10.867  27.497  1.00  0.00     0.187 HD
HETATM    9  C1  UNL     1      -1.660 -12.322  28.802  1.00  0.00     0.197 C 
HETATM   10  C13 UNL     1      -0.513 -11.159  30.624  1.00  0.00     0.694 A 
HETATM   11  N14 UNL     1       0.382 -10.309  31.063  1.00  0.00    -0.172 N 
HETATM   12  C12 UNL     1       1.221  -9.583  30.233  1.00  0.00     0.163 A 
ATOM     13  H14 UNL     1       0.466 -10.174  32.071  1.00  0.00     0.186 HD
HETATM   14  N12 UNL     1       2.070  -8.848  30.796  1.00  0.00    -0.290 N 
ATOM     15  H12 UNL     1       1.961  -8.866  31.810  1.00  0.00     0.188 HD
BRANCH  10  16
HETATM   16  N15 UNL     1      -1.301 -11.842  31.410  1.00  0.00    -0.233 N 
ATOM     17 2H15 UNL     1      -1.704 -12.743  31.154  1.00  0.00     0.174 HD
ATOM     18 1H15 UNL     1      -1.494 -11.411  32.314  1.00  0.00     0.174 HD
ENDBRANCH  10  16
BRANCH  14  19
HETATM   19  N13 UNL     1       3.067  -8.057  30.436  1.00  0.00    -0.344 N 
ATOM     20 2H13 UNL     1       2.808  -7.083  30.590  1.00  0.00     0.176 HD
ATOM     21 1H13 UNL     1       4.006  -8.160  30.052  1.00  0.00     0.176 HD
ENDBRANCH  14  19
ENDBRANCH   4   5
BRANCH   4  22
HETATM   22  O1  UNL     1       1.539  -7.676  27.890  1.00  0.00    -0.371 OA
ATOM     23  H1  UNL     1       2.246  -7.142  28.233  1.00  0.00     0.212 HD
ENDBRANCH   4  22
ENDBRANCH   2   4
ENDBRANCH   1   2
BRANCH   1  24
HETATM   24  C5  UNL     1       4.043  -9.088  26.169  1.00  0.00     0.079 C 
BRANCH  24  25
HETATM   25  C6  UNL     1       5.087  -9.323  25.132  1.00  0.00     0.043 A 
HETATM   26  C7  UNL     1       5.412 -10.524  24.539  1.00  0.00     0.159 A 
HETATM   27  N4  UNL     1       6.417 -10.350  23.631  1.00  0.00    -0.080 N 
HETATM   28  N10 UNL     1       6.692  -9.058  23.679  1.00  0.00    -0.001 NA
HETATM   29  N11 UNL     1       5.916  -8.430  24.561  1.00  0.00    -0.286 N 
ATOM     30  H11 UNL     1       5.945  -7.433  24.769  1.00  0.00     0.184 HD
BRANCH  27  31
HETATM   31  C8  UNL     1       6.999 -11.366  22.836  1.00  0.00     0.705 A 
HETATM   32  N5  UNL     1       7.842 -12.271  23.310  1.00  0.00    -0.172 N 
HETATM   33  C9  UNL     1       8.403 -13.255  22.529  1.00  0.00     0.159 A 
ATOM     34  H5  UNL     1       8.088 -12.236  24.299  1.00  0.00     0.186 HD
HETATM   35  N6  UNL     1       9.255 -14.179  22.979  1.00  0.00    -0.296 N 
HETATM   36  C10 UNL     1       8.086 -13.311  21.227  1.00  0.00     0.129 A 
HETATM   37  S1  UNL     1       9.606 -15.101  21.622  1.00  0.00     0.069 SA
ATOM     38  H6  UNL     1       9.610 -14.298  23.928  1.00  0.00     0.177 HD
HETATM   39  N7  UNL     1       8.654 -14.284  20.507  1.00  0.00    -0.306 N 
ATOM     40  H7  UNL     1       8.536 -14.483  19.514  1.00  0.00     0.176 HD
HETATM   41  C11 UNL     1       7.190 -12.354  20.719  1.00  0.00     0.146 A 
HETATM   42  N9  UNL     1       6.688 -11.431  21.532  1.00  0.00    -0.173 N 
ATOM     43  H9  UNL     1       6.040 -10.743  21.150  1.00  0.00     0.186 HD
BRANCH  41  44
HETATM   44  N8  UNL     1       6.849 -12.356  19.480  1.00  0.00    -0.383 N 
ATOM     45  H82 UNL     1       6.445 -13.200  19.073  1.00  0.00     0.157 HD
ATOM     46  H81 UNL     1       6.975 -11.528  18.897  1.00  0.00     0.157 HD
ENDBRANCH  41  44
ENDBRANCH  27  31
ENDBRANCH  24  25
ENDBRANCH   1  24
TORSDOF 10
ENDMDL
MODEL 2
REMARK VINA RESULT: -7.416137703      3.417     10.531
REMARK  10 active torsions:
REMARK  status: ('A' for Active; 'I' for Inactive)
REMARK    1  A    between atoms: C2_5  and  C3_6 
REMARK    2  A    between atoms: C3_6  and  O1_7 
REMARK    3  A    between atoms: C3_6  and  N3_9 
REMARK    4  A    between atoms: N3_9  and  C4_11 
REMARK    5  A    between atoms: C4_11  and  C5_12 
REMARK    6  A    between atoms: C5_12  and  C6_13 
REMARK    7  A    between atoms: N4_15  and  C8_16 
REMARK    8  A    between atoms: C11_26  and  N8_27 
REMARK    9  A    between atoms: N12_36  and  N13_38 
REMARK   10  A    between atoms: C13_43  and  N15_44 
ROOT
HETATM    1  C4  UNL     1       6.128 -10.653  24.327  1.00  0.00     0.122 C 
ENDROOT
BRANCH   1   2
HETATM    2  N3  UNL     1       6.909 -11.723  23.841  1.00  0.00    -0.392 N 
ATOM      3  H3  UNL     1       7.351 -12.400  24.463  1.00  0.00     0.156 HD
BRANCH   2   4
HETATM    4  C3  UNL     1       7.038 -11.796  22.433  1.00  0.00     0.270 C 
BRANCH   4   5
HETATM    5  C2  UNL     1       7.879 -12.957  22.057  1.00  0.00     0.120 A 
HETATM    6  N2  UNL     1       8.529 -13.666  23.014  1.00  0.00    -0.281 N 
HETATM    7  N1  UNL     1       9.361 -14.656  22.781  1.00  0.00    -0.128 N 
ATOM      8  H2  UNL     1       8.360 -13.411  23.987  1.00  0.00     0.187 HD
HETATM    9  C1  UNL     1      10.014 -15.360  23.869  1.00  0.00     0.197 C 
HETATM   10  C13 UNL     1       9.570 -14.973  21.494  1.00  0.00     0.694 A 
HETATM   11  N14 UNL     1       8.970 -14.325  20.527  1.00  0.00    -0.172 N 
HETATM   12  C12 UNL     1       8.086 -13.278  20.739  1.00  0.00     0.163 A 
ATOM     13  H14 UNL     1       9.163 -14.606  19.565  1.00  0.00     0.186 HD
HETATM   14  N12 UNL     1       7.540 -12.788  19.719  1.00  0.00    -0.290 N 
ATOM     15  H12 UNL     1       7.893 -13.222  18.866  1.00  0.00     0.188 HD
BRANCH  10  16
HETATM   16  N15 UNL     1      10.401 -15.958  21.290  1.00  0.00    -0.233 N 
ATOM     17 2H15 UNL     1      10.520 -16.735  21.941  1.00  0.00     0.174 HD
ATOM     18 1H15 UNL     1      10.936 -15.905  20.423  1.00  0.00     0.174 HD
ENDBRANCH  10  16
BRANCH  14  19
HETATM   19  N13 UNL     1       6.634 -11.865  19.447  1.00  0.00    -0.344 N 
ATOM     20 2H13 UNL     1       5.985 -12.215  18.742  1.00  0.00     0.176 HD
ATOM     21 1H13 UNL     1       6.416 -10.915  19.747  1.00  0.00     0.176 HD
ENDBRANCH  14  19
ENDBRANCH   4   5
BRANCH   4  22
HETATM   22  O1  UNL     1       7.413 -10.600  21.837  1.00  0.00    -0.371 OA
ATOM     23  H1  UNL     1       7.413  -9.853  22.423  1.00  0.00     0.212 HD
ENDBRANCH   4  22
ENDBRANCH   2   4
ENDBRANCH   1   2
BRANCH   1  24
HETATM   24  C5  UNL     1       4.641 -10.770  24.060  1.00  0.00     0.079 C 
BRANCH  24  25
HETATM   25  C6  UNL     1       3.850 -10.090  25.125  1.00  0.00     0.043 A 
HETATM   26  C7  UNL     1       3.098 -10.692  26.112  1.00  0.00     0.159 A 
HETATM   27  N4  UNL     1       2.518  -9.748  26.911  1.00  0.00    -0.080 N 
HETATM   28  N10 UNL     1       2.918  -8.593  26.409  1.00  0.00    -0.001 NA
HETATM   29  N11 UNL     1       3.708  -8.772  25.351  1.00  0.00    -0.286 N 
ATOM     30  H11 UNL     1       4.137  -8.029  24.801  1.00  0.00     0.184 HD
BRANCH  27  31
HETATM   31  C8  UNL     1       1.682 -10.006  28.022  1.00  0.00     0.705 A 
HETATM   32  N5  UNL     1       0.650 -10.836  27.983  1.00  0.00    -0.172 N 
HETATM   33  C9  UNL     1      -0.158 -11.081  29.070  1.00  0.00     0.159 A 
ATOM     34  H5  UNL     1       0.444 -11.316  27.106  1.00  0.00     0.186 HD
HETATM   35  N6  UNL     1      -1.203 -11.912  29.059  1.00  0.00    -0.296 N 
HETATM   36  C10 UNL     1       0.104 -10.457  30.228  1.00  0.00     0.129 A 
HETATM   37  S1  UNL     1      -1.806 -11.823  30.622  1.00  0.00     0.069 SA
ATOM     38  H6  UNL     1      -1.554 -12.470  28.281  1.00  0.00     0.177 HD
HETATM   39  N7  UNL     1      -0.706 -10.725  31.257  1.00  0.00    -0.306 N 
ATOM     40  H7  UNL     1      -0.666 -10.351  32.204  1.00  0.00     0.176 HD
HETATM   41  C11 UNL     1       1.199  -9.576  30.276  1.00  0.00     0.146 A 
HETATM   42  N9  UNL     1       1.935  -9.387  29.185  1.00  0.00    -0.173 N 
ATOM     43  H9  UNL     1       2.726  -8.745  29.235  1.00  0.00     0.186 HD
BRANCH  41  44
HETATM   44  N8  UNL     1       1.499  -8.949  31.356  1.00  0.00    -0.383 N 
ATOM     45  H82 UNL     1       1.854  -9.471  32.157  1.00  0.00     0.157 HD
ATOM     46  H81 UNL     1       1.388  -7.937  31.426  1.00  0.00     0.157 HD
ENDBRANCH  41  44
ENDBRANCH  27  31
ENDBRANCH  24  25
ENDBRANCH   1  24
TORSDOF 10
ENDMDL
MODEL 3
REMARK VINA RESULT: -7.384297692      3.484     10.497
REMARK  10 active torsions:
REMARK  status: ('A' for Active; 'I' for Inactive)
REMARK    1  A    between atoms: C2_5  and  C3_6 
REMARK    2  A    between atoms: C3_6  and  O1_7 
REMARK    3  A    between atoms: C3_6  and  N3_9 
REMARK    4  A    between atoms: N3_9  and  C4_11 
REMARK    5  A    between atoms: C4_11  and  C5_12 
REMARK    6  A    between atoms: C5_12  and  C6_13 
REMARK    7  A    between atoms: N4_15  and  C8_16 
REMARK    8  A    between atoms: C11_26  and  N8_27 
REMARK    9  A    between atoms: N12_36  and  N13_38 
REMARK   10  A    between atoms: C13_43  and  N15_44 
ROOT
HETATM    1  C4  UNL     1       6.122 -10.644  24.273  1.00  0.00     0.122 C 
ENDROOT
BRANCH   1   2
HETATM    2  N3  UNL     1       6.921 -11.711  23.809  1.00  0.00    -0.392 N 
ATOM      3  H3  UNL     1       7.368 -12.371  24.445  1.00  0.00     0.156 HD
BRANCH   2   4
HETATM    4  C3  UNL     1       7.061 -11.805  22.404  1.00  0.00     0.270 C 
BRANCH   4   5
HETATM    5  C2  UNL     1       7.898 -12.977  22.051  1.00  0.00     0.120 A 
HETATM    6  N2  UNL     1       8.535 -13.676  23.023  1.00  0.00    -0.281 N 
HETATM    7  N1  UNL     1       9.362 -14.675  22.811  1.00  0.00    -0.128 N 
ATOM      8  H2  UNL     1       8.359 -13.408  23.991  1.00  0.00     0.187 HD
HETATM    9  C1  UNL     1      10.000 -15.369  23.914  1.00  0.00     0.197 C 
HETATM   10  C13 UNL     1       9.580 -15.010  21.530  1.00  0.00     0.694 A 
HETATM   11  N14 UNL     1       8.993 -14.372  20.549  1.00  0.00    -0.172 N 
HETATM   12  C12 UNL     1       8.115 -13.317  20.739  1.00  0.00     0.163 A 
ATOM     13  H14 UNL     1       9.194 -14.666  19.593  1.00  0.00     0.186 HD
HETATM   14  N12 UNL     1       7.581 -12.837  19.707  1.00  0.00    -0.290 N 
ATOM     15  H12 UNL     1       7.939 -13.284  18.864  1.00  0.00     0.188 HD
BRANCH  10  16
HETATM   16  N15 UNL     1      10.407 -16.004  21.347  1.00  0.00    -0.233 N 
ATOM     17 2H15 UNL     1      11.324 -16.060  21.792  1.00  0.00     0.174 HD
ATOM     18 1H15 UNL     1      10.076 -16.736  20.720  1.00  0.00     0.174 HD
ENDBRANCH  10  16
BRANCH  14  19
HETATM   19  N13 UNL     1       6.684 -11.911  19.415  1.00  0.00    -0.344 N 
ATOM     20 2H13 UNL     1       6.995 -11.006  19.765  1.00  0.00     0.176 HD
ATOM     21 1H13 UNL     1       5.781 -11.863  18.942  1.00  0.00     0.176 HD
ENDBRANCH  14  19
ENDBRANCH   4   5
BRANCH   4  22
HETATM   22  O1  UNL     1       7.448 -10.620  21.794  1.00  0.00    -0.371 OA
ATOM     23  H1  UNL     1       6.834 -10.294  21.147  1.00  0.00     0.212 HD
ENDBRANCH   4  22
ENDBRANCH   2   4
ENDBRANCH   1   2
BRANCH   1  24
HETATM   24  C5  UNL     1       4.631 -10.824  24.073  1.00  0.00     0.079 C 
BRANCH  24  25
HETATM   25  C6  UNL     1       3.859 -10.128  25.141  1.00  0.00     0.043 A 
HETATM   26  C7  UNL     1       3.137 -10.714  26.159  1.00  0.00     0.159 A 
HETATM   27  N4  UNL     1       2.567  -9.757  26.950  1.00  0.00    -0.080 N 
HETATM   28  N10 UNL     1       2.943  -8.610  26.412  1.00  0.00    -0.001 NA
HETATM   29  N11 UNL     1       3.710  -8.806  25.340  1.00  0.00    -0.286 N 
ATOM     30  H11 UNL     1       4.118  -8.071  24.763  1.00  0.00     0.184 HD
BRANCH  27  31
HETATM   31  C8  UNL     1       1.760  -9.998  28.087  1.00  0.00     0.705 A 
HETATM   32  N5  UNL     1       2.066  -9.570  29.303  1.00  0.00    -0.172 N 
HETATM   33  C9  UNL     1       1.275  -9.808  30.403  1.00  0.00     0.159 A 
ATOM     34  H5  UNL     1       2.928  -9.038  29.430  1.00  0.00     0.186 HD
HETATM   35  N6  UNL     1       1.558  -9.389  31.639  1.00  0.00    -0.296 N 
HETATM   36  C10 UNL     1       0.139 -10.505  30.249  1.00  0.00     0.129 A 
HETATM   37  S1  UNL     1       0.274  -9.952  32.560  1.00  0.00     0.069 SA
ATOM     38  H6  UNL     1       2.366  -8.851  31.950  1.00  0.00     0.177 HD
HETATM   39  N7  UNL     1      -0.598 -10.712  31.344  1.00  0.00    -0.306 N 
ATOM     40  H7  UNL     1      -1.482 -11.214  31.423  1.00  0.00     0.176 HD
HETATM   41  C11 UNL     1      -0.191 -10.961  28.960  1.00  0.00     0.146 A 
HETATM   42  N9  UNL     1       0.622 -10.693  27.943  1.00  0.00    -0.173 N 
ATOM     43  H9  UNL     1       0.370 -11.031  27.014  1.00  0.00     0.186 HD
BRANCH  41  44
HETATM   44  N8  UNL     1      -1.265 -11.633  28.749  1.00  0.00    -0.383 N 
ATOM     45  H82 UNL     1      -1.202 -12.632  28.553  1.00  0.00     0.157 HD
ATOM     46  H81 UNL     1      -2.182 -11.184  28.777  1.00  0.00     0.157 HD
ENDBRANCH  41  44
ENDBRANCH  27  31
ENDBRANCH  24  25
ENDBRANCH   1  24
TORSDOF 10
ENDMDL
MODEL 4
REMARK VINA RESULT: -7.279909214      6.642      9.056
REMARK  10 active torsions:
REMARK  status: ('A' for Active; 'I' for Inactive)
REMARK    1  A    between atoms: C2_5  and  C3_6 
REMARK    2  A    between atoms: C3_6  and  O1_7 
REMARK    3  A    between atoms: C3_6  and  N3_9 
REMARK    4  A    between atoms: N3_9  and  C4_11 
REMARK    5  A    between atoms: C4_11  and  C5_12 
REMARK    6  A    between atoms: C5_12  and  C6_13 
REMARK    7  A    between atoms: N4_15  and  C8_16 
REMARK    8  A    between atoms: C11_26  and  N8_27 
REMARK    9  A    between atoms: N12_36  and  N13_38 
REMARK   10  A    between atoms: C13_43  and  N15_44 
ROOT
HETATM    1  C4  UNL     1       9.395  -4.104  27.476  1.00  0.00     0.122 C 
ENDROOT
BRANCH   1   2
HETATM    2  N3  UNL     1       8.641  -3.072  28.076  1.00  0.00    -0.392 N 
ATOM      3  H3  UNL     1       8.476  -3.033  29.081  1.00  0.00     0.156 HD
BRANCH   2   4
HETATM    4  C3  UNL     1       8.130  -2.094  27.189  1.00  0.00     0.270 C 
BRANCH   4   5
HETATM    5  C2  UNL     1       7.584  -0.947  27.954  1.00  0.00     0.120 A 
HETATM    6  N2  UNL     1       7.342  -1.069  29.283  1.00  0.00    -0.281 N 
HETATM    7  N1  UNL     1       6.785  -0.144  30.033  1.00  0.00    -0.128 N 
ATOM      8  H2  UNL     1       7.611  -1.942  29.735  1.00  0.00     0.187 HD
HETATM    9  C1  UNL     1       6.563  -0.360  31.451  1.00  0.00     0.197 C 
HETATM   10  C13 UNL     1       6.437   0.997  29.418  1.00  0.00     0.694 A 
HETATM   11  N14 UNL     1       6.648   1.172  28.137  1.00  0.00    -0.172 N 
HETATM   12  C12 UNL     1       7.234   0.218  27.320  1.00  0.00     0.163 A 
ATOM     13  H14 UNL     1       6.364   2.058  27.718  1.00  0.00     0.186 HD
HETATM   14  N12 UNL     1       7.426   0.546  26.122  1.00  0.00    -0.290 N 
ATOM     15  H12 UNL     1       7.054   1.476  25.929  1.00  0.00     0.188 HD
BRANCH  10  16
HETATM   16  N15 UNL     1       5.885   1.898  30.185  1.00  0.00    -0.233 N 
ATOM     17 2H15 UNL     1       6.415   2.494  30.821  1.00  0.00     0.174 HD
ATOM     18 1H15 UNL     1       4.871   1.972  30.108  1.00  0.00     0.174 HD
ENDBRANCH  10  16
BRANCH  14  19
HETATM   19  N13 UNL     1       7.978   0.018  25.044  1.00  0.00    -0.344 N 
ATOM     20 2H13 UNL     1       8.886  -0.382  25.281  1.00  0.00     0.176 HD
ATOM     21 1H13 UNL     1       7.743  -0.094  24.057  1.00  0.00     0.176 HD
ENDBRANCH  14  19
ENDBRANCH   4   5
BRANCH   4  22
HETATM   22  O1  UNL     1       7.270  -2.600  26.224  1.00  0.00    -0.371 OA
ATOM     23  H1  UNL     1       6.576  -3.149  26.568  1.00  0.00     0.212 HD
ENDBRANCH   4  22
ENDBRANCH   2   4
ENDBRANCH   1   2
BRANCH   1  24
HETATM   24  C5  UNL     1       9.292  -5.454  28.156  1.00  0.00     0.079 C 
BRANCH  24  25
HETATM   25  C6  UNL     1       8.013  -6.134  27.806  1.00  0.00     0.043 A 
HETATM   26  C7  UNL     1       7.815  -7.065  26.808  1.00  0.00     0.159 A 
HETATM   27  N4  UNL     1       6.511  -7.471  26.787  1.00  0.00    -0.080 N 
HETATM   28  N10 UNL     1       5.933  -6.791  27.762  1.00  0.00    -0.001 NA
HETATM   29  N11 UNL     1       6.805  -5.994  28.379  1.00  0.00    -0.286 N 
ATOM     30  H11 UNL     1       6.590  -5.376  29.161  1.00  0.00     0.184 HD
BRANCH  27  31
HETATM   31  C8  UNL     1       5.954  -8.418  25.896  1.00  0.00     0.705 A 
HETATM   32  N5  UNL     1       6.629  -8.965  24.896  1.00  0.00    -0.172 N 
HETATM   33  C9  UNL     1       6.078  -9.885  24.034  1.00  0.00     0.159 A 
ATOM     34  H5  UNL     1       7.602  -8.691  24.758  1.00  0.00     0.186 HD
HETATM   35  N6  UNL     1       6.735 -10.452  23.019  1.00  0.00    -0.296 N 
HETATM   36  C10 UNL     1       4.801 -10.254  24.207  1.00  0.00     0.129 A 
HETATM   37  S1  UNL     1       5.598 -11.472  22.323  1.00  0.00     0.069 SA
ATOM     38  H6  UNL     1       7.702 -10.301  22.733  1.00  0.00     0.177 HD
HETATM   39  N7  UNL     1       4.308 -11.152  23.347  1.00  0.00    -0.306 N 
ATOM     40  H7  UNL     1       3.369 -11.548  23.320  1.00  0.00     0.176 HD
HETATM   41  C11 UNL     1       4.080  -9.678  25.268  1.00  0.00     0.146 A 
HETATM   42  N9  UNL     1       4.677  -8.794  26.060  1.00  0.00    -0.173 N 
ATOM     43  H9  UNL     1       4.141  -8.384  26.825  1.00  0.00     0.186 HD
BRANCH  41  44
HETATM   44  N8  UNL     1       2.852  -9.991  25.483  1.00  0.00    -0.383 N 
ATOM     45  H82 UNL     1       2.207 -10.060  24.696  1.00  0.00     0.157 HD
ATOM     46  H81 UNL     1       2.513 -10.174  26.428  1.00  0.00     0.157 HD
ENDBRANCH  41  44
ENDBRANCH  27  31
ENDBRANCH  24  25
ENDBRANCH   1  24
TORSDOF 10
ENDMDL
MODEL 5
REMARK VINA RESULT: -7.199164908      7.358      9.450
REMARK  10 active torsions:
REMARK  status: ('A' for Active; 'I' for Inactive)
REMARK    1  A    between atoms: C2_5  and  C3_6 
REMARK    2  A    between atoms: C3_6  and  O1_7 
REMARK    3  A    between atoms: C3_6  and  N3_9 
REMARK    4  A    between atoms: N3_9  and  C4_11 
REMARK    5  A    between atoms: C4_11  and  C5_12 
REMARK    6  A    between atoms: C5_12  and  C6_13 
REMARK    7  A    between atoms: N4_15  and  C8_16 
REMARK    8  A    between atoms: C11_26  and  N8_27 
REMARK    9  A    between atoms: N12_36  and  N13_38 
REMARK   10  A    between atoms: C13_43  and  N15_44 
ROOT
HETATM    1  C4  UNL     1       7.667  -3.261  29.303  1.00  0.00     0.122 C 
ENDROOT
BRANCH   1   2
HETATM    2  N3  UNL     1       7.263  -2.272  30.226  1.00  0.00    -0.392 N 
ATOM      3  H3  UNL     1       6.336  -2.272  30.651  1.00  0.00     0.156 HD
BRANCH   2   4
HETATM    4  C3  UNL     1       8.228  -1.281  30.523  1.00  0.00     0.270 C 
BRANCH   4   5
HETATM    5  C2  UNL     1       8.799  -1.513  31.873  1.00  0.00     0.120 A 
HETATM    6  N2  UNL     1       8.177  -2.350  32.740  1.00  0.00    -0.281 N 
HETATM    7  N1  UNL     1       8.554  -2.559  33.982  1.00  0.00    -0.128 N 
ATOM      8  H2  UNL     1       7.357  -2.855  32.404  1.00  0.00     0.187 HD
HETATM    9  C1  UNL     1       7.828  -3.476  34.842  1.00  0.00     0.197 C 
HETATM   10  C13 UNL     1       9.634  -1.884  34.402  1.00  0.00     0.694 A 
HETATM   11  N14 UNL     1      10.276  -1.063  33.610  1.00  0.00    -0.172 N 
HETATM   12  C12 UNL     1       9.906  -0.822  32.296  1.00  0.00     0.163 A 
ATOM     13  H14 UNL     1      11.092  -0.574  33.979  1.00  0.00     0.186 HD
HETATM   14  N12 UNL     1      10.650  -0.053  31.635  1.00  0.00    -0.290 N 
ATOM     15  H12 UNL     1      11.400   0.324  32.214  1.00  0.00     0.188 HD
BRANCH  10  16
HETATM   16  N15 UNL     1       9.985  -2.109  35.640  1.00  0.00    -0.233 N 
ATOM     17 2H15 UNL     1       9.593  -1.604  36.435  1.00  0.00     0.174 HD
ATOM     18 1H15 UNL     1      10.690  -2.836  35.767  1.00  0.00     0.174 HD
ENDBRANCH  10  16
BRANCH  14  19
HETATM   19  N13 UNL     1      10.727   0.401  30.396  1.00  0.00    -0.344 N 
ATOM     20 2H13 UNL     1      11.697   0.617  30.167  1.00  0.00     0.176 HD
ATOM     21 1H13 UNL     1      10.088   0.590  29.624  1.00  0.00     0.176 HD
ENDBRANCH  14  19
ENDBRANCH   4   5
BRANCH   4  22
HETATM   22  O1  UNL     1       7.793   0.018  30.301  1.00  0.00    -0.371 OA
ATOM     23  H1  UNL     1       7.169   0.337  30.942  1.00  0.00     0.212 HD
ENDBRANCH   4  22
ENDBRANCH   2   4
ENDBRANCH   1   2
BRANCH   1  24
HETATM   24  C5  UNL     1       7.565  -4.687  29.803  1.00  0.00     0.079 C 
BRANCH  24  25
HETATM   25  C6  UNL     1       7.672  -5.659  28.678  1.00  0.00     0.043 A 
HETATM   26  C7  UNL     1       6.647  -6.387  28.112  1.00  0.00     0.159 A 
HETATM   27  N4  UNL     1       7.123  -7.170  27.099  1.00  0.00    -0.080 N 
HETATM   28  N10 UNL     1       8.419  -6.915  27.059  1.00  0.00    -0.001 NA
HETATM   29  N11 UNL     1       8.766  -6.021  27.986  1.00  0.00    -0.286 N 
ATOM     30  H11 UNL     1       9.709  -5.669  28.143  1.00  0.00     0.184 HD
BRANCH  27  31
HETATM   31  C8  UNL     1       6.352  -8.044  26.298  1.00  0.00     0.705 A 
HETATM   32  N5  UNL     1       6.859  -8.766  25.309  1.00  0.00    -0.172 N 
HETATM   33  C9  UNL     1       6.101  -9.614  24.535  1.00  0.00     0.159 A 
ATOM     34  H5  UNL     1       7.857  -8.690  25.113  1.00  0.00     0.186 HD
HETATM   35  N6  UNL     1       6.584 -10.353  23.533  1.00  0.00    -0.296 N 
HETATM   36  C10 UNL     1       4.788  -9.724  24.784  1.00  0.00     0.129 A 
HETATM   37  S1  UNL     1       5.242 -11.177  22.955  1.00  0.00     0.069 SA
ATOM     38  H6  UNL     1       7.546 -10.405  23.198  1.00  0.00     0.177 HD
HETATM   39  N7  UNL     1       4.091 -10.559  24.008  1.00  0.00    -0.306 N 
ATOM     40  H7  UNL     1       3.094 -10.771  24.046  1.00  0.00     0.176 HD
HETATM   41  C11 UNL     1       4.245  -8.960  25.833  1.00  0.00     0.146 A 
HETATM   42  N9  UNL     1       5.038  -8.161  26.539  1.00  0.00    -0.173 N 
ATOM     43  H9  UNL     1       4.630  -7.613  27.297  1.00  0.00     0.186 HD
BRANCH  41  44
HETATM   44  N8  UNL     1       2.994  -9.022  26.120  1.00  0.00    -0.383 N 
ATOM     45  H82 UNL     1       2.672  -9.691  26.820  1.00  0.00     0.157 HD
ATOM     46  H81 UNL     1       2.317  -8.413  25.660  1.00  0.00     0.157 HD
ENDBRANCH  41  44
ENDBRANCH  27  31
ENDBRANCH  24  25
ENDBRANCH   1  24
TORSDOF 10
ENDMDL
