MODEL 1
REMARK VINA RESULT: -7.039332703      0.000      0.000
REMARK  3 active torsions:
REMARK  status: ('A' for Active; 'I' for Inactive)
REMARK    1  A    between atoms: C4_7  and  N2_8 
REMARK    2  A    between atoms: N2_8  and  C5_10 
REMARK    3  A    between atoms: C5_10  and  C6_11 
ROOT
HETATM    1  S1  UNL     1     -15.092  -1.848 -32.021  1.00  0.00    -0.040 SA
HETATM    2  C1  UNL     1     -16.210  -2.471 -30.985  1.00  0.00     0.177 A 
HETATM    3  N1  UNL     1     -17.431  -2.808 -31.441  1.00  0.00    -0.343 N 
ATOM      4  H1  UNL     1     -17.664  -2.679 -32.425  1.00  0.00     0.167 HD
HETATM    5  C2  UNL     1     -18.329  -3.309 -30.602  1.00  0.00     0.094 A 
HETATM    6  C3  UNL     1     -17.974  -3.469 -29.274  1.00  0.00     0.065 A 
HETATM    7  C4  UNL     1     -16.730  -3.128 -28.802  1.00  0.00     0.104 A 
HETATM    8  N3  UNL     1     -15.854  -2.623 -29.695  1.00  0.00    -0.319 N 
ATOM      9  H3  UNL     1     -14.917  -2.355 -29.391  1.00  0.00     0.169 HD
ENDROOT
BRANCH   7  10
HETATM   10  N2  UNL     1     -16.338  -3.250 -27.588  1.00  0.00    -0.376 N 
ATOM     11  H2  UNL     1     -17.004  -3.047 -26.843  1.00  0.00     0.161 HD
BRANCH  10  12
HETATM   12  C5  UNL     1     -15.020  -3.656 -27.223  1.00  0.00     0.126 C 
BRANCH  12  13
HETATM   13  C6  UNL     1     -15.110  -5.017 -26.515  1.00  0.00     0.003 C 
HETATM   14  C7  UNL     1     -16.367  -5.148 -25.715  1.00  0.00     0.006 C 
HETATM   15  C8  UNL     1     -17.276  -6.244 -26.143  1.00  0.00     0.000 C 
HETATM   16  C9  UNL     1     -16.636  -7.515 -26.538  1.00  0.00     0.000 C 
HETATM   17  C10 UNL     1     -15.147  -7.424 -26.754  1.00  0.00     0.000 C 
HETATM   18  C11 UNL     1     -14.899  -6.118 -27.509  1.00  0.00     0.006 C 
ENDBRANCH  12  13
ENDBRANCH  10  12
ENDBRANCH   7  10
TORSDOF 3
ENDMDL
MODEL 2
REMARK VINA RESULT: -6.866889342      2.799      5.406
REMARK  3 active torsions:
REMARK  status: ('A' for Active; 'I' for Inactive)
REMARK    1  A    between atoms: C4_7  and  N2_8 
REMARK    2  A    between atoms: N2_8  and  C5_10 
REMARK    3  A    between atoms: C5_10  and  C6_11 
ROOT
HETATM    1  S1  UNL     1     -14.816  -7.975 -26.424  1.00  0.00    -0.040 SA
HETATM    2  C1  UNL     1     -15.820  -6.670 -26.411  1.00  0.00     0.177 A 
HETATM    3  N1  UNL     1     -17.116  -6.825 -26.084  1.00  0.00    -0.343 N 
ATOM      4  H1  UNL     1     -17.477  -7.748 -25.844  1.00  0.00     0.167 HD
HETATM    5  C2  UNL     1     -17.921  -5.770 -26.075  1.00  0.00     0.094 A 
HETATM    6  C3  UNL     1     -17.392  -4.534 -26.406  1.00  0.00     0.065 A 
HETATM    7  C4  UNL     1     -16.070  -4.369 -26.740  1.00  0.00     0.104 A 
HETATM    8  N3  UNL     1     -15.294  -5.472 -26.734  1.00  0.00    -0.319 N 
ATOM      9  H3  UNL     1     -14.306  -5.399 -26.976  1.00  0.00     0.169 HD
ENDROOT
BRANCH   7  10
HETATM   10  N2  UNL     1     -15.519  -3.255 -27.055  1.00  0.00    -0.376 N 
ATOM     11  H2  UNL     1     -14.603  -3.041 -26.661  1.00  0.00     0.161 HD
BRANCH  10  12
HETATM   12  C5  UNL     1     -16.117  -2.300 -27.929  1.00  0.00     0.126 C 
BRANCH  12  13
HETATM   13  C6  UNL     1     -15.808  -2.705 -29.378  1.00  0.00     0.003 C 
HETATM   14  C7  UNL     1     -17.031  -3.177 -30.099  1.00  0.00     0.006 C 
HETATM   15  C8  UNL     1     -17.417  -2.367 -31.283  1.00  0.00     0.000 C 
HETATM   16  C9  UNL     1     -16.315  -1.887 -32.143  1.00  0.00     0.000 C 
HETATM   17  C10 UNL     1     -14.944  -2.018 -31.531  1.00  0.00     0.000 C 
HETATM   18  C11 UNL     1     -15.081  -1.591 -30.069  1.00  0.00     0.006 C 
ENDBRANCH  12  13
ENDBRANCH  10  12
ENDBRANCH   7  10
TORSDOF 3
ENDMDL
MODEL 3
REMARK VINA RESULT: -6.763822921      1.227      1.345
REMARK  3 active torsions:
REMARK  status: ('A' for Active; 'I' for Inactive)
REMARK    1  A    between atoms: C4_7  and  N2_8 
REMARK    2  A    between atoms: N2_8  and  C5_10 
REMARK    3  A    between atoms: C5_10  and  C6_11 
ROOT
HETATM    1  S1  UNL     1     -13.884  -1.698 -32.687  1.00  0.00    -0.040 SA
HETATM    2  C1  UNL     1     -15.195  -2.089 -31.770  1.00  0.00     0.177 A 
HETATM    3  N1  UNL     1     -16.395  -2.264 -32.355  1.00  0.00    -0.343 N 
ATOM      4  H1  UNL     1     -16.493  -2.156 -33.364  1.00  0.00     0.167 HD
HETATM    5  C2  UNL     1     -17.448  -2.578 -31.612  1.00  0.00     0.094 A 
HETATM    6  C3  UNL     1     -17.273  -2.718 -30.245  1.00  0.00     0.065 A 
HETATM    7  C4  UNL     1     -16.051  -2.541 -29.642  1.00  0.00     0.104 A 
HETATM    8  N3  UNL     1     -15.013  -2.223 -30.441  1.00  0.00    -0.319 N 
ATOM      9  H3  UNL     1     -14.087  -2.082 -30.039  1.00  0.00     0.169 HD
ENDROOT
BRANCH   7  10
HETATM   10  N2  UNL     1     -15.822  -2.655 -28.386  1.00  0.00    -0.376 N 
ATOM     11  H2  UNL     1     -16.313  -2.030 -27.747  1.00  0.00     0.161 HD
BRANCH  10  12
HETATM   12  C5  UNL     1     -14.917  -3.610 -27.834  1.00  0.00     0.126 C 
BRANCH  12  13
HETATM   13  C6  UNL     1     -15.597  -4.286 -26.635  1.00  0.00     0.003 C 
HETATM   14  C7  UNL     1     -17.062  -3.986 -26.581  1.00  0.00     0.006 C 
HETATM   15  C8  UNL     1     -17.954  -5.170 -26.696  1.00  0.00     0.000 C 
HETATM   16  C9  UNL     1     -17.526  -6.390 -25.982  1.00  0.00     0.000 C 
HETATM   17  C10 UNL     1     -16.099  -6.363 -25.499  1.00  0.00     0.000 C 
HETATM   18  C11 UNL     1     -15.272  -5.749 -26.629  1.00  0.00     0.006 C 
ENDBRANCH  12  13
ENDBRANCH  10  12
ENDBRANCH   7  10
TORSDOF 3
ENDMDL
MODEL 4
REMARK VINA RESULT: -6.699082187      2.745      5.582
REMARK  3 active torsions:
REMARK  status: ('A' for Active; 'I' for Inactive)
REMARK    1  A    between atoms: C4_7  and  N2_8 
REMARK    2  A    between atoms: N2_8  and  C5_10 
REMARK    3  A    between atoms: C5_10  and  C6_11 
ROOT
HETATM    1  S1  UNL     1     -14.816  -8.222 -26.751  1.00  0.00    -0.040 SA
HETATM    2  C1  UNL     1     -15.749  -6.875 -26.583  1.00  0.00     0.177 A 
HETATM    3  N1  UNL     1     -16.955  -6.965 -25.993  1.00  0.00    -0.343 N 
ATOM      4  H1  UNL     1     -17.293  -7.864 -25.650  1.00  0.00     0.167 HD
HETATM    5  C2  UNL     1     -17.703  -5.877 -25.860  1.00  0.00     0.094 A 
HETATM    6  C3  UNL     1     -17.209  -4.674 -26.338  1.00  0.00     0.065 A 
HETATM    7  C4  UNL     1     -15.978  -4.576 -26.940  1.00  0.00     0.104 A 
HETATM    8  N3  UNL     1     -15.258  -5.711 -27.051  1.00  0.00    -0.319 N 
ATOM      9  H3  UNL     1     -14.338  -5.687 -27.491  1.00  0.00     0.169 HD
ENDROOT
BRANCH   7  10
HETATM   10  N2  UNL     1     -15.464  -3.497 -27.403  1.00  0.00    -0.376 N 
ATOM     11  H2  UNL     1     -15.476  -2.665 -26.813  1.00  0.00     0.161 HD
BRANCH  10  12
HETATM   12  C5  UNL     1     -14.874  -3.398 -28.697  1.00  0.00     0.126 C 
BRANCH  12  13
HETATM   13  C6  UNL     1     -15.742  -2.468 -29.557  1.00  0.00     0.003 C 
HETATM   14  C7  UNL     1     -14.912  -1.581 -30.431  1.00  0.00     0.006 C 
HETATM   15  C8  UNL     1     -15.120  -1.760 -31.892  1.00  0.00     0.000 C 
HETATM   16  C9  UNL     1     -16.511  -1.976 -32.339  1.00  0.00     0.000 C 
HETATM   17  C10 UNL     1     -17.481  -2.296 -31.230  1.00  0.00     0.000 C 
HETATM   18  C11 UNL     1     -16.765  -3.274 -30.299  1.00  0.00     0.006 C 
ENDBRANCH  12  13
ENDBRANCH  10  12
ENDBRANCH   7  10
TORSDOF 3
ENDMDL
MODEL 5
REMARK VINA RESULT: -6.677548036      2.783      5.506
REMARK  3 active torsions:
REMARK  status: ('A' for Active; 'I' for Inactive)
REMARK    1  A    between atoms: C4_7  and  N2_8 
REMARK    2  A    between atoms: N2_8  and  C5_10 
REMARK    3  A    between atoms: C5_10  and  C6_11 
ROOT
HETATM    1  S1  UNL     1     -17.638  -6.415 -25.592  1.00  0.00    -0.040 SA
HETATM    2  C1  UNL     1     -16.334  -5.966 -26.491  1.00  0.00     0.177 A 
HETATM    3  N1  UNL     1     -15.554  -6.906 -27.057  1.00  0.00    -0.343 N 
ATOM      4  H1  UNL     1     -15.770  -7.895 -26.930  1.00  0.00     0.167 HD
HETATM    5  C2  UNL     1     -14.504  -6.539 -27.780  1.00  0.00     0.094 A 
HETATM    6  C3  UNL     1     -14.246  -5.187 -27.929  1.00  0.00     0.065 A 
HETATM    7  C4  UNL     1     -15.038  -4.222 -27.355  1.00  0.00     0.104 A 
HETATM    8  N3  UNL     1     -16.092  -4.647 -26.630  1.00  0.00    -0.319 N 
ATOM      9  H3  UNL     1     -16.709  -3.968 -26.184  1.00  0.00     0.169 HD
ENDROOT
BRANCH   7  10
HETATM   10  N2  UNL     1     -14.855  -2.957 -27.454  1.00  0.00    -0.376 N 
ATOM     11  H2  UNL     1     -14.067  -2.543 -26.955  1.00  0.00     0.161 HD
BRANCH  10  12
HETATM   12  C5  UNL     1     -15.693  -2.099 -28.223  1.00  0.00     0.126 C 
BRANCH  12  13
HETATM   13  C6  UNL     1     -15.626  -2.543 -29.692  1.00  0.00     0.003 C 
HETATM   14  C7  UNL     1     -16.924  -3.125 -30.158  1.00  0.00     0.006 C 
HETATM   15  C8  UNL     1     -17.580  -2.394 -31.273  1.00  0.00     0.000 C 
HETATM   16  C9  UNL     1     -16.693  -1.879 -32.337  1.00  0.00     0.000 C 
HETATM   17  C10 UNL     1     -15.227  -1.892 -31.988  1.00  0.00     0.000 C 
HETATM   18  C11 UNL     1     -15.123  -1.414 -30.539  1.00  0.00     0.006 C 
ENDBRANCH  12  13
ENDBRANCH  10  12
ENDBRANCH   7  10
TORSDOF 3
ENDMDL
