MODEL 1
REMARK VINA RESULT: -6.154885027      0.000      0.000
REMARK  3 active torsions:
REMARK  status: ('A' for Active; 'I' for Inactive)
REMARK    1  A    between atoms: N1_1  and  C1_5 
REMARK    2  A    between atoms: C1_5  and  C2_6 
REMARK    3  A    between atoms: C2_6  and  O1_7 
ROOT
HETATM    1  C2  UNL     1     -15.691  -2.541 -30.373  1.00  0.00     0.081 C 
HETATM    2  C3  UNL     1     -15.213  -3.863 -30.881  1.00  0.00     0.039 C 
HETATM    3  C4  UNL     1     -14.079  -4.451 -30.119  1.00  0.00     0.003 C 
HETATM    4  C5  UNL     1     -14.458  -5.650 -29.283  1.00  0.00     0.000 C 
HETATM    5  C6  UNL     1     -14.088  -5.462 -27.831  1.00  0.00     0.000 C 
HETATM    6  C7  UNL     1     -14.929  -6.382 -26.987  1.00  0.00     0.000 C 
HETATM    7  C8  UNL     1     -15.636  -5.617 -25.870  1.00  0.00     0.000 C 
HETATM    8  C9  UNL     1     -17.069  -5.321 -26.214  1.00  0.00     0.000 C 
HETATM    9  C10 UNL     1     -17.360  -3.829 -26.255  1.00  0.00     0.000 C 
HETATM   10  C11 UNL     1     -18.577  -3.611 -27.119  1.00  0.00     0.000 C 
HETATM   11  C12 UNL     1     -18.275  -2.597 -28.206  1.00  0.00     0.000 C 
HETATM   12  C13 UNL     1     -17.886  -3.365 -29.460  1.00  0.00     0.003 C 
HETATM   13  C14 UNL     1     -17.221  -2.537 -30.485  1.00  0.00     0.039 C 
ENDROOT
BRANCH   1  14
HETATM   14  C1  UNL     1     -15.259  -1.380 -31.261  1.00  0.00     0.267 C 
BRANCH  14  15
HETATM   15  N1  UNL     1     -14.477  -1.767 -32.372  1.00  0.00    -0.076 N 
ATOM     16  H13 UNL     1     -14.940  -2.509 -32.895  1.00  0.00     0.274 HD
ATOM     17  H12 UNL     1     -14.474  -1.033 -33.082  1.00  0.00     0.274 HD
ATOM     18  H11 UNL     1     -13.523  -2.037 -32.133  1.00  0.00     0.274 HD
ENDBRANCH  14  15
ENDBRANCH   1  14
BRANCH   1  19
HETATM   19  O1  UNL     1     -15.284  -2.256 -29.090  1.00  0.00    -0.388 OA
ATOM     20  H1  UNL     1     -16.013  -2.441 -28.510  1.00  0.00     0.210 HD
ENDBRANCH   1  19
TORSDOF 3
ENDMDL
MODEL 2
REMARK VINA RESULT: -5.668117892      1.383      3.605
REMARK  3 active torsions:
REMARK  status: ('A' for Active; 'I' for Inactive)
REMARK    1  A    between atoms: N1_1  and  C1_5 
REMARK    2  A    between atoms: C1_5  and  C2_6 
REMARK    3  A    between atoms: C2_6  and  O1_7 
ROOT
HETATM    1  C2  UNL     1     -16.974  -2.937 -29.770  1.00  0.00     0.081 C 
HETATM    2  C3  UNL     1     -17.338  -2.284 -28.475  1.00  0.00     0.039 C 
HETATM    3  C4  UNL     1     -18.342  -3.025 -27.664  1.00  0.00     0.003 C 
HETATM    4  C5  UNL     1     -17.772  -3.669 -26.424  1.00  0.00     0.000 C 
HETATM    5  C6  UNL     1     -18.054  -5.152 -26.381  1.00  0.00     0.000 C 
HETATM    6  C7  UNL     1     -17.058  -5.815 -25.469  1.00  0.00     0.000 C 
HETATM    7  C8  UNL     1     -16.360  -6.983 -26.165  1.00  0.00     0.000 C 
HETATM    8  C9  UNL     1     -14.997  -6.599 -26.671  1.00  0.00     0.000 C 
HETATM    9  C10 UNL     1     -14.878  -6.742 -28.180  1.00  0.00     0.000 C 
HETATM   10  C11 UNL     1     -13.759  -5.846 -28.650  1.00  0.00     0.000 C 
HETATM   11  C12 UNL     1     -14.249  -4.925 -29.750  1.00  0.00     0.000 C 
HETATM   12  C13 UNL     1     -14.640  -3.603 -29.105  1.00  0.00     0.003 C 
HETATM   13  C14 UNL     1     -15.466  -2.738 -29.971  1.00  0.00     0.039 C 
ENDROOT
BRANCH   1  14
HETATM   14  C1  UNL     1     -17.595  -2.238 -30.974  1.00  0.00     0.267 C 
BRANCH  14  15
HETATM   15  N1  UNL     1     -17.114  -2.704 -32.219  1.00  0.00    -0.076 N 
ATOM     16  H13 UNL     1     -16.135  -2.446 -32.343  1.00  0.00     0.274 HD
ATOM     17  H12 UNL     1     -17.025  -3.721 -32.211  1.00  0.00     0.274 HD
ATOM     18  H11 UNL     1     -17.670  -2.400 -33.017  1.00  0.00     0.274 HD
ENDBRANCH  14  15
ENDBRANCH   1  14
BRANCH   1  19
HETATM   19  O1  UNL     1     -17.316  -4.268 -29.840  1.00  0.00    -0.388 OA
ATOM     20  H1  UNL     1     -17.999  -4.355 -30.494  1.00  0.00     0.210 HD
ENDBRANCH   1  19
TORSDOF 3
ENDMDL
MODEL 3
REMARK VINA RESULT: -4.907350314      2.649      4.750
REMARK  3 active torsions:
REMARK  status: ('A' for Active; 'I' for Inactive)
REMARK    1  A    between atoms: N1_1  and  C1_5 
REMARK    2  A    between atoms: C1_5  and  C2_6 
REMARK    3  A    between atoms: C2_6  and  O1_7 
ROOT
HETATM    1  C2  UNL     1     -16.167  -4.616 -26.588  1.00  0.00     0.081 C 
HETATM    2  C3  UNL     1     -14.886  -3.849 -26.672  1.00  0.00     0.039 C 
HETATM    3  C4  UNL     1     -14.021  -4.205 -27.829  1.00  0.00     0.003 C 
HETATM    4  C5  UNL     1     -13.963  -3.144 -28.900  1.00  0.00     0.000 C 
HETATM    5  C6  UNL     1     -14.358  -3.688 -30.253  1.00  0.00     0.000 C 
HETATM    6  C7  UNL     1     -14.796  -2.549 -31.132  1.00  0.00     0.000 C 
HETATM    7  C8  UNL     1     -16.175  -2.813 -31.736  1.00  0.00     0.000 C 
HETATM    8  C9  UNL     1     -17.262  -2.092 -30.988  1.00  0.00     0.000 C 
HETATM    9  C10 UNL     1     -18.284  -3.044 -30.390  1.00  0.00     0.000 C 
HETATM   10  C11 UNL     1     -18.967  -2.341 -29.243  1.00  0.00     0.000 C 
HETATM   11  C12 UNL     1     -18.883  -3.183 -27.985  1.00  0.00     0.000 C 
HETATM   12  C13 UNL     1     -17.685  -2.698 -27.183  1.00  0.00     0.003 C 
HETATM   13  C14 UNL     1     -17.254  -3.637 -26.127  1.00  0.00     0.039 C 
ENDROOT
BRANCH   1  14
HETATM   14  C1  UNL     1     -16.146  -5.676 -25.493  1.00  0.00     0.267 C 
BRANCH  14  15
HETATM   15  N1  UNL     1     -17.395  -6.300 -25.275  1.00  0.00    -0.076 N 
ATOM     16  H13 UNL     1     -17.828  -6.555 -26.162  1.00  0.00     0.274 HD
ATOM     17  H12 UNL     1     -17.266  -7.230 -24.873  1.00  0.00     0.274 HD
ATOM     18  H11 UNL     1     -18.038  -5.750 -24.706  1.00  0.00     0.274 HD
ENDBRANCH  14  15
ENDBRANCH   1  14
BRANCH   1  19
HETATM   19  O1  UNL     1     -16.523  -5.239 -27.763  1.00  0.00    -0.388 OA
ATOM     20  H1  UNL     1     -15.744  -5.654 -28.115  1.00  0.00     0.210 HD
ENDBRANCH   1  19
TORSDOF 3
ENDMDL
MODEL 4
REMARK VINA RESULT: -4.546476281      2.864      4.929
REMARK  3 active torsions:
REMARK  status: ('A' for Active; 'I' for Inactive)
REMARK    1  A    between atoms: N1_1  and  C1_5 
REMARK    2  A    between atoms: C1_5  and  C2_6 
REMARK    3  A    between atoms: C2_6  and  O1_7 
ROOT
HETATM    1  C2  UNL     1     -16.212  -5.873 -26.466  1.00  0.00     0.081 C 
HETATM    2  C3  UNL     1     -14.885  -6.276 -27.022  1.00  0.00     0.039 C 
HETATM    3  C4  UNL     1     -14.828  -6.351 -28.506  1.00  0.00     0.003 C 
HETATM    4  C5  UNL     1     -14.024  -5.246 -29.147  1.00  0.00     0.000 C 
HETATM    5  C6  UNL     1     -14.832  -4.484 -30.170  1.00  0.00     0.000 C 
HETATM    6  C7  UNL     1     -14.215  -3.127 -30.372  1.00  0.00     0.000 C 
HETATM    7  C8  UNL     1     -15.249  -2.016 -30.199  1.00  0.00     0.000 C 
HETATM    8  C9  UNL     1     -15.166  -1.380 -28.840  1.00  0.00     0.000 C 
HETATM    9  C10 UNL     1     -16.454  -1.532 -28.048  1.00  0.00     0.000 C 
HETATM   10  C11 UNL     1     -16.124  -1.396 -26.582  1.00  0.00     0.000 C 
HETATM   11  C12 UNL     1     -16.648  -2.592 -25.811  1.00  0.00     0.000 C 
HETATM   12  C13 UNL     1     -15.508  -3.590 -25.674  1.00  0.00     0.003 C 
HETATM   13  C14 UNL     1     -15.944  -4.943 -25.275  1.00  0.00     0.039 C 
ENDROOT
BRANCH   1  14
HETATM   14  C1  UNL     1     -16.970  -7.043 -25.848  1.00  0.00     0.267 C 
BRANCH  14  15
HETATM   15  N1  UNL     1     -16.568  -8.308 -26.334  1.00  0.00    -0.076 N 
ATOM     16  H13 UNL     1     -16.656  -8.345 -27.350  1.00  0.00     0.274 HD
ATOM     17  H12 UNL     1     -15.558  -8.422 -26.244  1.00  0.00     0.274 HD
ATOM     18  H11 UNL     1     -17.057  -9.091 -25.903  1.00  0.00     0.274 HD
ENDBRANCH  14  15
ENDBRANCH   1  14
BRANCH   1  19
HETATM   19  O1  UNL     1     -17.046  -5.278 -27.385  1.00  0.00    -0.388 OA
ATOM     20  H1  UNL     1     -16.663  -4.441 -27.620  1.00  0.00     0.210 HD
ENDBRANCH   1  19
TORSDOF 3
ENDMDL
MODEL 5
REMARK VINA RESULT: -4.486643078      2.276      3.449
REMARK  3 active torsions:
REMARK  status: ('A' for Active; 'I' for Inactive)
REMARK    1  A    between atoms: N1_1  and  C1_5 
REMARK    2  A    between atoms: C1_5  and  C2_6 
REMARK    3  A    between atoms: C2_6  and  O1_7 
ROOT
HETATM    1  C2  UNL     1     -16.705  -2.414 -26.965  1.00  0.00     0.081 C 
HETATM    2  C3  UNL     1     -16.486  -2.430 -28.443  1.00  0.00     0.039 C 
HETATM    3  C4  UNL     1     -15.092  -2.735 -28.863  1.00  0.00     0.003 C 
HETATM    4  C5  UNL     1     -14.923  -4.100 -29.485  1.00  0.00     0.000 C 
HETATM    5  C6  UNL     1     -13.871  -4.916 -28.773  1.00  0.00     0.000 C 
HETATM    6  C7  UNL     1     -14.108  -6.375 -29.053  1.00  0.00     0.000 C 
HETATM    7  C8  UNL     1     -14.181  -7.183 -27.759  1.00  0.00     0.000 C 
HETATM    8  C9  UNL     1     -15.601  -7.469 -27.356  1.00  0.00     0.000 C 
HETATM    9  C10 UNL     1     -15.951  -6.876 -26.001  1.00  0.00     0.000 C 
HETATM   10  C11 UNL     1     -17.449  -6.709 -25.933  1.00  0.00     0.000 C 
HETATM   11  C12 UNL     1     -17.802  -5.281 -25.566  1.00  0.00     0.000 C 
HETATM   12  C13 UNL     1     -18.072  -4.524 -26.857  1.00  0.00     0.003 C 
HETATM   13  C14 UNL     1     -18.073  -3.056 -26.700  1.00  0.00     0.039 C 
ENDROOT
BRANCH   1  14
HETATM   14  C1  UNL     1     -16.854  -1.003 -26.408  1.00  0.00     0.267 C 
BRANCH  14  15
HETATM   15  N1  UNL     1     -15.629  -0.315 -26.253  1.00  0.00    -0.076 N 
ATOM     16  H13 UNL     1     -14.872  -0.970 -26.058  1.00  0.00     0.274 HD
ATOM     17  H12 UNL     1     -15.310   0.055 -27.149  1.00  0.00     0.274 HD
ATOM     18  H11 UNL     1     -15.655   0.423 -25.550  1.00  0.00     0.274 HD
ENDBRANCH  14  15
ENDBRANCH   1  14
BRANCH   1  19
HETATM   19  O1  UNL     1     -15.713  -3.042 -26.246  1.00  0.00    -0.388 OA
ATOM     20  H1  UNL     1     -16.058  -3.876 -25.948  1.00  0.00     0.210 HD
ENDBRANCH   1  19
TORSDOF 3
ENDMDL
