MODEL 1
REMARK VINA RESULT: -7.889353754      0.000      0.000
REMARK  2 active torsions:
REMARK  status: ('A' for Active; 'I' for Inactive)
REMARK    1  A    between atoms: C6_6  and  N1_7 
REMARK    2  A    between atoms: N1_7  and  N2_9 
ROOT
HETATM    1  N1  UNL     1     -17.730  -2.935 -27.260  1.00  0.00    -0.306 N 
ATOM      2  H1  UNL     1     -17.998  -2.003 -26.944  1.00  0.00     0.182 HD
ENDROOT
BRANCH   1   3
HETATM    3  C6  UNL     1     -17.119  -3.111 -28.554  1.00  0.00     0.299 C 
HETATM    4  C5  UNL     1     -18.208  -3.163 -29.586  1.00  0.00     0.060 C 
HETATM    5  C4  UNL     1     -17.771  -2.877 -30.970  1.00  0.00     0.039 C 
HETATM    6  C3  UNL     1     -16.410  -2.344 -31.105  1.00  0.00    -0.059 C 
HETATM    7  C2  UNL     1     -16.041  -1.827 -32.256  1.00  0.00    -0.027 C 
HETATM    8  C14 UNL     1     -15.436  -2.371 -29.982  1.00  0.00     0.268 C 
HETATM    9  C1  UNL     1     -16.978  -1.781 -33.399  1.00  0.00     0.036 C 
HETATM   10  N3  UNL     1     -16.184  -2.029 -28.778  1.00  0.00    -0.050 N 
ATOM     11  H32 UNL     1     -16.631  -1.113 -28.827  1.00  0.00     0.280 HD
ATOM     12  H31 UNL     1     -15.589  -1.837 -27.974  1.00  0.00     0.280 HD
ENDBRANCH   1   3
BRANCH   1  13
HETATM   13  N2  UNL     1     -17.954  -4.035 -26.449  1.00  0.00    -0.311 N 
HETATM   14  C7  UNL     1     -17.079  -4.955 -26.365  1.00  0.00     0.004 C 
HETATM   15  C8  UNL     1     -17.252  -6.169 -25.510  1.00  0.00     0.054 C 
HETATM   16  C13 UNL     1     -15.820  -4.856 -27.133  1.00  0.00     0.058 C 
HETATM   17  C9  UNL     1     -15.854  -6.491 -24.971  1.00  0.00     0.006 C 
HETATM   18  C10 UNL     1     -15.055  -7.008 -26.156  1.00  0.00     0.005 C 
HETATM   19  C11 UNL     1     -15.362  -6.279 -27.425  1.00  0.00    -0.013 C 
HETATM   20  C12 UNL     1     -14.193  -6.191 -28.368  1.00  0.00     0.010 C 
ATOM     21  H2  UNL     1     -18.822  -4.107 -25.917  1.00  0.00     0.186 HD
ENDBRANCH   1  13
TORSDOF 2
ENDMDL
MODEL 2
REMARK VINA RESULT: -7.695053483      1.189      1.681
REMARK  2 active torsions:
REMARK  status: ('A' for Active; 'I' for Inactive)
REMARK    1  A    between atoms: C6_6  and  N1_7 
REMARK    2  A    between atoms: N1_7  and  N2_9 
ROOT
HETATM    1  N1  UNL     1     -17.677  -3.338 -26.202  1.00  0.00    -0.306 N 
ATOM      2  H1  UNL     1     -17.548  -2.774 -25.362  1.00  0.00     0.182 HD
ENDROOT
BRANCH   1   3
HETATM    3  C6  UNL     1     -17.632  -2.717 -27.503  1.00  0.00     0.299 C 
HETATM    4  C5  UNL     1     -16.246  -2.182 -27.720  1.00  0.00     0.060 C 
HETATM    5  C4  UNL     1     -15.887  -1.937 -29.135  1.00  0.00     0.039 C 
HETATM    6  C3  UNL     1     -16.823  -2.477 -30.127  1.00  0.00    -0.059 C 
HETATM    7  C2  UNL     1     -16.453  -2.530 -31.388  1.00  0.00    -0.027 C 
HETATM    8  C14 UNL     1     -18.176  -2.968 -29.753  1.00  0.00     0.268 C 
HETATM    9  C1  UNL     1     -15.117  -2.053 -31.804  1.00  0.00     0.036 C 
HETATM   10  N3  UNL     1     -18.019  -3.694 -28.499  1.00  0.00    -0.050 N 
ATOM     11  H32 UNL     1     -17.372  -4.480 -28.565  1.00  0.00     0.280 HD
ATOM     12  H31 UNL     1     -18.845  -4.231 -28.237  1.00  0.00     0.280 HD
ENDBRANCH   1   3
BRANCH   1  13
HETATM   13  N2  UNL     1     -17.896  -4.701 -26.097  1.00  0.00    -0.311 N 
HETATM   14  C7  UNL     1     -16.980  -5.522 -26.421  1.00  0.00     0.004 C 
HETATM   15  C8  UNL     1     -17.145  -7.005 -26.334  1.00  0.00     0.054 C 
HETATM   16  C13 UNL     1     -15.677  -5.026 -26.913  1.00  0.00     0.058 C 
HETATM   17  C9  UNL     1     -15.773  -7.545 -25.915  1.00  0.00     0.006 C 
HETATM   18  C10 UNL     1     -14.865  -7.365 -27.120  1.00  0.00     0.005 C 
HETATM   19  C11 UNL     1     -15.122  -6.088 -27.854  1.00  0.00    -0.013 C 
HETATM   20  C12 UNL     1     -13.895  -5.511 -28.508  1.00  0.00     0.010 C 
ATOM     21  H2  UNL     1     -18.794  -5.048 -25.759  1.00  0.00     0.186 HD
ENDBRANCH   1  13
TORSDOF 2
ENDMDL
MODEL 3
REMARK VINA RESULT: -7.271309071      1.397      5.877
REMARK  2 active torsions:
REMARK  status: ('A' for Active; 'I' for Inactive)
REMARK    1  A    between atoms: C6_6  and  N1_7 
REMARK    2  A    between atoms: N1_7  and  N2_9 
ROOT
HETATM    1  N1  UNL     1     -15.365  -2.690 -27.723  1.00  0.00    -0.306 N 
ATOM      2  H1  UNL     1     -14.731  -1.908 -27.558  1.00  0.00     0.182 HD
ENDROOT
BRANCH   1   3
HETATM    3  C6  UNL     1     -15.044  -4.001 -27.216  1.00  0.00     0.299 C 
HETATM    4  C5  UNL     1     -16.185  -4.466 -26.360  1.00  0.00     0.060 C 
HETATM    5  C4  UNL     1     -16.246  -5.929 -26.142  1.00  0.00     0.039 C 
HETATM    6  C3  UNL     1     -15.349  -6.730 -26.982  1.00  0.00    -0.059 C 
HETATM    7  C2  UNL     1     -15.524  -8.032 -27.036  1.00  0.00    -0.027 C 
HETATM    8  C14 UNL     1     -14.250  -6.117 -27.775  1.00  0.00     0.268 C 
HETATM    9  C1  UNL     1     -16.604  -8.683 -26.264  1.00  0.00     0.036 C 
HETATM   10  N3  UNL     1     -14.785  -4.882 -28.335  1.00  0.00    -0.050 N 
ATOM     11  H32 UNL     1     -15.601  -5.028 -28.930  1.00  0.00     0.280 HD
ATOM     12  H31 UNL     1     -14.183  -4.467 -29.045  1.00  0.00     0.280 HD
ENDBRANCH   1   3
BRANCH   1  13
HETATM   13  N2  UNL     1     -16.536  -2.495 -28.435  1.00  0.00    -0.311 N 
HETATM   14  C7  UNL     1     -16.504  -2.384 -29.702  1.00  0.00     0.004 C 
HETATM   15  C8  UNL     1     -17.728  -2.173 -30.534  1.00  0.00     0.054 C 
HETATM   16  C13 UNL     1     -15.215  -2.461 -30.422  1.00  0.00     0.058 C 
HETATM   17  C9  UNL     1     -17.479  -2.951 -31.831  1.00  0.00     0.006 C 
HETATM   18  C10 UNL     1     -16.406  -2.182 -32.583  1.00  0.00     0.005 C 
HETATM   19  C11 UNL     1     -15.357  -1.617 -31.681  1.00  0.00    -0.013 C 
HETATM   20  C12 UNL     1     -13.996  -1.529 -32.319  1.00  0.00     0.010 C 
ATOM     21  H2  UNL     1     -17.428  -2.440 -27.942  1.00  0.00     0.186 HD
ENDBRANCH   1  13
TORSDOF 2
ENDMDL
MODEL 4
REMARK VINA RESULT: -7.255103538      1.435      5.921
REMARK  2 active torsions:
REMARK  status: ('A' for Active; 'I' for Inactive)
REMARK    1  A    between atoms: C6_6  and  N1_7 
REMARK    2  A    between atoms: N1_7  and  N2_9 
ROOT
HETATM    1  N1  UNL     1     -15.609  -2.559 -27.356  1.00  0.00    -0.306 N 
ATOM      2  H1  UNL     1     -16.183  -1.814 -26.961  1.00  0.00     0.182 HD
ENDROOT
BRANCH   1   3
HETATM    3  C6  UNL     1     -15.536  -3.840 -26.698  1.00  0.00     0.299 C 
HETATM    4  C5  UNL     1     -16.935  -4.347 -26.499  1.00  0.00     0.060 C 
HETATM    5  C4  UNL     1     -17.044  -5.806 -26.274  1.00  0.00     0.039 C 
HETATM    6  C3  UNL     1     -15.820  -6.576 -26.523  1.00  0.00    -0.059 C 
HETATM    7  C2  UNL     1     -15.898  -7.886 -26.597  1.00  0.00    -0.027 C 
HETATM    8  C14 UNL     1     -14.495  -5.923 -26.695  1.00  0.00     0.268 C 
HETATM    9  C1  UNL     1     -17.196  -8.577 -26.432  1.00  0.00     0.036 C 
HETATM   10  N3  UNL     1     -14.725  -4.730 -27.502  1.00  0.00    -0.050 N 
ATOM     11  H32 UNL     1     -15.132  -4.933 -28.415  1.00  0.00     0.280 HD
ATOM     12  H31 UNL     1     -13.865  -4.299 -27.838  1.00  0.00     0.280 HD
ENDBRANCH   1   3
BRANCH   1  13
HETATM   13  N2  UNL     1     -14.899  -2.344 -28.525  1.00  0.00    -0.311 N 
HETATM   14  C7  UNL     1     -15.506  -2.295 -29.642  1.00  0.00     0.004 C 
HETATM   15  C8  UNL     1     -14.805  -2.067 -30.942  1.00  0.00     0.054 C 
HETATM   16  C13 UNL     1     -16.973  -2.469 -29.699  1.00  0.00     0.058 C 
HETATM   17  C9  UNL     1     -15.768  -1.221 -31.782  1.00  0.00     0.006 C 
HETATM   18  C10 UNL     1     -16.916  -2.142 -32.160  1.00  0.00     0.005 C 
HETATM   19  C11 UNL     1     -17.298  -3.076 -31.058  1.00  0.00    -0.013 C 
HETATM   20  C12 UNL     1     -18.759  -3.436 -31.051  1.00  0.00     0.010 C 
ATOM     21  H2  UNL     1     -13.886  -2.225 -28.490  1.00  0.00     0.186 HD
ENDBRANCH   1  13
TORSDOF 2
ENDMDL
MODEL 5
REMARK VINA RESULT: -7.018731855      1.407      2.511
REMARK  2 active torsions:
REMARK  status: ('A' for Active; 'I' for Inactive)
REMARK    1  A    between atoms: C6_6  and  N1_7 
REMARK    2  A    between atoms: N1_7  and  N2_9 
ROOT
HETATM    1  N1  UNL     1     -16.457  -2.714 -27.523  1.00  0.00    -0.306 N 
ATOM      2  H1  UNL     1     -17.251  -2.476 -26.928  1.00  0.00     0.182 HD
ENDROOT
BRANCH   1   3
HETATM    3  C6  UNL     1     -16.332  -2.120 -28.832  1.00  0.00     0.299 C 
HETATM    4  C5  UNL     1     -14.900  -1.718 -29.030  1.00  0.00     0.060 C 
HETATM    5  C4  UNL     1     -14.495  -1.529 -30.441  1.00  0.00     0.039 C 
HETATM    6  C3  UNL     1     -15.460  -1.996 -31.443  1.00  0.00    -0.059 C 
HETATM    7  C2  UNL     1     -15.074  -2.102 -32.696  1.00  0.00    -0.027 C 
HETATM    8  C14 UNL     1     -16.858  -2.354 -31.087  1.00  0.00     0.268 C 
HETATM    9  C1  UNL     1     -13.692  -1.756 -33.094  1.00  0.00     0.036 C 
HETATM   10  N3  UNL     1     -16.791  -3.073 -29.820  1.00  0.00    -0.050 N 
ATOM     11  H32 UNL     1     -16.218  -3.916 -29.864  1.00  0.00     0.280 HD
ATOM     12  H31 UNL     1     -17.667  -3.527 -29.567  1.00  0.00     0.280 HD
ENDBRANCH   1   3
BRANCH   1  13
HETATM   13  N2  UNL     1     -15.497  -3.606 -27.078  1.00  0.00    -0.311 N 
HETATM   14  C7  UNL     1     -15.808  -4.818 -26.847  1.00  0.00     0.004 C 
HETATM   15  C8  UNL     1     -14.825  -5.836 -26.365  1.00  0.00     0.054 C 
HETATM   16  C13 UNL     1     -17.198  -5.280 -27.051  1.00  0.00     0.058 C 
HETATM   17  C9  UNL     1     -15.235  -7.150 -27.039  1.00  0.00     0.006 C 
HETATM   18  C10 UNL     1     -16.534  -7.575 -26.375  1.00  0.00     0.005 C 
HETATM   19  C11 UNL     1     -17.436  -6.423 -26.073  1.00  0.00    -0.013 C 
HETATM   20  C12 UNL     1     -18.899  -6.769 -26.135  1.00  0.00     0.010 C 
ATOM     21  H2  UNL     1     -14.537  -3.291 -26.935  1.00  0.00     0.186 HD
ENDBRANCH   1  13
TORSDOF 2
ENDMDL
