MODEL 1
REMARK VINA RESULT: -8.502311148      0.000      0.000
REMARK  5 active torsions:
REMARK  status: ('A' for Active; 'I' for Inactive)
REMARK    1  A    between atoms: C2_2  and  C3_3 
REMARK    2  A    between atoms: C2_2  and  C15_15 
REMARK    3  A    between atoms: C3_3  and  C4_4 
REMARK    4  A    between atoms: C4_4  and  C6_6 
REMARK    5  A    between atoms: C15_15  and  O1_16 
ROOT
HETATM    1  C6  UNL     1     -15.534  -3.889 -27.594  1.00  0.00    -0.066 C 
HETATM    2  C7  UNL     1     -14.732  -3.274 -26.448  1.00  0.00     0.036 C 
HETATM    3  C8  UNL     1     -15.414  -2.168 -25.747  1.00  0.00     0.009 C 
HETATM    4  C9  UNL     1     -16.365  -1.333 -26.523  1.00  0.00    -0.013 C 
HETATM    5  C10 UNL     1     -17.774  -1.807 -26.104  1.00  0.00     0.005 C 
HETATM    6  C11 UNL     1     -17.630  -3.269 -26.533  1.00  0.00     0.014 C 
HETATM    7  C12 UNL     1     -16.805  -3.231 -27.814  1.00  0.00    -0.020 C 
HETATM    8  C13 UNL     1     -17.619  -3.536 -29.010  1.00  0.00     0.020 C 
HETATM    9  C14 UNL     1     -16.418  -1.726 -27.994  1.00  0.00     0.018 C 
ENDROOT
BRANCH   1  10
HETATM   10  C4  UNL     1     -14.951  -4.875 -28.210  1.00  0.00    -0.058 C 
HETATM   11  C5  UNL     1     -14.422  -4.833 -29.572  1.00  0.00     0.048 C 
BRANCH  10  12
HETATM   12  C3  UNL     1     -14.776  -6.211 -27.500  1.00  0.00     0.015 C 
BRANCH  12  13
HETATM   13  C2  UNL     1     -15.751  -6.607 -26.715  1.00  0.00    -0.044 C 
HETATM   14  C1  UNL     1     -16.733  -7.006 -25.924  1.00  0.00     0.021 C 
BRANCH  13  15
HETATM   15  C15 UNL     1     -15.225  -8.374 -27.004  1.00  0.00     0.201 C 
BRANCH  15  16
HETATM   16  O1  UNL     1     -14.360  -8.429 -25.964  1.00  0.00    -0.396 OA
ATOM     17  H1  UNL     1     -14.794  -9.147 -25.519  1.00  0.00     0.209 HD
ENDBRANCH  15  16
ENDBRANCH  13  15
ENDBRANCH  12  13
ENDBRANCH  10  12
ENDBRANCH   1  10
TORSDOF 5
ENDMDL
MODEL 2
REMARK VINA RESULT: -7.833195354      1.850      3.793
REMARK  5 active torsions:
REMARK  status: ('A' for Active; 'I' for Inactive)
REMARK    1  A    between atoms: C2_2  and  C3_3 
REMARK    2  A    between atoms: C2_2  and  C15_15 
REMARK    3  A    between atoms: C3_3  and  C4_4 
REMARK    4  A    between atoms: C4_4  and  C6_6 
REMARK    5  A    between atoms: C15_15  and  O1_16 
ROOT
HETATM    1  C6  UNL     1     -16.907  -3.100 -28.600  1.00  0.00    -0.066 C 
HETATM    2  C7  UNL     1     -17.744  -2.877 -29.857  1.00  0.00     0.036 C 
HETATM    3  C8  UNL     1     -16.957  -2.630 -31.081  1.00  0.00     0.009 C 
HETATM    4  C9  UNL     1     -15.636  -1.969 -30.939  1.00  0.00    -0.013 C 
HETATM    5  C10 UNL     1     -14.588  -3.093 -31.088  1.00  0.00     0.005 C 
HETATM    6  C11 UNL     1     -15.056  -3.961 -29.917  1.00  0.00     0.014 C 
HETATM    7  C12 UNL     1     -15.484  -2.976 -28.836  1.00  0.00    -0.020 C 
HETATM    8  C13 UNL     1     -14.528  -2.938 -27.708  1.00  0.00     0.020 C 
HETATM    9  C14 UNL     1     -15.339  -1.567 -29.500  1.00  0.00     0.018 C 
ENDROOT
BRANCH   1  10
HETATM   10  C4  UNL     1     -17.588  -3.334 -27.517  1.00  0.00    -0.058 C 
HETATM   11  C5  UNL     1     -18.184  -2.318 -26.651  1.00  0.00     0.048 C 
BRANCH  10  12
HETATM   12  C3  UNL     1     -17.816  -4.770 -27.063  1.00  0.00     0.015 C 
BRANCH  12  13
HETATM   13  C2  UNL     1     -16.753  -5.490 -26.789  1.00  0.00    -0.044 C 
HETATM   14  C1  UNL     1     -15.682  -6.216 -26.513  1.00  0.00     0.021 C 
BRANCH  13  15
HETATM   15  C15 UNL     1     -17.862  -6.776 -26.014  1.00  0.00     0.201 C 
BRANCH  15  16
HETATM   16  O1  UNL     1     -17.600  -6.425 -24.733  1.00  0.00    -0.396 OA
ATOM     17  H1  UNL     1     -16.777  -6.897 -24.673  1.00  0.00     0.209 HD
ENDBRANCH  15  16
ENDBRANCH  13  15
ENDBRANCH  12  13
ENDBRANCH  10  12
ENDBRANCH   1  10
TORSDOF 5
ENDMDL
MODEL 3
REMARK VINA RESULT: -7.793799979      2.877      4.855
REMARK  5 active torsions:
REMARK  status: ('A' for Active; 'I' for Inactive)
REMARK    1  A    between atoms: C2_2  and  C3_3 
REMARK    2  A    between atoms: C2_2  and  C15_15 
REMARK    3  A    between atoms: C3_3  and  C4_4 
REMARK    4  A    between atoms: C4_4  and  C6_6 
REMARK    5  A    between atoms: C15_15  and  O1_16 
ROOT
HETATM    1  C6  UNL     1     -16.024  -3.865 -27.892  1.00  0.00    -0.066 C 
HETATM    2  C7  UNL     1     -15.074  -5.053 -28.032  1.00  0.00     0.036 C 
HETATM    3  C8  UNL     1     -15.308  -6.142 -27.064  1.00  0.00     0.009 C 
HETATM    4  C9  UNL     1     -15.865  -5.785 -25.735  1.00  0.00    -0.013 C 
HETATM    5  C10 UNL     1     -17.357  -6.182 -25.787  1.00  0.00     0.005 C 
HETATM    6  C11 UNL     1     -17.759  -5.292 -26.966  1.00  0.00     0.014 C 
HETATM    7  C12 UNL     1     -16.955  -4.009 -26.792  1.00  0.00    -0.020 C 
HETATM    8  C13 UNL     1     -17.801  -2.875 -26.362  1.00  0.00     0.020 C 
HETATM    9  C14 UNL     1     -16.032  -4.282 -25.558  1.00  0.00     0.018 C 
ENDROOT
BRANCH   1  10
HETATM   10  C4  UNL     1     -15.838  -2.905 -28.750  1.00  0.00    -0.058 C 
HETATM   11  C5  UNL     1     -15.201  -1.621 -28.463  1.00  0.00     0.048 C 
BRANCH  10  12
HETATM   12  C3  UNL     1     -16.303  -3.078 -30.190  1.00  0.00     0.015 C 
BRANCH  12  13
HETATM   13  C2  UNL     1     -15.620  -2.454 -31.121  1.00  0.00    -0.044 C 
HETATM   14  C1  UNL     1     -14.932  -1.825 -32.059  1.00  0.00     0.021 C 
BRANCH  13  15
HETATM   15  C15 UNL     1     -17.230  -1.897 -31.886  1.00  0.00     0.201 C 
BRANCH  15  16
HETATM   16  O1  UNL     1     -17.724  -3.142 -32.079  1.00  0.00    -0.396 OA
ATOM     17  H1  UNL     1     -16.892  -3.540 -32.305  1.00  0.00     0.209 HD
ENDBRANCH  15  16
ENDBRANCH  13  15
ENDBRANCH  12  13
ENDBRANCH  10  12
ENDBRANCH   1  10
TORSDOF 5
ENDMDL
MODEL 4
REMARK VINA RESULT: -7.771398768      2.814      4.650
REMARK  5 active torsions:
REMARK  status: ('A' for Active; 'I' for Inactive)
REMARK    1  A    between atoms: C2_2  and  C3_3 
REMARK    2  A    between atoms: C2_2  and  C15_15 
REMARK    3  A    between atoms: C3_3  and  C4_4 
REMARK    4  A    between atoms: C4_4  and  C6_6 
REMARK    5  A    between atoms: C15_15  and  O1_16 
ROOT
HETATM    1  C6  UNL     1     -15.829  -3.740 -28.058  1.00  0.00    -0.066 C 
HETATM    2  C7  UNL     1     -14.887  -4.941 -28.093  1.00  0.00     0.036 C 
HETATM    3  C8  UNL     1     -15.191  -5.988 -27.099  1.00  0.00     0.009 C 
HETATM    4  C9  UNL     1     -15.821  -5.573 -25.820  1.00  0.00    -0.013 C 
HETATM    5  C10 UNL     1     -17.312  -5.956 -25.947  1.00  0.00     0.005 C 
HETATM    6  C11 UNL     1     -17.633  -5.110 -27.181  1.00  0.00     0.014 C 
HETATM    7  C12 UNL     1     -16.824  -3.830 -27.011  1.00  0.00    -0.020 C 
HETATM    8  C13 UNL     1     -17.680  -2.671 -26.676  1.00  0.00     0.020 C 
HETATM    9  C14 UNL     1     -15.980  -4.062 -25.714  1.00  0.00     0.018 C 
ENDROOT
BRANCH   1  10
HETATM   10  C4  UNL     1     -15.580  -2.817 -28.940  1.00  0.00    -0.058 C 
HETATM   11  C5  UNL     1     -14.933  -1.534 -28.669  1.00  0.00     0.048 C 
BRANCH  10  12
HETATM   12  C3  UNL     1     -15.975  -3.036 -30.394  1.00  0.00     0.015 C 
BRANCH  12  13
HETATM   13  C2  UNL     1     -17.257  -3.104 -30.666  1.00  0.00    -0.044 C 
HETATM   14  C1  UNL     1     -18.549  -3.172 -30.940  1.00  0.00     0.021 C 
BRANCH  13  15
HETATM   15  C15 UNL     1     -17.006  -1.845 -32.021  1.00  0.00     0.201 C 
BRANCH  15  16
HETATM   16  O1  UNL     1     -16.318  -2.670 -32.845  1.00  0.00    -0.396 OA
ATOM     17  H1  UNL     1     -16.112  -2.006 -33.492  1.00  0.00     0.209 HD
ENDBRANCH  15  16
ENDBRANCH  13  15
ENDBRANCH  12  13
ENDBRANCH  10  12
ENDBRANCH   1  10
TORSDOF 5
ENDMDL
MODEL 5
REMARK VINA RESULT: -7.698189820      1.861      3.539
REMARK  5 active torsions:
REMARK  status: ('A' for Active; 'I' for Inactive)
REMARK    1  A    between atoms: C2_2  and  C3_3 
REMARK    2  A    between atoms: C2_2  and  C15_15 
REMARK    3  A    between atoms: C3_3  and  C4_4 
REMARK    4  A    between atoms: C4_4  and  C6_6 
REMARK    5  A    between atoms: C15_15  and  O1_16 
ROOT
HETATM    1  C6  UNL     1     -16.705  -2.597 -28.222  1.00  0.00    -0.066 C 
HETATM    2  C7  UNL     1     -15.368  -1.860 -28.268  1.00  0.00     0.036 C 
HETATM    3  C8  UNL     1     -14.765  -1.769 -29.612  1.00  0.00     0.009 C 
HETATM    4  C9  UNL     1     -15.049  -2.860 -30.579  1.00  0.00    -0.013 C 
HETATM    5  C10 UNL     1     -16.101  -2.289 -31.555  1.00  0.00     0.005 C 
HETATM    6  C11 UNL     1     -17.188  -1.982 -30.522  1.00  0.00     0.014 C 
HETATM    7  C12 UNL     1     -17.111  -3.119 -29.510  1.00  0.00    -0.020 C 
HETATM    8  C13 UNL     1     -18.257  -4.045 -29.626  1.00  0.00     0.020 C 
HETATM    9  C14 UNL     1     -15.884  -3.976 -29.967  1.00  0.00     0.018 C 
ENDROOT
BRANCH   1  10
HETATM   10  C4  UNL     1     -17.254  -2.671 -27.045  1.00  0.00    -0.058 C 
HETATM   11  C5  UNL     1     -17.696  -1.533 -26.240  1.00  0.00     0.048 C 
BRANCH  10  12
HETATM   12  C3  UNL     1     -17.482  -4.033 -26.402  1.00  0.00     0.015 C 
BRANCH  12  13
HETATM   13  C2  UNL     1     -16.475  -4.876 -26.407  1.00  0.00    -0.044 C 
HETATM   14  C1  UNL     1     -15.462  -5.725 -26.413  1.00  0.00     0.021 C 
BRANCH  13  15
HETATM   15  C15 UNL     1     -17.690  -6.280 -26.214  1.00  0.00     0.201 C 
BRANCH  15  16
HETATM   16  O1  UNL     1     -17.575  -6.373 -24.869  1.00  0.00    -0.396 OA
ATOM     17  H1  UNL     1     -16.872  -7.011 -24.878  1.00  0.00     0.209 HD
ENDBRANCH  15  16
ENDBRANCH  13  15
ENDBRANCH  12  13
ENDBRANCH  10  12
ENDBRANCH   1  10
TORSDOF 5
ENDMDL
