MODEL 1
REMARK VINA RESULT: -7.444638451      0.000      0.000
REMARK  5 active torsions:
REMARK  status: ('A' for Active; 'I' for Inactive)
REMARK    1  A    between atoms: C2_2  and  S1_4 
REMARK    2  A    between atoms: S1_4  and  C4_5 
REMARK    3  A    between atoms: C4_5  and  N2_9 
REMARK    4  A    between atoms: N2_9  and  C5_11 
REMARK    5  A    between atoms: C5_11  and  C6_12 
ROOT
HETATM    1  N2  UNL     1     -17.918  -3.515 -26.802  1.00  0.00    -0.370 N 
ATOM      2  H2  UNL     1     -18.805  -3.161 -26.443  1.00  0.00     0.161 HD
ENDROOT
BRANCH   1   3
HETATM    3  C4  UNL     1     -17.439  -4.836 -26.467  1.00  0.00     0.138 C 
HETATM    4  N1  UNL     1     -18.338  -5.714 -26.351  1.00  0.00    -0.380 N 
ATOM      5  H12 UNL     1     -18.000  -6.647 -26.115  1.00  0.00     0.158 HD
ATOM      6  H11 UNL     1     -19.330  -5.561 -26.531  1.00  0.00     0.158 HD
BRANCH   3   7
HETATM    7  S1  UNL     1     -15.754  -5.096 -26.162  1.00  0.00    -0.061 SA
BRANCH   7   8
HETATM    8  C2  UNL     1     -14.960  -6.232 -27.236  1.00  0.00    -0.027 C 
HETATM    9  C1  UNL     1     -14.233  -5.953 -28.285  1.00  0.00     0.026 C 
HETATM   10  C3  UNL     1     -15.102  -7.705 -26.859  1.00  0.00     0.055 C 
ENDBRANCH   7   8
ENDBRANCH   3   7
ENDBRANCH   1   3
BRANCH   1  11
HETATM   11  C5  UNL     1     -17.091  -2.724 -27.659  1.00  0.00     0.126 C 
BRANCH  11  12
HETATM   12  C6  UNL     1     -16.874  -3.307 -29.031  1.00  0.00     0.003 C 
HETATM   13  C7  UNL     1     -15.477  -3.151 -29.513  1.00  0.00     0.006 C 
HETATM   14  C8  UNL     1     -15.168  -1.887 -30.238  1.00  0.00     0.000 C 
HETATM   15  C9  UNL     1     -15.522  -1.902 -31.706  1.00  0.00     0.000 C 
HETATM   16  C10 UNL     1     -17.011  -1.806 -31.962  1.00  0.00     0.000 C 
HETATM   17  C11 UNL     1     -17.668  -3.042 -31.359  1.00  0.00     0.000 C 
HETATM   18  C12 UNL     1     -17.936  -2.733 -29.928  1.00  0.00     0.006 C 
ENDBRANCH  11  12
ENDBRANCH   1  11
TORSDOF 5
ENDMDL
MODEL 2
REMARK VINA RESULT: -7.160315404      0.830      1.416
REMARK  5 active torsions:
REMARK  status: ('A' for Active; 'I' for Inactive)
REMARK    1  A    between atoms: C2_2  and  S1_4 
REMARK    2  A    between atoms: S1_4  and  C4_5 
REMARK    3  A    between atoms: C4_5  and  N2_9 
REMARK    4  A    between atoms: N2_9  and  C5_11 
REMARK    5  A    between atoms: C5_11  and  C6_12 
ROOT
HETATM    1  N2  UNL     1     -17.578  -4.090 -27.173  1.00  0.00    -0.370 N 
ATOM      2  H2  UNL     1     -18.343  -4.761 -27.116  1.00  0.00     0.161 HD
ENDROOT
BRANCH   1   3
HETATM    3  C4  UNL     1     -16.434  -4.170 -26.294  1.00  0.00     0.138 C 
HETATM    4  N1  UNL     1     -15.853  -3.072 -26.076  1.00  0.00    -0.380 N 
ATOM      5  H12 UNL     1     -15.046  -3.129 -25.455  1.00  0.00     0.158 HD
ATOM      6  H11 UNL     1     -16.167  -2.166 -26.422  1.00  0.00     0.158 HD
BRANCH   3   7
HETATM    7  S1  UNL     1     -15.900  -5.709 -25.705  1.00  0.00    -0.061 SA
BRANCH   7   8
HETATM    8  C2  UNL     1     -15.111  -6.735 -26.887  1.00  0.00    -0.027 C 
HETATM    9  C1  UNL     1     -15.097  -8.041 -26.916  1.00  0.00     0.026 C 
HETATM   10  C3  UNL     1     -14.409  -6.006 -28.030  1.00  0.00     0.055 C 
ENDBRANCH   7   8
ENDBRANCH   3   7
ENDBRANCH   1   3
BRANCH   1  11
HETATM   11  C5  UNL     1     -17.588  -3.025 -28.127  1.00  0.00     0.126 C 
BRANCH  11  12
HETATM   12  C6  UNL     1     -17.141  -3.420 -29.511  1.00  0.00     0.003 C 
HETATM   13  C7  UNL     1     -15.672  -3.304 -29.700  1.00  0.00     0.006 C 
HETATM   14  C8  UNL     1     -15.168  -1.977 -30.150  1.00  0.00     0.000 C 
HETATM   15  C9  UNL     1     -15.234  -1.753 -31.643  1.00  0.00     0.000 C 
HETATM   16  C10 UNL     1     -16.639  -1.506 -32.147  1.00  0.00     0.000 C 
HETATM   17  C11 UNL     1     -17.460  -2.762 -31.874  1.00  0.00     0.000 C 
HETATM   18  C12 UNL     1     -17.982  -2.642 -30.486  1.00  0.00     0.006 C 
ENDBRANCH  11  12
ENDBRANCH   1  11
TORSDOF 5
ENDMDL
MODEL 3
REMARK VINA RESULT: -7.123894827      0.742      1.894
REMARK  5 active torsions:
REMARK  status: ('A' for Active; 'I' for Inactive)
REMARK    1  A    between atoms: C2_2  and  S1_4 
REMARK    2  A    between atoms: S1_4  and  C4_5 
REMARK    3  A    between atoms: C4_5  and  N2_9 
REMARK    4  A    between atoms: N2_9  and  C5_11 
REMARK    5  A    between atoms: C5_11  and  C6_12 
ROOT
HETATM    1  N2  UNL     1     -17.969  -4.216 -26.731  1.00  0.00    -0.370 N 
ATOM      2  H2  UNL     1     -18.387  -3.454 -26.198  1.00  0.00     0.161 HD
ENDROOT
BRANCH   1   3
HETATM    3  C4  UNL     1     -17.396  -5.370 -26.078  1.00  0.00     0.138 C 
HETATM    4  N1  UNL     1     -18.233  -6.161 -25.562  1.00  0.00    -0.380 N 
ATOM      5  H12 UNL     1     -17.828  -6.975 -25.102  1.00  0.00     0.158 HD
ATOM      6  H11 UNL     1     -19.246  -6.063 -25.630  1.00  0.00     0.158 HD
BRANCH   3   7
HETATM    7  S1  UNL     1     -15.675  -5.536 -25.964  1.00  0.00    -0.061 SA
BRANCH   7   8
HETATM    8  C2  UNL     1     -14.935  -6.571 -27.170  1.00  0.00    -0.027 C 
HETATM    9  C1  UNL     1     -14.949  -7.876 -27.207  1.00  0.00     0.026 C 
HETATM   10  C3  UNL     1     -14.246  -5.848 -28.326  1.00  0.00     0.055 C 
ENDBRANCH   7   8
ENDBRANCH   3   7
ENDBRANCH   1   3
BRANCH   1  11
HETATM   11  C5  UNL     1     -17.922  -4.190 -28.160  1.00  0.00     0.126 C 
BRANCH  11  12
HETATM   12  C6  UNL     1     -17.463  -2.881 -28.747  1.00  0.00     0.003 C 
HETATM   13  C7  UNL     1     -18.154  -2.542 -30.018  1.00  0.00     0.006 C 
HETATM   14  C8  UNL     1     -17.538  -3.071 -31.266  1.00  0.00     0.000 C 
HETATM   15  C9  UNL     1     -16.414  -2.225 -31.818  1.00  0.00     0.000 C 
HETATM   16  C10 UNL     1     -15.135  -2.335 -31.016  1.00  0.00     0.000 C 
HETATM   17  C11 UNL     1     -15.414  -1.800 -29.617  1.00  0.00     0.000 C 
HETATM   18  C12 UNL     1     -15.961  -2.933 -28.822  1.00  0.00     0.006 C 
ENDBRANCH  11  12
ENDBRANCH   1  11
TORSDOF 5
ENDMDL
MODEL 4
REMARK VINA RESULT: -7.070496352      1.801      3.275
REMARK  5 active torsions:
REMARK  status: ('A' for Active; 'I' for Inactive)
REMARK    1  A    between atoms: C2_2  and  S1_4 
REMARK    2  A    between atoms: S1_4  and  C4_5 
REMARK    3  A    between atoms: C4_5  and  N2_9 
REMARK    4  A    between atoms: N2_9  and  C5_11 
REMARK    5  A    between atoms: C5_11  and  C6_12 
ROOT
HETATM    1  N2  UNL     1     -14.493  -4.613 -27.691  1.00  0.00    -0.370 N 
ATOM      2  H2  UNL     1     -13.578  -4.272 -27.397  1.00  0.00     0.161 HD
ENDROOT
BRANCH   1   3
HETATM    3  C4  UNL     1     -15.401  -5.244 -26.761  1.00  0.00     0.138 C 
HETATM    4  N1  UNL     1     -15.102  -6.428 -26.446  1.00  0.00    -0.380 N 
ATOM      5  H12 UNL     1     -15.743  -6.873 -25.789  1.00  0.00     0.158 HD
ATOM      6  H11 UNL     1     -14.263  -6.919 -26.752  1.00  0.00     0.158 HD
BRANCH   3   7
HETATM    7  S1  UNL     1     -16.827  -4.409 -26.241  1.00  0.00    -0.061 SA
BRANCH   7   8
HETATM    8  C2  UNL     1     -16.642  -2.684 -25.991  1.00  0.00    -0.027 C 
HETATM    9  C1  UNL     1     -15.528  -2.027 -25.806  1.00  0.00     0.026 C 
HETATM   10  C3  UNL     1     -17.931  -1.867 -26.051  1.00  0.00     0.055 C 
ENDBRANCH   7   8
ENDBRANCH   3   7
ENDBRANCH   1   3
BRANCH   1  11
HETATM   11  C5  UNL     1     -14.936  -4.488 -29.045  1.00  0.00     0.126 C 
BRANCH  11  12
HETATM   12  C6  UNL     1     -15.289  -3.084 -29.461  1.00  0.00     0.003 C 
HETATM   13  C7  UNL     1     -16.754  -2.837 -29.484  1.00  0.00     0.006 C 
HETATM   14  C8  UNL     1     -17.458  -3.161 -30.756  1.00  0.00     0.000 C 
HETATM   15  C9  UNL     1     -17.403  -2.069 -31.799  1.00  0.00     0.000 C 
HETATM   16  C10 UNL     1     -16.047  -1.945 -32.460  1.00  0.00     0.000 C 
HETATM   17  C11 UNL     1     -15.039  -1.550 -31.386  1.00  0.00     0.000 C 
HETATM   18  C12 UNL     1     -14.567  -2.812 -30.753  1.00  0.00     0.006 C 
ENDBRANCH  11  12
ENDBRANCH   1  11
TORSDOF 5
ENDMDL
MODEL 5
REMARK VINA RESULT: -7.056407067      2.473      5.088
REMARK  5 active torsions:
REMARK  status: ('A' for Active; 'I' for Inactive)
REMARK    1  A    between atoms: C2_2  and  S1_4 
REMARK    2  A    between atoms: S1_4  and  C4_5 
REMARK    3  A    between atoms: C4_5  and  N2_9 
REMARK    4  A    between atoms: N2_9  and  C5_11 
REMARK    5  A    between atoms: C5_11  and  C6_12 
ROOT
HETATM    1  N2  UNL     1     -14.224  -4.519 -28.268  1.00  0.00    -0.370 N 
ATOM      2  H2  UNL     1     -13.297  -4.206 -27.979  1.00  0.00     0.161 HD
ENDROOT
BRANCH   1   3
HETATM    3  C4  UNL     1     -14.740  -4.233 -29.587  1.00  0.00     0.138 C 
HETATM    4  N1  UNL     1     -14.663  -5.188 -30.408  1.00  0.00    -0.380 N 
ATOM      5  H12 UNL     1     -15.028  -4.986 -31.338  1.00  0.00     0.158 HD
ATOM      6  H11 UNL     1     -14.327  -6.124 -30.183  1.00  0.00     0.158 HD
BRANCH   3   7
HETATM    7  S1  UNL     1     -15.312  -2.643 -29.968  1.00  0.00    -0.061 SA
BRANCH   7   8
HETATM    8  C2  UNL     1     -16.786  -2.579 -30.915  1.00  0.00    -0.027 C 
HETATM    9  C1  UNL     1     -17.960  -3.046 -30.584  1.00  0.00     0.026 C 
HETATM   10  C3  UNL     1     -16.679  -1.848 -32.252  1.00  0.00     0.055 C 
ENDBRANCH   7   8
ENDBRANCH   3   7
ENDBRANCH   1   3
BRANCH   1  11
HETATM   11  C5  UNL     1     -15.072  -5.259 -27.387  1.00  0.00     0.126 C 
BRANCH  11  12
HETATM   12  C6  UNL     1     -15.702  -4.441 -26.290  1.00  0.00     0.003 C 
HETATM   13  C7  UNL     1     -17.185  -4.523 -26.285  1.00  0.00     0.006 C 
HETATM   14  C8  UNL     1     -17.903  -3.536 -27.138  1.00  0.00     0.000 C 
HETATM   15  C9  UNL     1     -18.118  -2.187 -26.492  1.00  0.00     0.000 C 
HETATM   16  C10 UNL     1     -16.855  -1.356 -26.413  1.00  0.00     0.000 C 
HETATM   17  C11 UNL     1     -15.865  -2.096 -25.520  1.00  0.00     0.000 C 
HETATM   18  C12 UNL     1     -15.131  -3.053 -26.391  1.00  0.00     0.006 C 
ENDBRANCH  11  12
ENDBRANCH   1  11
TORSDOF 5
ENDMDL
