MODEL 1
REMARK VINA RESULT: -7.319115126      0.000      0.000
REMARK  13 active torsions:
REMARK  status: ('A' for Active; 'I' for Inactive)
REMARK    1  A    between atoms: C3_3  and  C4_4 
REMARK       I    between atoms: C4_4  and  N1_6 
REMARK    2  A    between atoms: N1_6  and  N2_8 
REMARK    3  A    between atoms: N2_8  and  C5_10 
REMARK    4  A    between atoms: C5_10  and  N3_11 
REMARK    5  A    between atoms: C5_10  and  C6_14 
REMARK    6  A    between atoms: C7_15  and  C8_16 
REMARK    7  A    between atoms: C9_19  and  C10_20 
REMARK    8  A    between atoms: C10_20  and  C11_21 
REMARK    9  A    between atoms: C13_29  and  C14_30 
REMARK   10  A    between atoms: C14_30  and  C15_31 
REMARK   11  A    between atoms: C15_31  and  N6_32 
REMARK   12  A    between atoms: N9_40  and  C16_41 
REMARK   13  A    between atoms: C17_47  and  N12_48 
ROOT
HETATM    1  C5  UNL     1      22.292  19.082  13.652  1.00  0.00     0.126 C 
ENDROOT
BRANCH   1   2
HETATM    2  N2  UNL     1      22.651  18.866  15.050  1.00  0.00    -0.282 N 
ATOM      3  H2  UNL     1      23.283  18.099  15.281  1.00  0.00     0.188 HD
BRANCH   2   4
HETATM    4  N1  UNL     1      22.162  19.668  16.083  1.00  0.00    -0.263 N 
HETATM    5  C4  UNL     1      21.008  19.440  16.826  1.00  0.00     0.290 C 
HETATM    6  O1  UNL     1      20.264  18.437  16.603  1.00  0.00    -0.264 OA
ATOM      7  H1  UNL     1      22.702  20.501  16.314  1.00  0.00     0.190 HD
BRANCH   5   8
HETATM    8  C3  UNL     1      20.598  20.327  17.895  1.00  0.00     0.143 A 
HETATM    9  C2  UNL     1      19.631  21.334  17.842  1.00  0.00     0.067 A 
HETATM   10  C1  UNL     1      18.851  21.604  16.619  1.00  0.00     0.073 C 
HETATM   11  N9  UNL     1      19.556  21.933  19.031  1.00  0.00    -0.223 N 
HETATM   12  N8  UNL     1      20.427  21.346  19.817  1.00  0.00    -0.234 N 
HETATM   13  N7  UNL     1      21.062  20.381  19.155  1.00  0.00    -0.279 N 
ATOM     14  H8  UNL     1      20.594  21.593  20.793  1.00  0.00     0.209 HD
ATOM     15  H7  UNL     1      21.787  19.778  19.544  1.00  0.00     0.189 HD
BRANCH  11  16
HETATM   16  C16 UNL     1      18.658  23.002  19.356  1.00  0.00     0.196 A 
HETATM   17  N10 UNL     1      17.438  22.884  19.933  1.00  0.00    -0.220 N 
HETATM   18  O5  UNL     1      16.944  24.066  20.057  1.00  0.00    -0.153 OA
ATOM     19  H10 UNL     1      16.991  22.013  20.219  1.00  0.00     0.198 HD
HETATM   20  N11 UNL     1      17.744  24.974  19.605  1.00  0.00    -0.222 N 
HETATM   21  C17 UNL     1      18.840  24.351  19.152  1.00  0.00     0.169 A 
ATOM     22  H11 UNL     1      17.573  25.979  19.595  1.00  0.00     0.198 HD
BRANCH  21  23
HETATM   23  N12 UNL     1      19.858  24.948  18.624  1.00  0.00    -0.381 N 
ATOM     24 2H12 UNL     1      20.239  24.738  17.702  1.00  0.00     0.157 HD
ATOM     25 1H12 UNL     1      20.428  25.693  19.025  1.00  0.00     0.157 HD
ENDBRANCH  21  23
ENDBRANCH  11  16
ENDBRANCH   5   8
ENDBRANCH   2   4
ENDBRANCH   1   2
BRANCH   1  26
HETATM   26  N3  UNL     1      21.118  18.716  13.435  1.00  0.00    -0.384 N 
ATOM     27  H32 UNL     1      20.499  18.187  14.050  1.00  0.00     0.157 HD
ATOM     28  H31 UNL     1      20.875  18.844  12.453  1.00  0.00     0.157 HD
ENDBRANCH   1  26
BRANCH   1  29
HETATM   29  C6  UNL     1      23.191  19.885  12.760  1.00  0.00     0.037 A 
HETATM   30  C7  UNL     1      24.298  19.357  12.154  1.00  0.00     0.039 A 
HETATM   31  C12 UNL     1      25.159  20.249  11.543  1.00  0.00     0.067 A 
HETATM   32  S1  UNL     1      24.467  21.748  11.782  1.00  0.00    -0.104 SA
HETATM   33  C13 UNL     1      23.057  21.247  12.686  1.00  0.00    -0.001 A 
BRANCH  30  34
HETATM   34  C8  UNL     1      24.545  17.901  11.867  1.00  0.00     0.183 A 
HETATM   35  N4  UNL     1      25.115  17.417  10.722  1.00  0.00    -0.322 N 
HETATM   36  C9  UNL     1      25.179  16.061  10.830  1.00  0.00     0.114 A 
ATOM     37  H4  UNL     1      25.434  17.973   9.928  1.00  0.00     0.169 HD
HETATM   38  N5  UNL     1      24.660  15.763  12.009  1.00  0.00    -0.246 N 
HETATM   39  O4  UNL     1      24.300  16.859  12.586  1.00  0.00    -0.217 OA
ATOM     40  H5  UNL     1      24.560  14.825  12.396  1.00  0.00     0.196 HD
BRANCH  36  41
HETATM   41  C10 UNL     1      25.736  15.082   9.869  1.00  0.00     0.191 C 
BRANCH  41  42
HETATM   42  C11 UNL     1      27.216  15.145  10.017  1.00  0.00     0.179 C 
HETATM   43  O2  UNL     1      27.737  15.721  10.996  1.00  0.00    -0.648 OA
HETATM   44  O3  UNL     1      28.038  14.564   9.076  1.00  0.00    -0.648 OA
ENDBRANCH  41  42
ENDBRANCH  36  41
ENDBRANCH  30  34
BRANCH  33  45
HETATM   45  C14 UNL     1      22.137  22.241  13.339  1.00  0.00     0.074 C 
BRANCH  45  46
HETATM   46  C15 UNL     1      22.857  23.054  14.375  1.00  0.00     0.234 C 
BRANCH  46  47
HETATM   47  N6  UNL     1      22.094  23.227  15.559  1.00  0.00    -0.079 N 
ATOM     48  H63 UNL     1      22.375  24.072  16.056  1.00  0.00     0.274 HD
ATOM     49  H62 UNL     1      21.130  23.478  15.340  1.00  0.00     0.274 HD
ATOM     50  H61 UNL     1      22.132  22.413  16.172  1.00  0.00     0.274 HD
ENDBRANCH  46  47
ENDBRANCH  45  46
ENDBRANCH  33  45
ENDBRANCH   1  29
TORSDOF 13
ENDMDL
MODEL 2
REMARK VINA RESULT: -7.143423039      4.576      6.416
REMARK  13 active torsions:
REMARK  status: ('A' for Active; 'I' for Inactive)
REMARK    1  A    between atoms: C3_3  and  C4_4 
REMARK       I    between atoms: C4_4  and  N1_6 
REMARK    2  A    between atoms: N1_6  and  N2_8 
REMARK    3  A    between atoms: N2_8  and  C5_10 
REMARK    4  A    between atoms: C5_10  and  N3_11 
REMARK    5  A    between atoms: C5_10  and  C6_14 
REMARK    6  A    between atoms: C7_15  and  C8_16 
REMARK    7  A    between atoms: C9_19  and  C10_20 
REMARK    8  A    between atoms: C10_20  and  C11_21 
REMARK    9  A    between atoms: C13_29  and  C14_30 
REMARK   10  A    between atoms: C14_30  and  C15_31 
REMARK   11  A    between atoms: C15_31  and  N6_32 
REMARK   12  A    between atoms: N9_40  and  C16_41 
REMARK   13  A    between atoms: C17_47  and  N12_48 
ROOT
HETATM    1  C5  UNL     1      26.581  24.400  10.006  1.00  0.00     0.126 C 
ENDROOT
BRANCH   1   2
HETATM    2  N2  UNL     1      25.312  23.705  10.198  1.00  0.00    -0.282 N 
ATOM      3  H2  UNL     1      24.825  23.340   9.379  1.00  0.00     0.188 HD
BRANCH   2   4
HETATM    4  N1  UNL     1      24.740  23.522  11.458  1.00  0.00    -0.263 N 
HETATM    5  C4  UNL     1      23.381  23.511  11.751  1.00  0.00     0.290 C 
HETATM    6  O1  UNL     1      22.507  23.688  10.848  1.00  0.00    -0.264 OA
ATOM      7  H1  UNL     1      25.381  23.383  12.238  1.00  0.00     0.190 HD
BRANCH   5   8
HETATM    8  C3  UNL     1      22.889  23.292  13.095  1.00  0.00     0.143 A 
HETATM    9  C2  UNL     1      22.475  22.086  13.665  1.00  0.00     0.067 A 
HETATM   10  C1  UNL     1      22.523  20.813  12.921  1.00  0.00     0.073 C 
HETATM   11  N9  UNL     1      22.081  22.306  14.920  1.00  0.00    -0.223 N 
HETATM   12  N8  UNL     1      22.231  23.588  15.155  1.00  0.00    -0.234 N 
HETATM   13  N7  UNL     1      22.714  24.196  14.074  1.00  0.00    -0.279 N 
ATOM     14  H8  UNL     1      22.010  24.050  16.037  1.00  0.00     0.209 HD
ATOM     15  H7  UNL     1      22.919  25.193  14.001  1.00  0.00     0.189 HD
BRANCH  11  16
HETATM   16  C16 UNL     1      21.609  21.296  15.820  1.00  0.00     0.196 A 
HETATM   17  N10 UNL     1      22.332  20.667  16.778  1.00  0.00    -0.220 N 
HETATM   18  O5  UNL     1      21.556  19.828  17.371  1.00  0.00    -0.153 OA
ATOM     19  H10 UNL     1      23.316  20.829  16.992  1.00  0.00     0.198 HD
HETATM   20  N11 UNL     1      20.360  19.847  16.883  1.00  0.00    -0.222 N 
HETATM   21  C17 UNL     1      20.344  20.758  15.902  1.00  0.00     0.169 A 
ATOM     22  H11 UNL     1      19.574  19.273  17.188  1.00  0.00     0.198 HD
BRANCH  21  23
HETATM   23  N12 UNL     1      19.308  21.045  15.184  1.00  0.00    -0.381 N 
ATOM     24 2H12 UNL     1      19.342  21.343  14.209  1.00  0.00     0.157 HD
ATOM     25 1H12 UNL     1      18.326  21.027  15.460  1.00  0.00     0.157 HD
ENDBRANCH  21  23
ENDBRANCH  11  16
ENDBRANCH   5   8
ENDBRANCH   2   4
ENDBRANCH   1   2
BRANCH   1  26
HETATM   26  N3  UNL     1      26.682  25.363  10.796  1.00  0.00    -0.384 N 
ATOM     27  H32 UNL     1      26.047  26.153  10.910  1.00  0.00     0.157 HD
ATOM     28  H31 UNL     1      27.609  25.386  11.220  1.00  0.00     0.157 HD
ENDBRANCH   1  26
BRANCH   1  29
HETATM   29  C6  UNL     1      27.648  23.795   9.143  1.00  0.00     0.037 A 
HETATM   30  C7  UNL     1      28.271  22.616   9.450  1.00  0.00     0.039 A 
HETATM   31  C12 UNL     1      29.381  22.284   8.698  1.00  0.00     0.067 A 
HETATM   32  S1  UNL     1      29.552  23.535   7.607  1.00  0.00    -0.104 SA
HETATM   33  C13 UNL     1      28.196  24.514   8.112  1.00  0.00    -0.001 A 
BRANCH  30  34
HETATM   34  C8  UNL     1      27.731  21.533  10.344  1.00  0.00     0.183 A 
HETATM   35  N4  UNL     1      26.645  20.754  10.057  1.00  0.00    -0.322 N 
HETATM   36  C9  UNL     1      26.469  19.888  11.092  1.00  0.00     0.114 A 
ATOM     37  H4  UNL     1      26.069  20.812   9.217  1.00  0.00     0.169 HD
HETATM   38  N5  UNL     1      27.428  20.155  11.961  1.00  0.00    -0.246 N 
HETATM   39  O4  UNL     1      28.146  21.120  11.494  1.00  0.00    -0.217 OA
ATOM     40  H5  UNL     1      27.576  19.680  12.851  1.00  0.00     0.196 HD
BRANCH  36  41
HETATM   41  C10 UNL     1      25.448  18.825  11.246  1.00  0.00     0.191 C 
BRANCH  41  42
HETATM   42  C11 UNL     1      26.114  17.548  10.871  1.00  0.00     0.179 C 
HETATM   43  O2  UNL     1      27.073  17.537  10.068  1.00  0.00    -0.648 OA
HETATM   44  O3  UNL     1      25.687  16.353  11.407  1.00  0.00    -0.648 OA
ENDBRANCH  41  42
ENDBRANCH  36  41
ENDBRANCH  30  34
BRANCH  33  45
HETATM   45  C14 UNL     1      27.969  25.899   7.571  1.00  0.00     0.074 C 
BRANCH  45  46
HETATM   46  C15 UNL     1      29.247  26.506   7.072  1.00  0.00     0.234 C 
BRANCH  46  47
HETATM   47  N6  UNL     1      29.748  27.512   7.940  1.00  0.00    -0.079 N 
ATOM     48  H63 UNL     1      29.587  27.268   8.916  1.00  0.00     0.274 HD
ATOM     49  H62 UNL     1      30.768  27.521   7.939  1.00  0.00     0.274 HD
ATOM     50  H61 UNL     1      29.373  28.435   7.726  1.00  0.00     0.274 HD
ENDBRANCH  46  47
ENDBRANCH  45  46
ENDBRANCH  33  45
ENDBRANCH   1  29
TORSDOF 13
ENDMDL
MODEL 3
REMARK VINA RESULT: -7.126624930      2.920      4.252
REMARK  13 active torsions:
REMARK  status: ('A' for Active; 'I' for Inactive)
REMARK    1  A    between atoms: C3_3  and  C4_4 
REMARK       I    between atoms: C4_4  and  N1_6 
REMARK    2  A    between atoms: N1_6  and  N2_8 
REMARK    3  A    between atoms: N2_8  and  C5_10 
REMARK    4  A    between atoms: C5_10  and  N3_11 
REMARK    5  A    between atoms: C5_10  and  C6_14 
REMARK    6  A    between atoms: C7_15  and  C8_16 
REMARK    7  A    between atoms: C9_19  and  C10_20 
REMARK    8  A    between atoms: C10_20  and  C11_21 
REMARK    9  A    between atoms: C13_29  and  C14_30 
REMARK   10  A    between atoms: C14_30  and  C15_31 
REMARK   11  A    between atoms: C15_31  and  N6_32 
REMARK   12  A    between atoms: N9_40  and  C16_41 
REMARK   13  A    between atoms: C17_47  and  N12_48 
ROOT
HETATM    1  C5  UNL     1      22.669  23.009  12.700  1.00  0.00     0.126 C 
ENDROOT
BRANCH   1   2
HETATM    2  N2  UNL     1      23.009  23.519  14.024  1.00  0.00    -0.282 N 
ATOM      3  H2  UNL     1      23.925  23.947  14.164  1.00  0.00     0.188 HD
BRANCH   2   4
HETATM    4  N1  UNL     1      22.131  23.442  15.106  1.00  0.00    -0.263 N 
HETATM    5  C4  UNL     1      22.173  22.509  16.136  1.00  0.00     0.290 C 
HETATM    6  O1  UNL     1      23.054  21.597  16.169  1.00  0.00    -0.264 OA
ATOM      7  H1  UNL     1      21.386  24.138  15.144  1.00  0.00     0.190 HD
BRANCH   5   8
HETATM    8  C3  UNL     1      21.221  22.529  17.228  1.00  0.00     0.143 A 
HETATM    9  C2  UNL     1      20.606  21.436  17.842  1.00  0.00     0.067 A 
HETATM   10  C1  UNL     1      20.898  20.047  17.439  1.00  0.00     0.073 C 
HETATM   11  N9  UNL     1      19.786  21.873  18.798  1.00  0.00    -0.223 N 
HETATM   12  N8  UNL     1      19.863  23.183  18.806  1.00  0.00    -0.234 N 
HETATM   13  N7  UNL     1      20.718  23.596  17.873  1.00  0.00    -0.279 N 
ATOM     14  H8  UNL     1      19.345  23.796  19.436  1.00  0.00     0.209 HD
ATOM     15  H7  UNL     1      20.954  24.569  17.678  1.00  0.00     0.189 HD
BRANCH  11  16
HETATM   16  C16 UNL     1      19.000  21.033  19.653  1.00  0.00     0.196 A 
HETATM   17  N10 UNL     1      17.691  20.721  19.495  1.00  0.00    -0.220 N 
HETATM   18  O5  UNL     1      17.350  19.948  20.466  1.00  0.00    -0.153 OA
ATOM     19  H10 UNL     1      17.084  21.041  18.740  1.00  0.00     0.198 HD
HETATM   20  N11 UNL     1      18.335  19.716  21.268  1.00  0.00    -0.222 N 
HETATM   21  C17 UNL     1      19.399  20.379  20.796  1.00  0.00     0.169 A 
ATOM     22  H11 UNL     1      18.308  19.135  22.106  1.00  0.00     0.198 HD
BRANCH  21  23
HETATM   23  N12 UNL     1      20.568  20.379  21.348  1.00  0.00    -0.381 N 
ATOM     24 2H12 UNL     1      21.219  21.164  21.327  1.00  0.00     0.157 HD
ATOM     25 1H12 UNL     1      21.017  19.627  21.871  1.00  0.00     0.157 HD
ENDBRANCH  21  23
ENDBRANCH  11  16
ENDBRANCH   5   8
ENDBRANCH   2   4
ENDBRANCH   1   2
BRANCH   1  26
HETATM   26  N3  UNL     1      21.600  23.510  12.294  1.00  0.00    -0.384 N 
ATOM     27  H32 UNL     1      21.328  24.494  12.286  1.00  0.00     0.157 HD
ATOM     28  H31 UNL     1      20.902  22.786  12.124  1.00  0.00     0.157 HD
ENDBRANCH   1  26
BRANCH   1  29
HETATM   29  C6  UNL     1      23.670  22.209  11.921  1.00  0.00     0.037 A 
HETATM   30  C7  UNL     1      23.946  20.897  12.192  1.00  0.00     0.039 A 
HETATM   31  C12 UNL     1      25.039  20.344  11.553  1.00  0.00     0.067 A 
HETATM   32  S1  UNL     1      25.654  21.575  10.610  1.00  0.00    -0.104 SA
HETATM   33  C13 UNL     1      24.513  22.829  11.034  1.00  0.00    -0.001 A 
BRANCH  30  34
HETATM   34  C8  UNL     1      23.044  19.931  12.911  1.00  0.00     0.183 A 
HETATM   35  N4  UNL     1      23.430  19.127  13.947  1.00  0.00    -0.322 N 
HETATM   36  C9  UNL     1      22.345  18.404  14.340  1.00  0.00     0.114 A 
ATOM     37  H4  UNL     1      24.364  19.076  14.353  1.00  0.00     0.169 HD
HETATM   38  N5  UNL     1      21.351  18.778  13.552  1.00  0.00    -0.246 N 
HETATM   39  O4  UNL     1      21.794  19.669  12.731  1.00  0.00    -0.217 OA
ATOM     40  H5  UNL     1      20.396  18.422  13.588  1.00  0.00     0.196 HD
BRANCH  36  41
HETATM   41  C10 UNL     1      22.240  17.415  15.438  1.00  0.00     0.191 C 
BRANCH  41  42
HETATM   42  C11 UNL     1      23.149  16.293  15.080  1.00  0.00     0.179 C 
HETATM   43  O2  UNL     1      23.462  16.078  13.888  1.00  0.00    -0.648 OA
HETATM   44  O3  UNL     1      23.667  15.473  16.058  1.00  0.00    -0.648 OA
ENDBRANCH  41  42
ENDBRANCH  36  41
ENDBRANCH  30  34
BRANCH  33  45
HETATM   45  C14 UNL     1      24.701  24.256  10.599  1.00  0.00     0.074 C 
BRANCH  45  46
HETATM   46  C15 UNL     1      26.147  24.561  10.337  1.00  0.00     0.234 C 
BRANCH  46  47
HETATM   47  N6  UNL     1      26.535  25.833  10.837  1.00  0.00    -0.079 N 
ATOM     48  H63 UNL     1      25.777  26.509  10.745  1.00  0.00     0.274 HD
ATOM     49  H62 UNL     1      26.619  25.816  11.853  1.00  0.00     0.274 HD
ATOM     50  H61 UNL     1      27.390  26.179  10.403  1.00  0.00     0.274 HD
ENDBRANCH  46  47
ENDBRANCH  45  46
ENDBRANCH  33  45
ENDBRANCH   1  29
TORSDOF 13
ENDMDL
MODEL 4
REMARK VINA RESULT: -7.082576619      1.311      1.621
REMARK  13 active torsions:
REMARK  status: ('A' for Active; 'I' for Inactive)
REMARK    1  A    between atoms: C3_3  and  C4_4 
REMARK       I    between atoms: C4_4  and  N1_6 
REMARK    2  A    between atoms: N1_6  and  N2_8 
REMARK    3  A    between atoms: N2_8  and  C5_10 
REMARK    4  A    between atoms: C5_10  and  N3_11 
REMARK    5  A    between atoms: C5_10  and  C6_14 
REMARK    6  A    between atoms: C7_15  and  C8_16 
REMARK    7  A    between atoms: C9_19  and  C10_20 
REMARK    8  A    between atoms: C10_20  and  C11_21 
REMARK    9  A    between atoms: C13_29  and  C14_30 
REMARK   10  A    between atoms: C14_30  and  C15_31 
REMARK   11  A    between atoms: C15_31  and  N6_32 
REMARK   12  A    between atoms: N9_40  and  C16_41 
REMARK   13  A    between atoms: C17_47  and  N12_48 
ROOT
HETATM    1  C5  UNL     1      22.638  19.128  13.068  1.00  0.00     0.126 C 
ENDROOT
BRANCH   1   2
HETATM    2  N2  UNL     1      22.788  18.990  14.513  1.00  0.00    -0.282 N 
ATOM      3  H2  UNL     1      23.176  18.123  14.885  1.00  0.00     0.188 HD
BRANCH   2   4
HETATM    4  N1  UNL     1      22.421  19.998  15.406  1.00  0.00    -0.263 N 
HETATM    5  C4  UNL     1      21.166  20.589  15.509  1.00  0.00     0.290 C 
HETATM    6  O1  UNL     1      20.208  20.247  14.751  1.00  0.00    -0.264 OA
ATOM      7  H1  UNL     1      23.143  20.334  16.043  1.00  0.00     0.190 HD
BRANCH   5   8
HETATM    8  C3  UNL     1      20.883  21.619  16.487  1.00  0.00     0.143 A 
HETATM    9  C2  UNL     1      20.093  21.511  17.634  1.00  0.00     0.067 A 
HETATM   10  C1  UNL     1      19.440  20.244  18.016  1.00  0.00     0.073 C 
HETATM   11  N9  UNL     1      20.072  22.685  18.266  1.00  0.00    -0.223 N 
HETATM   12  N8  UNL     1      20.810  23.515  17.567  1.00  0.00    -0.234 N 
HETATM   13  N7  UNL     1      21.305  22.895  16.497  1.00  0.00    -0.279 N 
ATOM     14  H8  UNL     1      20.980  24.491  17.807  1.00  0.00     0.209 HD
ATOM     15  H7  UNL     1      21.910  23.323  15.796  1.00  0.00     0.189 HD
BRANCH  11  16
HETATM   16  C16 UNL     1      19.378  22.945  19.492  1.00  0.00     0.196 A 
HETATM   17  N10 UNL     1      19.240  22.094  20.537  1.00  0.00    -0.220 N 
HETATM   18  O5  UNL     1      18.550  22.692  21.445  1.00  0.00    -0.153 OA
ATOM     19  H10 UNL     1      19.616  21.148  20.595  1.00  0.00     0.198 HD
HETATM   20  N11 UNL     1      18.214  23.887  21.087  1.00  0.00    -0.222 N 
HETATM   21  C17 UNL     1      18.714  24.093  19.862  1.00  0.00     0.169 A 
ATOM     22  H11 UNL     1      17.668  24.551  21.636  1.00  0.00     0.198 HD
BRANCH  21  23
HETATM   23  N12 UNL     1      18.571  25.185  19.184  1.00  0.00    -0.381 N 
ATOM     24 2H12 UNL     1      18.593  26.123  19.585  1.00  0.00     0.157 HD
ATOM     25 1H12 UNL     1      18.416  25.288  18.181  1.00  0.00     0.157 HD
ENDBRANCH  21  23
ENDBRANCH  11  16
ENDBRANCH   5   8
ENDBRANCH   2   4
ENDBRANCH   1   2
BRANCH   1  26
HETATM   26  N3  UNL     1      21.482  18.817  12.711  1.00  0.00    -0.384 N 
ATOM     27  H32 UNL     1      20.891  19.279  12.020  1.00  0.00     0.157 HD
ATOM     28  H31 UNL     1      21.085  18.120  13.341  1.00  0.00     0.157 HD
ENDBRANCH   1  26
BRANCH   1  29
HETATM   29  C6  UNL     1      23.702  19.812  12.263  1.00  0.00     0.037 A 
HETATM   30  C7  UNL     1      24.818  19.166  11.807  1.00  0.00     0.039 A 
HETATM   31  C12 UNL     1      25.820  19.954  11.273  1.00  0.00     0.067 A 
HETATM   32  S1  UNL     1      25.246  21.516  11.386  1.00  0.00    -0.104 SA
HETATM   33  C13 UNL     1      23.703  21.177  12.133  1.00  0.00    -0.001 A 
BRANCH  30  34
HETATM   34  C8  UNL     1      24.962  17.683  11.594  1.00  0.00     0.183 A 
HETATM   35  N4  UNL     1      25.619  17.106  10.543  1.00  0.00    -0.322 N 
HETATM   36  C9  UNL     1      25.543  15.755  10.697  1.00  0.00     0.114 A 
ATOM     37  H4  UNL     1      26.083  17.599   9.780  1.00  0.00     0.169 HD
HETATM   38  N5  UNL     1      24.859  15.551  11.810  1.00  0.00    -0.246 N 
HETATM   39  O4  UNL     1      24.535  16.696  12.307  1.00  0.00    -0.217 OA
ATOM     40  H5  UNL     1      24.626  14.641  12.208  1.00  0.00     0.196 HD
BRANCH  36  41
HETATM   41  C10 UNL     1      26.120  14.693   9.841  1.00  0.00     0.191 C 
BRANCH  41  42
HETATM   42  C11 UNL     1      27.598  14.810   9.966  1.00  0.00     0.179 C 
HETATM   43  O2  UNL     1      28.118  15.290  10.998  1.00  0.00    -0.648 OA
HETATM   44  O3  UNL     1      28.422  14.389   8.945  1.00  0.00    -0.648 OA
ENDBRANCH  41  42
ENDBRANCH  36  41
ENDBRANCH  30  34
BRANCH  33  45
HETATM   45  C14 UNL     1      22.809  22.273  12.645  1.00  0.00     0.074 C 
BRANCH  45  46
HETATM   46  C15 UNL     1      21.640  22.495  11.732  1.00  0.00     0.234 C 
BRANCH  46  47
HETATM   47  N6  UNL     1      20.408  22.099  12.317  1.00  0.00    -0.079 N 
ATOM     48  H63 UNL     1      19.812  21.631  11.636  1.00  0.00     0.274 HD
ATOM     49  H62 UNL     1      20.545  21.330  12.973  1.00  0.00     0.274 HD
ATOM     50  H61 UNL     1      19.918  22.876  12.760  1.00  0.00     0.274 HD
ENDBRANCH  46  47
ENDBRANCH  45  46
ENDBRANCH  33  45
ENDBRANCH   1  29
TORSDOF 13
ENDMDL
MODEL 5
REMARK VINA RESULT: -7.073485125      1.346      1.879
REMARK  13 active torsions:
REMARK  status: ('A' for Active; 'I' for Inactive)
REMARK    1  A    between atoms: C3_3  and  C4_4 
REMARK       I    between atoms: C4_4  and  N1_6 
REMARK    2  A    between atoms: N1_6  and  N2_8 
REMARK    3  A    between atoms: N2_8  and  C5_10 
REMARK    4  A    between atoms: C5_10  and  N3_11 
REMARK    5  A    between atoms: C5_10  and  C6_14 
REMARK    6  A    between atoms: C7_15  and  C8_16 
REMARK    7  A    between atoms: C9_19  and  C10_20 
REMARK    8  A    between atoms: C10_20  and  C11_21 
REMARK    9  A    between atoms: C13_29  and  C14_30 
REMARK   10  A    between atoms: C14_30  and  C15_31 
REMARK   11  A    between atoms: C15_31  and  N6_32 
REMARK   12  A    between atoms: N9_40  and  C16_41 
REMARK   13  A    between atoms: C17_47  and  N12_48 
ROOT
HETATM    1  C5  UNL     1      22.365  18.885  13.227  1.00  0.00     0.126 C 
ENDROOT
BRANCH   1   2
HETATM    2  N2  UNL     1      22.664  18.558  14.617  1.00  0.00    -0.282 N 
ATOM      3  H2  UNL     1      23.106  17.662  14.825  1.00  0.00     0.188 HD
BRANCH   2   4
HETATM    4  N1  UNL     1      22.369  19.423  15.672  1.00  0.00    -0.263 N 
HETATM    5  C4  UNL     1      21.115  19.642  16.231  1.00  0.00     0.290 C 
HETATM    6  O1  UNL     1      20.082  19.048  15.795  1.00  0.00    -0.264 OA
ATOM      7  H1  UNL     1      23.149  19.946  16.070  1.00  0.00     0.190 HD
BRANCH   5   8
HETATM    8  C3  UNL     1      20.919  20.551  17.341  1.00  0.00     0.143 A 
HETATM    9  C2  UNL     1      20.142  20.345  18.484  1.00  0.00     0.067 A 
HETATM   10  C1  UNL     1      19.409  19.085  18.714  1.00  0.00     0.073 C 
HETATM   11  N9  UNL     1      20.212  21.425  19.263  1.00  0.00    -0.223 N 
HETATM   12  N8  UNL     1      20.995  22.289  18.659  1.00  0.00    -0.234 N 
HETATM   13  N7  UNL     1      21.428  21.784  17.507  1.00  0.00    -0.279 N 
ATOM     14  H8  UNL     1      21.235  23.212  19.021  1.00  0.00     0.209 HD
ATOM     15  H7  UNL     1      22.050  22.258  16.852  1.00  0.00     0.189 HD
BRANCH  11  16
HETATM   16  C16 UNL     1      19.557  21.567  20.529  1.00  0.00     0.196 A 
HETATM   17  N10 UNL     1      18.505  22.374  20.807  1.00  0.00    -0.220 N 
HETATM   18  O5  UNL     1      18.209  22.223  22.051  1.00  0.00    -0.153 OA
ATOM     19  H10 UNL     1      18.032  22.992  20.149  1.00  0.00     0.198 HD
HETATM   20  N11 UNL     1      18.985  21.369  22.632  1.00  0.00    -0.222 N 
HETATM   21  C17 UNL     1      19.853  20.927  21.712  1.00  0.00     0.169 A 
ATOM     22  H11 UNL     1      18.945  21.084  23.611  1.00  0.00     0.198 HD
BRANCH  21  23
HETATM   23  N12 UNL     1      20.785  20.060  21.938  1.00  0.00    -0.381 N 
ATOM     24 2H12 UNL     1      20.787  19.105  21.580  1.00  0.00     0.157 HD
ATOM     25 1H12 UNL     1      21.633  20.178  22.491  1.00  0.00     0.157 HD
ENDBRANCH  21  23
ENDBRANCH  11  16
ENDBRANCH   5   8
ENDBRANCH   2   4
ENDBRANCH   1   2
BRANCH   1  26
HETATM   26  N3  UNL     1      21.164  18.660  12.967  1.00  0.00    -0.384 N 
ATOM     27  H32 UNL     1      20.546  19.181  12.344  1.00  0.00     0.157 HD
ATOM     28  H31 UNL     1      20.778  17.971  13.612  1.00  0.00     0.157 HD
ENDBRANCH   1  26
BRANCH   1  29
HETATM   29  C6  UNL     1      23.367  19.632  12.397  1.00  0.00     0.037 A 
HETATM   30  C7  UNL     1      24.506  19.053  11.910  1.00  0.00     0.039 A 
HETATM   31  C12 UNL     1      25.447  19.899  11.354  1.00  0.00     0.067 A 
HETATM   32  S1  UNL     1      24.785  21.425  11.487  1.00  0.00    -0.104 SA
HETATM   33  C13 UNL     1      23.284  20.995  12.272  1.00  0.00    -0.001 A 
BRANCH  30  34
HETATM   34  C8  UNL     1      24.730  17.582  11.688  1.00  0.00     0.183 A 
HETATM   35  N4  UNL     1      25.397  17.047  10.621  1.00  0.00    -0.322 N 
HETATM   36  C9  UNL     1      25.403  15.693  10.771  1.00  0.00     0.114 A 
ATOM     37  H4  UNL     1      25.814  17.568   9.850  1.00  0.00     0.169 HD
HETATM   38  N5  UNL     1      24.756  15.446  11.898  1.00  0.00    -0.246 N 
HETATM   39  O4  UNL     1      24.377  16.570  12.406  1.00  0.00    -0.217 OA
ATOM     40  H5  UNL     1      24.585  14.524  12.297  1.00  0.00     0.196 HD
BRANCH  36  41
HETATM   41  C10 UNL     1      26.021  14.668   9.898  1.00  0.00     0.191 C 
BRANCH  41  42
HETATM   42  C11 UNL     1      27.493  14.857  10.009  1.00  0.00     0.179 C 
HETATM   43  O2  UNL     1      27.994  15.411  11.012  1.00  0.00    -0.648 OA
HETATM   44  O3  UNL     1      28.331  14.419   9.007  1.00  0.00    -0.648 OA
ENDBRANCH  41  42
ENDBRANCH  36  41
ENDBRANCH  30  34
BRANCH  33  45
HETATM   45  C14 UNL     1      22.341  22.036  12.811  1.00  0.00     0.074 C 
BRANCH  45  46
HETATM   46  C15 UNL     1      22.849  22.620  14.096  1.00  0.00     0.234 C 
BRANCH  46  47
HETATM   47  N6  UNL     1      22.481  23.981  14.259  1.00  0.00    -0.079 N 
ATOM     48  H63 UNL     1      22.820  24.549  13.483  1.00  0.00     0.274 HD
ATOM     49  H62 UNL     1      21.477  24.107  14.129  1.00  0.00     0.274 HD
ATOM     50  H61 UNL     1      22.785  24.365  15.154  1.00  0.00     0.274 HD
ENDBRANCH  46  47
ENDBRANCH  45  46
ENDBRANCH  33  45
ENDBRANCH   1  29
TORSDOF 13
ENDMDL
