MODEL 1
REMARK VINA RESULT: -7.071717861      0.000      0.000
REMARK  15 active torsions:
REMARK  status: ('A' for Active; 'I' for Inactive)
REMARK    1  A    between atoms: C2_2  and  C5_5 
REMARK    2  A    between atoms: C5_5  and  N1_6 
REMARK    3  A    between atoms: C5_5  and  C6_10 
REMARK    4  A    between atoms: C6_10  and  C7_12 
REMARK       I    between atoms: C7_12  and  N2_14 
REMARK    5  A    between atoms: N2_14  and  N3_15 
REMARK    6  A    between atoms: N3_15  and  C8_17 
REMARK    7  A    between atoms: C9_18  and  N4_19 
REMARK    8  A    between atoms: C10_22  and  N5_23 
REMARK    9  A    between atoms: N5_23  and  C11_25 
REMARK   10  A    between atoms: C11_25  and  O5_26 
REMARK   11  A    between atoms: C11_25  and  C12_28 
REMARK   12  A    between atoms: C12_28  and  O6_29 
REMARK   13  A    between atoms: C12_28  and  C13_31 
REMARK   14  A    between atoms: N7_39  and  C16_40 
REMARK   15  A    between atoms: C17_41  and  O9_42 
ROOT
HETATM    1  C8  UNL     1      22.920  19.273  12.468  1.00  0.00     0.196 A 
HETATM    2  C9  UNL     1      22.449  18.917  13.714  1.00  0.00     0.203 A 
HETATM    3  C10 UNL     1      22.013  20.105  14.311  1.00  0.00     0.206 A 
HETATM    4  O8  UNL     1      22.232  21.074  13.464  1.00  0.00    -0.209 OA
HETATM    5  N7  UNL     1      22.777  20.601  12.349  1.00  0.00    -0.203 N 
ENDROOT
BRANCH   1   6
HETATM    6  N3  UNL     1      23.430  18.389  11.494  1.00  0.00    -0.210 N 
ATOM      7  H3  UNL     1      22.759  18.003  10.830  1.00  0.00     0.204 HD
BRANCH   6   8
HETATM    8  N2  UNL     1      24.741  17.992  11.349  1.00  0.00    -0.276 NA
HETATM    9  C7  UNL     1      25.995  17.613  11.212  1.00  0.00     0.383 C 
HETATM   10  O2  UNL     1      27.035  18.204  11.649  1.00  0.00    -0.246 OA
BRANCH   9  11
HETATM   11  C6  UNL     1      26.340  16.352  10.473  1.00  0.00     0.263 C 
HETATM   12  O1  UNL     1      27.228  16.453   9.620  1.00  0.00    -0.284 OA
BRANCH  11  13
HETATM   13  C5  UNL     1      25.688  15.064  10.717  1.00  0.00     0.271 C 
BRANCH  13  14
HETATM   14  C2  UNL     1      24.963  14.597   9.450  1.00  0.00    -0.016 C 
HETATM   15  C1  UNL     1      24.018  13.477   9.799  1.00  0.00     0.017 C 
HETATM   16  C3  UNL     1      24.154  15.680   8.807  1.00  0.00     0.017 C 
HETATM   17  C4  UNL     1      25.940  14.082   8.414  1.00  0.00     0.017 C 
ENDBRANCH  13  14
BRANCH  13  18
HETATM   18  N1  UNL     1      24.762  15.083  11.824  1.00  0.00    -0.067 N 
ATOM     19  H13 UNL     1      24.767  15.977  12.316  1.00  0.00     0.275 HD
ATOM     20  H12 UNL     1      23.790  15.093  11.513  1.00  0.00     0.275 HD
ATOM     21  H11 UNL     1      24.959  14.299  12.446  1.00  0.00     0.275 HD
ENDBRANCH  13  18
ENDBRANCH  11  13
ENDBRANCH   9  11
ENDBRANCH   6   8
ENDBRANCH   1   6
BRANCH   2  22
HETATM   22  N4  UNL     1      22.452  17.640  14.323  1.00  0.00    -0.107 N 
HETATM   23  O3  UNL     1      21.486  17.181  14.922  1.00  0.00    -0.531 OA
HETATM   24  O4  UNL     1      23.558  16.840  14.234  1.00  0.00    -0.531 OA
ENDBRANCH   2  22
BRANCH   5  25
HETATM   25  C16 UNL     1      23.139  21.398  11.220  1.00  0.00     0.149 C 
HETATM   26  C17 UNL     1      24.393  21.619  10.914  1.00  0.00     0.151 C 
BRANCH  26  27
HETATM   27  O9  UNL     1      24.726  22.388   9.819  1.00  0.00    -0.371 OA
ATOM     28  H9  UNL     1      24.519  23.314   9.796  1.00  0.00     0.216 HD
ENDBRANCH  26  27
ENDBRANCH   5  25
BRANCH   3  29
HETATM   29  N5  UNL     1      21.511  20.058  15.492  1.00  0.00    -0.338 N 
ATOM     30  H5  UNL     1      20.774  19.361  15.602  1.00  0.00     0.164 HD
BRANCH  29  31
HETATM   31  C11 UNL     1      21.785  20.782  16.656  1.00  0.00     0.254 C 
BRANCH  31  32
HETATM   32  O5  UNL     1      23.074  21.301  16.720  1.00  0.00    -0.374 OA
ATOM     33  H5  UNL     1      23.370  21.509  17.598  1.00  0.00     0.212 HD
ENDBRANCH  31  32
BRANCH  31  34
HETATM   34  C12 UNL     1      20.778  21.925  16.863  1.00  0.00     0.216 C 
BRANCH  34  35
HETATM   35  O6  UNL     1      21.269  23.150  16.511  1.00  0.00    -0.385 OA
ATOM     36  H6  UNL     1      20.625  23.846  16.571  1.00  0.00     0.210 HD
ENDBRANCH  34  35
BRANCH  34  37
HETATM   37  C13 UNL     1      20.296  21.827  18.287  1.00  0.00     0.052 A 
HETATM   38  C14 UNL     1      19.205  22.584  18.682  1.00  0.00     0.083 A 
HETATM   39  S1  UNL     1      19.048  22.149  20.320  1.00  0.00    -0.039 SA
HETATM   40  C15 UNL     1      20.351  21.053  20.413  1.00  0.00     0.288 A 
HETATM   41  O7  UNL     1      20.769  20.363  21.423  1.00  0.00    -0.260 OA
HETATM   42  N6  UNL     1      20.847  21.068  19.188  1.00  0.00    -0.318 N 
ATOM     43  H6  UNL     1      21.655  20.490  18.952  1.00  0.00     0.169 HD
ENDBRANCH  34  37
ENDBRANCH  31  34
ENDBRANCH  29  31
ENDBRANCH   3  29
TORSDOF 15
ENDMDL
MODEL 2
REMARK VINA RESULT: -7.021913656      5.348      8.687
REMARK  15 active torsions:
REMARK  status: ('A' for Active; 'I' for Inactive)
REMARK    1  A    between atoms: C2_2  and  C5_5 
REMARK    2  A    between atoms: C5_5  and  N1_6 
REMARK    3  A    between atoms: C5_5  and  C6_10 
REMARK    4  A    between atoms: C6_10  and  C7_12 
REMARK       I    between atoms: C7_12  and  N2_14 
REMARK    5  A    between atoms: N2_14  and  N3_15 
REMARK    6  A    between atoms: N3_15  and  C8_17 
REMARK    7  A    between atoms: C9_18  and  N4_19 
REMARK    8  A    between atoms: C10_22  and  N5_23 
REMARK    9  A    between atoms: N5_23  and  C11_25 
REMARK   10  A    between atoms: C11_25  and  O5_26 
REMARK   11  A    between atoms: C11_25  and  C12_28 
REMARK   12  A    between atoms: C12_28  and  O6_29 
REMARK   13  A    between atoms: C12_28  and  C13_31 
REMARK   14  A    between atoms: N7_39  and  C16_40 
REMARK   15  A    between atoms: C17_41  and  O9_42 
ROOT
HETATM    1  C8  UNL     1      25.024  21.152  11.123  1.00  0.00     0.196 A 
HETATM    2  C9  UNL     1      26.380  20.911  11.050  1.00  0.00     0.203 A 
HETATM    3  C10 UNL     1      26.987  22.167  10.957  1.00  0.00     0.206 A 
HETATM    4  O8  UNL     1      26.037  23.064  10.966  1.00  0.00    -0.209 OA
HETATM    5  N7  UNL     1      24.849  22.480  11.064  1.00  0.00    -0.203 N 
ENDROOT
BRANCH   1   6
HETATM    6  N3  UNL     1      24.018  20.172  11.263  1.00  0.00    -0.210 N 
ATOM      7  H3  UNL     1      23.372  20.288  12.044  1.00  0.00     0.204 HD
BRANCH   6   8
HETATM    8  N2  UNL     1      23.818  19.076  10.454  1.00  0.00    -0.276 NA
HETATM    9  C7  UNL     1      23.625  18.029   9.679  1.00  0.00     0.383 C 
HETATM   10  O2  UNL     1      22.536  17.661   9.130  1.00  0.00    -0.246 OA
BRANCH   9  11
HETATM   11  C6  UNL     1      24.759  17.103   9.342  1.00  0.00     0.263 C 
HETATM   12  O1  UNL     1      25.180  17.166   8.182  1.00  0.00    -0.284 OA
BRANCH  11  13
HETATM   13  C5  UNL     1      25.355  16.168  10.299  1.00  0.00     0.271 C 
BRANCH  13  14
HETATM   14  C2  UNL     1      25.089  14.726   9.855  1.00  0.00    -0.016 C 
HETATM   15  C1  UNL     1      26.292  14.200   9.117  1.00  0.00     0.017 C 
HETATM   16  C3  UNL     1      24.826  13.799  11.001  1.00  0.00     0.017 C 
HETATM   17  C4  UNL     1      23.896  14.648   8.924  1.00  0.00     0.017 C 
ENDBRANCH  13  14
BRANCH  13  18
HETATM   18  N1  UNL     1      24.890  16.349  11.653  1.00  0.00    -0.067 N 
ATOM     19  H13 UNL     1      25.642  16.249  12.336  1.00  0.00     0.275 HD
ATOM     20  H12 UNL     1      24.642  17.319  11.849  1.00  0.00     0.275 HD
ATOM     21  H11 UNL     1      24.117  15.709  11.836  1.00  0.00     0.275 HD
ENDBRANCH  13  18
ENDBRANCH  11  13
ENDBRANCH   9  11
ENDBRANCH   6   8
ENDBRANCH   1   6
BRANCH   2  22
HETATM   22  N4  UNL     1      27.050  19.665  11.007  1.00  0.00    -0.107 N 
HETATM   23  O3  UNL     1      27.794  19.336  10.089  1.00  0.00    -0.531 OA
HETATM   24  O4  UNL     1      26.908  18.773  12.033  1.00  0.00    -0.531 OA
ENDBRANCH   2  22
BRANCH   5  25
HETATM   25  C16 UNL     1      23.602  23.175  11.103  1.00  0.00     0.149 C 
HETATM   26  C17 UNL     1      23.040  23.506  12.239  1.00  0.00     0.151 C 
BRANCH  26  27
HETATM   27  O9  UNL     1      21.838  24.180  12.260  1.00  0.00    -0.371 OA
ATOM     28  H9  UNL     1      21.775  25.071  11.938  1.00  0.00     0.216 HD
ENDBRANCH  26  27
ENDBRANCH   5  25
BRANCH   3  29
HETATM   29  N5  UNL     1      28.267  22.235  10.884  1.00  0.00    -0.338 N 
ATOM     30  H5  UNL     1      28.736  22.203  11.790  1.00  0.00     0.164 HD
BRANCH  29  31
HETATM   31  C11 UNL     1      29.140  22.344   9.798  1.00  0.00     0.254 C 
BRANCH  31  32
HETATM   32  O5  UNL     1      30.003  21.264   9.644  1.00  0.00    -0.374 OA
ATOM     33  H5  UNL     1      29.928  20.818   8.808  1.00  0.00     0.212 HD
ENDBRANCH  31  32
BRANCH  31  34
HETATM   34  C12 UNL     1      28.380  22.566   8.480  1.00  0.00     0.216 C 
BRANCH  34  35
HETATM   35  O6  UNL     1      27.984  21.404   7.881  1.00  0.00    -0.385 OA
ATOM     36  H6  UNL     1      27.340  21.534   7.195  1.00  0.00     0.210 HD
ENDBRANCH  34  35
BRANCH  34  37
HETATM   37  C13 UNL     1      29.247  23.451   7.623  1.00  0.00     0.052 A 
HETATM   38  C14 UNL     1      28.999  24.814   7.596  1.00  0.00     0.083 A 
HETATM   39  S1  UNL     1      30.196  25.369   6.521  1.00  0.00    -0.039 SA
HETATM   40  C15 UNL     1      30.929  23.871   6.168  1.00  0.00     0.288 A 
HETATM   41  O7  UNL     1      31.930  23.612   5.391  1.00  0.00    -0.260 OA
HETATM   42  N6  UNL     1      30.228  23.014   6.889  1.00  0.00    -0.318 N 
ATOM     43  H6  UNL     1      30.453  22.018   6.869  1.00  0.00     0.169 HD
ENDBRANCH  34  37
ENDBRANCH  31  34
ENDBRANCH  29  31
ENDBRANCH   3  29
TORSDOF 15
ENDMDL
MODEL 3
REMARK VINA RESULT: -6.981467094      5.666      7.798
REMARK  15 active torsions:
REMARK  status: ('A' for Active; 'I' for Inactive)
REMARK    1  A    between atoms: C2_2  and  C5_5 
REMARK    2  A    between atoms: C5_5  and  N1_6 
REMARK    3  A    between atoms: C5_5  and  C6_10 
REMARK    4  A    between atoms: C6_10  and  C7_12 
REMARK       I    between atoms: C7_12  and  N2_14 
REMARK    5  A    between atoms: N2_14  and  N3_15 
REMARK    6  A    between atoms: N3_15  and  C8_17 
REMARK    7  A    between atoms: C9_18  and  N4_19 
REMARK    8  A    between atoms: C10_22  and  N5_23 
REMARK    9  A    between atoms: N5_23  and  C11_25 
REMARK   10  A    between atoms: C11_25  and  O5_26 
REMARK   11  A    between atoms: C11_25  and  C12_28 
REMARK   12  A    between atoms: C12_28  and  O6_29 
REMARK   13  A    between atoms: C12_28  and  C13_31 
REMARK   14  A    between atoms: N7_39  and  C16_40 
REMARK   15  A    between atoms: C17_41  and  O9_42 
ROOT
HETATM    1  C8  UNL     1      25.651  15.471  10.802  1.00  0.00     0.196 A 
HETATM    2  C9  UNL     1      25.255  16.761  11.083  1.00  0.00     0.203 A 
HETATM    3  C10 UNL     1      26.175  17.593  10.437  1.00  0.00     0.206 A 
HETATM    4  O8  UNL     1      27.045  16.826   9.836  1.00  0.00    -0.209 OA
HETATM    5  N7  UNL     1      26.752  15.546  10.040  1.00  0.00    -0.203 N 
ENDROOT
BRANCH   1   6
HETATM    6  N3  UNL     1      24.993  14.295  11.220  1.00  0.00    -0.210 N 
ATOM      7  H3  UNL     1      25.014  14.089  12.219  1.00  0.00     0.204 HD
BRANCH   6   8
HETATM    8  N2  UNL     1      24.325  13.397  10.418  1.00  0.00    -0.276 NA
HETATM    9  C7  UNL     1      23.686  12.536   9.653  1.00  0.00     0.383 C 
HETATM   10  O2  UNL     1      23.860  11.275   9.591  1.00  0.00    -0.246 OA
BRANCH   9  11
HETATM   11  C6  UNL     1      22.609  12.996   8.712  1.00  0.00     0.263 C 
HETATM   12  O1  UNL     1      21.513  13.240   9.226  1.00  0.00    -0.284 OA
BRANCH  11  13
HETATM   13  C5  UNL     1      22.806  13.156   7.269  1.00  0.00     0.271 C 
BRANCH  13  14
HETATM   14  C2  UNL     1      23.368  14.551   6.971  1.00  0.00    -0.016 C 
HETATM   15  C1  UNL     1      22.876  15.010   5.624  1.00  0.00     0.017 C 
HETATM   16  C3  UNL     1      22.948  15.579   7.976  1.00  0.00     0.017 C 
HETATM   17  C4  UNL     1      24.883  14.539   6.940  1.00  0.00     0.017 C 
ENDBRANCH  13  14
BRANCH  13  18
HETATM   18  N1  UNL     1      21.608  12.944   6.493  1.00  0.00    -0.067 N 
ATOM     19  H13 UNL     1      20.783  13.343   6.940  1.00  0.00     0.275 HD
ATOM     20  H12 UNL     1      21.598  13.503   5.640  1.00  0.00     0.275 HD
ATOM     21  H11 UNL     1      21.499  11.948   6.302  1.00  0.00     0.275 HD
ENDBRANCH  13  18
ENDBRANCH  11  13
ENDBRANCH   9  11
ENDBRANCH   6   8
ENDBRANCH   1   6
BRANCH   2  22
HETATM   22  N4  UNL     1      24.187  17.193  11.906  1.00  0.00    -0.107 N 
HETATM   23  O3  UNL     1      23.353  18.014  11.544  1.00  0.00    -0.531 OA
HETATM   24  O4  UNL     1      24.032  16.669  13.160  1.00  0.00    -0.531 OA
ENDBRANCH   2  22
BRANCH   5  25
HETATM   25  C16 UNL     1      27.502  14.448   9.518  1.00  0.00     0.149 C 
HETATM   26  C17 UNL     1      28.514  13.939  10.176  1.00  0.00     0.151 C 
BRANCH  26  27
HETATM   27  O9  UNL     1      29.226  12.877   9.660  1.00  0.00    -0.371 OA
ATOM     28  H9  UNL     1      29.811  12.998   8.922  1.00  0.00     0.216 HD
ENDBRANCH  26  27
ENDBRANCH   5  25
BRANCH   3  29
HETATM   29  N5  UNL     1      26.034  18.866  10.530  1.00  0.00    -0.338 N 
ATOM     30  H5  UNL     1      25.634  19.300   9.698  1.00  0.00     0.164 HD
BRANCH  29  31
HETATM   31  C11 UNL     1      26.325  19.770  11.555  1.00  0.00     0.254 C 
BRANCH  31  32
HETATM   32  O5  UNL     1      27.471  19.464  12.282  1.00  0.00    -0.374 OA
ATOM     33  H5  UNL     1      27.552  19.935  13.103  1.00  0.00     0.212 HD
ENDBRANCH  31  32
BRANCH  31  34
HETATM   34  C12 UNL     1      26.438  21.209  11.029  1.00  0.00     0.216 C 
BRANCH  34  35
HETATM   35  O6  UNL     1      25.577  21.481  10.005  1.00  0.00    -0.385 OA
ATOM     36  H6  UNL     1      25.959  22.022   9.324  1.00  0.00     0.210 HD
ENDBRANCH  34  35
BRANCH  34  37
HETATM   37  C13 UNL     1      27.892  21.439  10.705  1.00  0.00     0.052 A 
HETATM   38  C14 UNL     1      28.316  21.320   9.391  1.00  0.00     0.083 A 
HETATM   39  S1  UNL     1      29.979  21.658   9.526  1.00  0.00    -0.039 SA
HETATM   40  C15 UNL     1      30.044  21.924  11.209  1.00  0.00     0.288 A 
HETATM   41  O7  UNL     1      31.058  22.230  11.950  1.00  0.00    -0.260 OA
HETATM   42  N6  UNL     1      28.793  21.744  11.593  1.00  0.00    -0.318 N 
ATOM     43  H6  UNL     1      28.536  21.842  12.575  1.00  0.00     0.169 HD
ENDBRANCH  34  37
ENDBRANCH  31  34
ENDBRANCH  29  31
ENDBRANCH   3  29
TORSDOF 15
ENDMDL
MODEL 4
REMARK VINA RESULT: -6.924132941      2.858      4.268
REMARK  15 active torsions:
REMARK  status: ('A' for Active; 'I' for Inactive)
REMARK    1  A    between atoms: C2_2  and  C5_5 
REMARK    2  A    between atoms: C5_5  and  N1_6 
REMARK    3  A    between atoms: C5_5  and  C6_10 
REMARK    4  A    between atoms: C6_10  and  C7_12 
REMARK       I    between atoms: C7_12  and  N2_14 
REMARK    5  A    between atoms: N2_14  and  N3_15 
REMARK    6  A    between atoms: N3_15  and  C8_17 
REMARK    7  A    between atoms: C9_18  and  N4_19 
REMARK    8  A    between atoms: C10_22  and  N5_23 
REMARK    9  A    between atoms: N5_23  and  C11_25 
REMARK   10  A    between atoms: C11_25  and  O5_26 
REMARK   11  A    between atoms: C11_25  and  C12_28 
REMARK   12  A    between atoms: C12_28  and  O6_29 
REMARK   13  A    between atoms: C12_28  and  C13_31 
REMARK   14  A    between atoms: N7_39  and  C16_40 
REMARK   15  A    between atoms: C17_41  and  O9_42 
ROOT
HETATM    1  C8  UNL     1      23.411  20.692  12.073  1.00  0.00     0.196 A 
HETATM    2  C9  UNL     1      22.906  19.924  13.100  1.00  0.00     0.203 A 
HETATM    3  C10 UNL     1      22.417  20.829  14.048  1.00  0.00     0.206 A 
HETATM    4  O8  UNL     1      22.639  22.033  13.594  1.00  0.00    -0.209 OA
HETATM    5  N7  UNL     1      23.237  21.978  12.409  1.00  0.00    -0.203 N 
ENDROOT
BRANCH   1   6
HETATM    6  N3  UNL     1      23.980  20.201  10.878  1.00  0.00    -0.210 N 
ATOM      7  H3  UNL     1      23.339  19.776  10.207  1.00  0.00     0.204 HD
BRANCH   6   8
HETATM    8  N2  UNL     1      25.310  20.236  10.524  1.00  0.00    -0.276 NA
HETATM    9  C7  UNL     1      26.582  20.267  10.186  1.00  0.00     0.383 C 
HETATM   10  O2  UNL     1      27.464  19.373  10.401  1.00  0.00    -0.246 OA
BRANCH   9  11
HETATM   11  C6  UNL     1      27.155  21.450   9.458  1.00  0.00     0.263 C 
HETATM   12  O1  UNL     1      27.087  21.408   8.225  1.00  0.00    -0.284 OA
BRANCH  11  13
HETATM   13  C5  UNL     1      27.765  22.599  10.130  1.00  0.00     0.271 C 
BRANCH  13  14
HETATM   14  C2  UNL     1      29.290  22.442  10.152  1.00  0.00    -0.016 C 
HETATM   15  C1  UNL     1      29.715  21.884  11.485  1.00  0.00     0.017 C 
HETATM   16  C3  UNL     1      29.798  21.512   9.094  1.00  0.00     0.017 C 
HETATM   17  C4  UNL     1      29.984  23.775   9.958  1.00  0.00     0.017 C 
ENDBRANCH  13  14
BRANCH  13  18
HETATM   18  N1  UNL     1      27.283  22.809  11.474  1.00  0.00    -0.067 N 
ATOM     19  H13 UNL     1      27.987  23.240  12.073  1.00  0.00     0.275 HD
ATOM     20  H12 UNL     1      26.580  23.547  11.520  1.00  0.00     0.275 HD
ATOM     21  H11 UNL     1      26.941  21.926  11.855  1.00  0.00     0.275 HD
ENDBRANCH  13  18
ENDBRANCH  11  13
ENDBRANCH   9  11
ENDBRANCH   6   8
ENDBRANCH   1   6
BRANCH   2  22
HETATM   22  N4  UNL     1      22.922  18.515  13.236  1.00  0.00    -0.107 N 
HETATM   23  O3  UNL     1      23.936  17.841  13.097  1.00  0.00    -0.531 OA
HETATM   24  O4  UNL     1      21.776  17.845  13.565  1.00  0.00    -0.531 OA
ENDBRANCH   2  22
BRANCH   5  25
HETATM   25  C16 UNL     1      23.616  23.118  11.636  1.00  0.00     0.149 C 
HETATM   26  C17 UNL     1      22.897  24.213  11.636  1.00  0.00     0.151 C 
BRANCH  26  27
HETATM   27  O9  UNL     1      23.278  25.305  10.887  1.00  0.00    -0.371 OA
ATOM     28  H9  UNL     1      24.040  25.818  11.130  1.00  0.00     0.216 HD
ENDBRANCH  26  27
ENDBRANCH   5  25
BRANCH   3  29
HETATM   29  N5  UNL     1      21.875  20.374  15.120  1.00  0.00    -0.338 N 
ATOM     30  H5  UNL     1      21.310  19.537  14.975  1.00  0.00     0.164 HD
BRANCH  29  31
HETATM   31  C11 UNL     1      21.914  20.809  16.447  1.00  0.00     0.254 C 
BRANCH  31  32
HETATM   32  O5  UNL     1      23.158  21.272  16.864  1.00  0.00    -0.374 OA
ATOM     33  H5  UNL     1      23.159  22.169  17.176  1.00  0.00     0.212 HD
ENDBRANCH  31  32
BRANCH  31  34
HETATM   34  C12 UNL     1      20.863  21.897  16.719  1.00  0.00     0.216 C 
BRANCH  34  35
HETATM   35  O6  UNL     1      21.302  23.159  16.434  1.00  0.00    -0.385 OA
ATOM     36  H6  UNL     1      21.113  23.433  15.544  1.00  0.00     0.210 HD
ENDBRANCH  34  35
BRANCH  34  37
HETATM   37  C13 UNL     1      20.390  21.701  18.136  1.00  0.00     0.052 A 
HETATM   38  C14 UNL     1      19.456  22.579  18.662  1.00  0.00     0.083 A 
HETATM   39  S1  UNL     1      19.247  21.970  20.237  1.00  0.00    -0.039 SA
HETATM   40  C15 UNL     1      20.336  20.662  20.145  1.00  0.00     0.288 A 
HETATM   41  O7  UNL     1      20.640  19.785  21.045  1.00  0.00    -0.260 OA
HETATM   42  N6  UNL     1      20.811  20.748  18.915  1.00  0.00    -0.318 N 
ATOM     43  H6  UNL     1      21.500  20.075  18.580  1.00  0.00     0.169 HD
ENDBRANCH  34  37
ENDBRANCH  31  34
ENDBRANCH  29  31
ENDBRANCH   3  29
TORSDOF 15
ENDMDL
MODEL 5
REMARK VINA RESULT: -6.908633264      3.803      9.659
REMARK  15 active torsions:
REMARK  status: ('A' for Active; 'I' for Inactive)
REMARK    1  A    between atoms: C2_2  and  C5_5 
REMARK    2  A    between atoms: C5_5  and  N1_6 
REMARK    3  A    between atoms: C5_5  and  C6_10 
REMARK    4  A    between atoms: C6_10  and  C7_12 
REMARK       I    between atoms: C7_12  and  N2_14 
REMARK    5  A    between atoms: N2_14  and  N3_15 
REMARK    6  A    between atoms: N3_15  and  C8_17 
REMARK    7  A    between atoms: C9_18  and  N4_19 
REMARK    8  A    between atoms: C10_22  and  N5_23 
REMARK    9  A    between atoms: N5_23  and  C11_25 
REMARK   10  A    between atoms: C11_25  and  O5_26 
REMARK   11  A    between atoms: C11_25  and  C12_28 
REMARK   12  A    between atoms: C12_28  and  O6_29 
REMARK   13  A    between atoms: C12_28  and  C13_31 
REMARK   14  A    between atoms: N7_39  and  C16_40 
REMARK   15  A    between atoms: C17_41  and  O9_42 
ROOT
HETATM    1  C8  UNL     1      23.249  16.837  14.391  1.00  0.00     0.196 A 
HETATM    2  C9  UNL     1      23.623  17.537  13.264  1.00  0.00     0.203 A 
HETATM    3  C10 UNL     1      24.203  16.596  12.406  1.00  0.00     0.206 A 
HETATM    4  O8  UNL     1      24.171  15.439  13.012  1.00  0.00    -0.209 OA
HETATM    5  N7  UNL     1      23.603  15.558  14.206  1.00  0.00    -0.203 N 
ENDROOT
BRANCH   1   6
HETATM    6  N3  UNL     1      22.589  17.377  15.516  1.00  0.00    -0.210 N 
ATOM      7  H3  UNL     1      23.135  17.996  16.114  1.00  0.00     0.204 HD
BRANCH   6   8
HETATM    8  N2  UNL     1      21.282  17.153  15.888  1.00  0.00    -0.276 NA
HETATM    9  C7  UNL     1      20.033  16.938  16.245  1.00  0.00     0.383 C 
HETATM   10  O2  UNL     1      19.345  15.881  16.059  1.00  0.00    -0.246 OA
BRANCH   9  11
HETATM   11  C6  UNL     1      19.244  17.997  16.960  1.00  0.00     0.263 C 
HETATM   12  O1  UNL     1      18.581  18.753  16.242  1.00  0.00    -0.284 OA
BRANCH  11  13
HETATM   13  C5  UNL     1      19.234  18.158  18.416  1.00  0.00     0.271 C 
BRANCH  13  14
HETATM   14  C2  UNL     1      19.769  19.545  18.791  1.00  0.00    -0.016 C 
HETATM   15  C1  UNL     1      20.408  19.482  20.154  1.00  0.00     0.017 C 
HETATM   16  C3  UNL     1      20.803  20.053  17.834  1.00  0.00     0.017 C 
HETATM   17  C4  UNL     1      18.654  20.570  18.841  1.00  0.00     0.017 C 
ENDBRANCH  13  14
BRANCH  13  18
HETATM   18  N1  UNL     1      19.988  17.146  19.116  1.00  0.00    -0.067 N 
ATOM     19  H13 UNL     1      20.960  17.420  19.261  1.00  0.00     0.275 HD
ATOM     20  H12 UNL     1      19.710  17.068  20.095  1.00  0.00     0.275 HD
ATOM     21  H11 UNL     1      19.907  16.258  18.621  1.00  0.00     0.275 HD
ENDBRANCH  13  18
ENDBRANCH  11  13
ENDBRANCH   9  11
ENDBRANCH   6   8
ENDBRANCH   1   6
BRANCH   2  22
HETATM   22  N4  UNL     1      23.521  18.926  13.016  1.00  0.00    -0.107 N 
HETATM   23  O3  UNL     1      22.482  19.559  13.170  1.00  0.00    -0.531 OA
HETATM   24  O4  UNL     1      24.619  19.634  12.613  1.00  0.00    -0.531 OA
ENDBRANCH   2  22
BRANCH   5  25
HETATM   25  C16 UNL     1      23.409  14.480  15.124  1.00  0.00     0.149 C 
HETATM   26  C17 UNL     1      23.961  13.309  14.928  1.00  0.00     0.151 C 
BRANCH  26  27
HETATM   27  O9  UNL     1      23.766  12.280  15.825  1.00  0.00    -0.371 OA
ATOM     28  H9  UNL     1      24.116  11.414  15.653  1.00  0.00     0.216 HD
ENDBRANCH  26  27
ENDBRANCH   5  25
BRANCH   3  29
HETATM   29  N5  UNL     1      24.638  16.984  11.262  1.00  0.00    -0.338 N 
ATOM     30  H5  UNL     1      23.906  17.306  10.628  1.00  0.00     0.164 HD
BRANCH  29  31
HETATM   31  C11 UNL     1      25.925  17.047  10.720  1.00  0.00     0.254 C 
BRANCH  31  32
HETATM   32  O5  UNL     1      26.851  17.713  11.517  1.00  0.00    -0.374 OA
ATOM     33  H5  UNL     1      27.162  17.210  12.261  1.00  0.00     0.212 HD
ENDBRANCH  31  32
BRANCH  31  34
HETATM   34  C12 UNL     1      26.470  15.649  10.387  1.00  0.00     0.216 C 
BRANCH  34  35
HETATM   35  O6  UNL     1      27.683  15.675   9.762  1.00  0.00    -0.385 OA
ATOM     36  H6  UNL     1      28.358  15.195  10.228  1.00  0.00     0.210 HD
ENDBRANCH  34  35
BRANCH  34  37
HETATM   37  C13 UNL     1      25.386  14.931   9.626  1.00  0.00     0.052 A 
HETATM   38  C14 UNL     1      25.104  15.321   8.326  1.00  0.00     0.083 A 
HETATM   39  S1  UNL     1      23.849  14.253   7.902  1.00  0.00    -0.039 SA
HETATM   40  C15 UNL     1      23.750  13.388   9.368  1.00  0.00     0.288 A 
HETATM   41  O7  UNL     1      22.966  12.413   9.692  1.00  0.00    -0.260 OA
HETATM   42  N6  UNL     1      24.681  13.953  10.116  1.00  0.00    -0.318 N 
ATOM     43  H6  UNL     1      24.846  13.626  11.068  1.00  0.00     0.169 HD
ENDBRANCH  34  37
ENDBRANCH  31  34
ENDBRANCH  29  31
ENDBRANCH   3  29
TORSDOF 15
ENDMDL
