MODEL 1
REMARK VINA RESULT: -6.435195560      0.000      0.000
REMARK  14 active torsions:
REMARK  status: ('A' for Active; 'I' for Inactive)
REMARK    1  A    between atoms: N1_2  and  C2_4 
REMARK    2  A    between atoms: C3_7  and  N3_8 
REMARK    3  A    between atoms: N3_8  and  C5_10 
REMARK    4  A    between atoms: C5_10  and  C6_11 
REMARK    5  A    between atoms: C6_11  and  O1_12 
REMARK    6  A    between atoms: C6_11  and  O2_14 
REMARK    7  A    between atoms: C7_16  and  N4_17 
REMARK    8  A    between atoms: N4_17  and  C8_19 
REMARK    9  A    between atoms: C10_28  and  O3_29 
REMARK   10  A    between atoms: O3_29  and  C11_30 
REMARK   11  A    between atoms: C11_30  and  C13_32 
REMARK   12  A    between atoms: C13_32  and  O4_34 
REMARK   13  A    between atoms: C16_37  and  N8_38 
REMARK   14  A    between atoms: C18_44  and  O5_45 
ROOT
HETATM    1  C8  UNL     1      24.932  17.918  11.030  1.00  0.00     0.158 A 
HETATM    2  N5  UNL     1      26.209  18.083  11.436  1.00  0.00    -0.306 N 
ATOM      3  H5  UNL     1      26.811  17.288  11.653  1.00  0.00     0.176 HD
HETATM    4  S1  UNL     1      26.752  19.671  11.565  1.00  0.00     0.024 SA
HETATM    5  C9  UNL     1      25.551  20.805  11.145  1.00  0.00     0.169 A 
HETATM    6  N6  UNL     1      25.750  22.094  11.173  1.00  0.00    -0.378 N 
ATOM      7  H61 UNL     1      25.031  22.773  10.922  1.00  0.00     0.158 HD
ATOM      8  H62 UNL     1      26.642  22.504  11.449  1.00  0.00     0.158 HD
HETATM    9  N7  UNL     1      24.368  20.261  10.780  1.00  0.00    -0.253 N 
HETATM   10  C10 UNL     1      23.400  21.194  10.441  1.00  0.00     0.156 A 
HETATM   11  C15 UNL     1      22.141  20.806  10.046  1.00  0.00     0.104 A 
HETATM   12  C16 UNL     1      21.873  19.443   9.999  1.00  0.00     0.104 A 
HETATM   13  N9  UNL     1      22.837  18.594  10.335  1.00  0.00    -0.325 N 
ATOM     14  H9  UNL     1      22.631  17.596  10.298  1.00  0.00     0.169 HD
HETATM   15  C17 UNL     1      24.087  18.974  10.727  1.00  0.00     0.163 A 
ENDROOT
BRANCH   1  16
HETATM   16  N4  UNL     1      24.500  16.706  10.940  1.00  0.00    -0.332 N 
ATOM     17  H4  UNL     1      24.120  16.441  10.030  1.00  0.00     0.168 HD
BRANCH  16  18
HETATM   18  C7  UNL     1      24.479  15.712  11.910  1.00  0.00     0.131 A 
HETATM   19  C3  UNL     1      24.859  14.406  11.633  1.00  0.00     0.150 A 
HETATM   20  N2  UNL     1      24.812  13.464  12.628  1.00  0.00    -0.174 N 
HETATM   21  C2  UNL     1      24.402  13.795  13.863  1.00  0.00     0.681 A 
ATOM     22  H2  UNL     1      25.092  12.504  12.429  1.00  0.00     0.186 HD
HETATM   23  N10 UNL     1      24.025  15.049  14.171  1.00  0.00    -0.168 N 
HETATM   24  C18 UNL     1      24.066  15.992  13.194  1.00  0.00     0.188 A 
ATOM     25  H10 UNL     1      23.716  15.286  15.113  1.00  0.00     0.186 HD
BRANCH  19  26
HETATM   26  N3  UNL     1      25.293  14.112  10.323  1.00  0.00    -0.365 N 
HETATM   27  C4  UNL     1      24.274  13.878   9.301  1.00  0.00     0.151 C 
BRANCH  26  28
HETATM   28  C5  UNL     1      26.648  13.996   9.893  1.00  0.00     0.184 C 
BRANCH  28  29
HETATM   29  C6  UNL     1      27.598  15.059  10.300  1.00  0.00     0.271 C 
BRANCH  29  30
HETATM   30  O1  UNL     1      27.430  16.281   9.671  1.00  0.00    -0.370 OA
ATOM     31  H1  UNL     1      27.401  16.252   8.722  1.00  0.00     0.212 HD
ENDBRANCH  29  30
BRANCH  29  32
HETATM   32  O2  UNL     1      28.911  14.572  10.090  1.00  0.00    -0.370 OA
ATOM     33  H2  UNL     1      29.478  15.320   9.939  1.00  0.00     0.212 HD
ENDBRANCH  29  32
ENDBRANCH  28  29
ENDBRANCH  26  28
ENDBRANCH  19  26
BRANCH  21  34
HETATM   34  N1  UNL     1      24.353  12.917  14.808  1.00  0.00    -0.230 N 
HETATM   35  C1  UNL     1      23.569  13.112  16.014  1.00  0.00     0.165 C 
ATOM     36  H1  UNL     1      24.886  12.054  14.703  1.00  0.00     0.177 HD
ENDBRANCH  21  34
BRANCH  24  37
HETATM   37  O5  UNL     1      23.677  17.287  13.504  1.00  0.00    -0.339 OA
HETATM   38  C19 UNL     1      22.693  17.428  14.517  1.00  0.00     0.211 C 
ENDBRANCH  24  37
ENDBRANCH  16  18
ENDBRANCH   1  16
BRANCH  10  39
HETATM   39  O3  UNL     1      23.711  22.534  10.502  1.00  0.00    -0.328 OA
BRANCH  39  40
HETATM   40  C11 UNL     1      22.908  23.618  10.203  1.00  0.00     0.154 C 
HETATM   41  C12 UNL     1      23.232  24.167   8.805  1.00  0.00     0.042 C 
BRANCH  40  42
HETATM   42  C13 UNL     1      23.175  24.780  11.188  1.00  0.00     0.143 C 
HETATM   43  C14 UNL     1      22.473  24.485  12.471  1.00  0.00     0.042 C 
BRANCH  42  44
HETATM   44  O4  UNL     1      24.542  24.901  11.303  1.00  0.00    -0.393 OA
ATOM     45  H4  UNL     1      24.709  25.471  12.044  1.00  0.00     0.210 HD
ENDBRANCH  42  44
ENDBRANCH  40  42
ENDBRANCH  39  40
ENDBRANCH  10  39
BRANCH  12  46
HETATM   46  N8  UNL     1      20.687  19.056   9.628  1.00  0.00    -0.385 N 
ATOM     47  H82 UNL     1      19.870  19.116  10.234  1.00  0.00     0.157 HD
ATOM     48  H81 UNL     1      20.570  18.676   8.688  1.00  0.00     0.157 HD
ENDBRANCH  12  46
TORSDOF 14
ENDMDL
MODEL 2
REMARK VINA RESULT: -6.362716542      3.669      5.996
REMARK  14 active torsions:
REMARK  status: ('A' for Active; 'I' for Inactive)
REMARK    1  A    between atoms: N1_2  and  C2_4 
REMARK    2  A    between atoms: C3_7  and  N3_8 
REMARK    3  A    between atoms: N3_8  and  C5_10 
REMARK    4  A    between atoms: C5_10  and  C6_11 
REMARK    5  A    between atoms: C6_11  and  O1_12 
REMARK    6  A    between atoms: C6_11  and  O2_14 
REMARK    7  A    between atoms: C7_16  and  N4_17 
REMARK    8  A    between atoms: N4_17  and  C8_19 
REMARK    9  A    between atoms: C10_28  and  O3_29 
REMARK   10  A    between atoms: O3_29  and  C11_30 
REMARK   11  A    between atoms: C11_30  and  C13_32 
REMARK   12  A    between atoms: C13_32  and  O4_34 
REMARK   13  A    between atoms: C16_37  and  N8_38 
REMARK   14  A    between atoms: C18_44  and  O5_45 
ROOT
HETATM    1  C8  UNL     1      22.859  19.057  14.089  1.00  0.00     0.158 A 
HETATM    2  N5  UNL     1      23.161  18.093  13.194  1.00  0.00    -0.306 N 
ATOM      3  H5  UNL     1      23.131  17.103  13.440  1.00  0.00     0.176 HD
HETATM    4  S1  UNL     1      23.588  18.613  11.651  1.00  0.00     0.024 SA
HETATM    5  C9  UNL     1      23.558  20.311  11.506  1.00  0.00     0.169 A 
HETATM    6  N6  UNL     1      23.855  20.935  10.399  1.00  0.00    -0.378 N 
ATOM      7  H61 UNL     1      23.836  21.951  10.313  1.00  0.00     0.158 HD
ATOM      8  H62 UNL     1      24.124  20.441   9.549  1.00  0.00     0.158 HD
HETATM    9  N7  UNL     1      23.201  20.965  12.635  1.00  0.00    -0.253 N 
HETATM   10  C10 UNL     1      23.181  22.345  12.504  1.00  0.00     0.156 A 
HETATM   11  C15 UNL     1      22.838  23.159  13.558  1.00  0.00     0.104 A 
HETATM   12  C16 UNL     1      22.513  22.547  14.763  1.00  0.00     0.104 A 
HETATM   13  N9  UNL     1      22.550  21.221  14.833  1.00  0.00    -0.325 N 
ATOM     14  H9  UNL     1      22.310  20.781  15.721  1.00  0.00     0.169 HD
HETATM   15  C17 UNL     1      22.889  20.410  13.789  1.00  0.00     0.163 A 
ENDROOT
BRANCH   1  16
HETATM   16  N4  UNL     1      22.543  18.672  15.279  1.00  0.00    -0.332 N 
ATOM     17  H4  UNL     1      22.987  19.186  16.040  1.00  0.00     0.168 HD
BRANCH  16  18
HETATM   18  C7  UNL     1      21.681  17.654  15.667  1.00  0.00     0.131 A 
HETATM   19  C3  UNL     1      20.349  17.896  15.974  1.00  0.00     0.150 A 
HETATM   20  N2  UNL     1      19.546  16.853  16.358  1.00  0.00    -0.174 N 
HETATM   21  C2  UNL     1      20.037  15.605  16.438  1.00  0.00     0.681 A 
ATOM     22  H2  UNL     1      18.566  17.026  16.584  1.00  0.00     0.186 HD
HETATM   23  N10 UNL     1      21.321  15.331  16.149  1.00  0.00    -0.168 N 
HETATM   24  C18 UNL     1      22.129  16.355  15.768  1.00  0.00     0.188 A 
ATOM     25  H10 UNL     1      21.680  14.379  16.214  1.00  0.00     0.186 HD
BRANCH  19  26
HETATM   26  N3  UNL     1      19.879  19.221  15.863  1.00  0.00    -0.365 N 
HETATM   27  C4  UNL     1      19.385  19.665  14.559  1.00  0.00     0.151 C 
BRANCH  26  28
HETATM   28  C5  UNL     1      19.859  20.197  16.903  1.00  0.00     0.184 C 
BRANCH  28  29
HETATM   29  C6  UNL     1      20.855  20.068  17.993  1.00  0.00     0.271 C 
BRANCH  29  30
HETATM   30  O1  UNL     1      20.530  20.709  19.176  1.00  0.00    -0.370 OA
ATOM     31  H1  UNL     1      21.179  20.647  19.868  1.00  0.00     0.212 HD
ENDBRANCH  29  30
BRANCH  29  32
HETATM   32  O2  UNL     1      22.098  20.535  17.504  1.00  0.00    -0.370 OA
ATOM     33  H2  UNL     1      22.488  21.085  18.174  1.00  0.00     0.212 HD
ENDBRANCH  29  32
ENDBRANCH  28  29
ENDBRANCH  26  28
ENDBRANCH  19  26
BRANCH  21  34
HETATM   34  N1  UNL     1      19.290  14.616  16.798  1.00  0.00    -0.230 N 
HETATM   35  C1  UNL     1      18.072  14.796  17.566  1.00  0.00     0.165 C 
ATOM     36  H1  UNL     1      19.567  13.671  16.532  1.00  0.00     0.177 HD
ENDBRANCH  21  34
BRANCH  24  37
HETATM   37  O5  UNL     1      23.455  16.080  15.470  1.00  0.00    -0.339 OA
HETATM   38  C19 UNL     1      23.716  14.844  14.822  1.00  0.00     0.211 C 
ENDBRANCH  24  37
ENDBRANCH  16  18
ENDBRANCH   1  16
BRANCH  10  39
HETATM   39  O3  UNL     1      23.510  22.907  11.290  1.00  0.00    -0.328 OA
BRANCH  39  40
HETATM   40  C11 UNL     1      23.890  24.208  11.019  1.00  0.00     0.154 C 
HETATM   41  C12 UNL     1      22.913  24.867  10.033  1.00  0.00     0.042 C 
BRANCH  40  42
HETATM   42  C13 UNL     1      25.274  24.237  10.329  1.00  0.00     0.143 C 
HETATM   43  C14 UNL     1      25.805  25.628  10.388  1.00  0.00     0.042 C 
BRANCH  42  44
HETATM   44  O4  UNL     1      26.058  23.301  10.966  1.00  0.00    -0.393 OA
ATOM     45  H4  UNL     1      26.621  23.775  11.567  1.00  0.00     0.210 HD
ENDBRANCH  42  44
ENDBRANCH  40  42
ENDBRANCH  39  40
ENDBRANCH  10  39
BRANCH  12  46
HETATM   46  N8  UNL     1      22.186  23.299  15.774  1.00  0.00    -0.385 N 
ATOM     47  H82 UNL     1      21.249  23.312  16.174  1.00  0.00     0.157 HD
ATOM     48  H81 UNL     1      22.901  23.901  16.184  1.00  0.00     0.157 HD
ENDBRANCH  12  46
TORSDOF 14
ENDMDL
MODEL 3
REMARK VINA RESULT: -6.342780741      4.474      8.813
REMARK  14 active torsions:
REMARK  status: ('A' for Active; 'I' for Inactive)
REMARK    1  A    between atoms: N1_2  and  C2_4 
REMARK    2  A    between atoms: C3_7  and  N3_8 
REMARK    3  A    between atoms: N3_8  and  C5_10 
REMARK    4  A    between atoms: C5_10  and  C6_11 
REMARK    5  A    between atoms: C6_11  and  O1_12 
REMARK    6  A    between atoms: C6_11  and  O2_14 
REMARK    7  A    between atoms: C7_16  and  N4_17 
REMARK    8  A    between atoms: N4_17  and  C8_19 
REMARK    9  A    between atoms: C10_28  and  O3_29 
REMARK   10  A    between atoms: O3_29  and  C11_30 
REMARK   11  A    between atoms: C11_30  and  C13_32 
REMARK   12  A    between atoms: C13_32  and  O4_34 
REMARK   13  A    between atoms: C16_37  and  N8_38 
REMARK   14  A    between atoms: C18_44  and  O5_45 
ROOT
HETATM    1  C8  UNL     1      22.024  18.451  15.192  1.00  0.00     0.158 A 
HETATM    2  N5  UNL     1      22.191  19.450  14.301  1.00  0.00    -0.306 N 
ATOM      3  H5  UNL     1      21.770  20.369  14.439  1.00  0.00     0.176 HD
HETATM    4  S1  UNL     1      23.130  19.096  12.949  1.00  0.00     0.024 SA
HETATM    5  C9  UNL     1      23.711  17.494  12.963  1.00  0.00     0.169 A 
HETATM    6  N6  UNL     1      24.459  17.001  12.014  1.00  0.00    -0.378 N 
ATOM      7  H61 UNL     1      24.807  16.042  12.023  1.00  0.00     0.158 HD
ATOM      8  H62 UNL     1      24.744  17.548  11.203  1.00  0.00     0.158 HD
HETATM    9  N7  UNL     1      23.333  16.768  14.040  1.00  0.00    -0.253 N 
HETATM   10  C10 UNL     1      23.811  15.467  14.039  1.00  0.00     0.156 A 
HETATM   11  C15 UNL     1      23.519  14.597  15.063  1.00  0.00     0.104 A 
HETATM   12  C16 UNL     1      22.724  15.069  16.101  1.00  0.00     0.104 A 
HETATM   13  N9  UNL     1      22.292  16.324  16.050  1.00  0.00    -0.325 N 
ATOM     14  H9  UNL     1      21.709  16.661  16.816  1.00  0.00     0.169 HD
HETATM   15  C17 UNL     1      22.580  17.191  15.037  1.00  0.00     0.163 A 
ENDROOT
BRANCH   1  16
HETATM   16  N4  UNL     1      21.295  18.705  16.226  1.00  0.00    -0.332 N 
ATOM     17  H4  UNL     1      21.411  18.067  17.014  1.00  0.00     0.168 HD
BRANCH  16  18
HETATM   18  C7  UNL     1      20.374  19.728  16.414  1.00  0.00     0.131 A 
HETATM   19  C3  UNL     1      19.007  19.490  16.449  1.00  0.00     0.150 A 
HETATM   20  N2  UNL     1      18.144  20.539  16.631  1.00  0.00    -0.174 N 
HETATM   21  C2  UNL     1      18.610  21.790  16.774  1.00  0.00     0.681 A 
ATOM     22  H2  UNL     1      17.138  20.368  16.658  1.00  0.00     0.186 HD
HETATM   23  N10 UNL     1      19.926  22.062  16.745  1.00  0.00    -0.168 N 
HETATM   24  C18 UNL     1      20.793  21.032  16.566  1.00  0.00     0.188 A 
ATOM     25  H10 UNL     1      20.266  23.017  16.856  1.00  0.00     0.186 HD
BRANCH  19  26
HETATM   26  N3  UNL     1      18.569  18.156  16.305  1.00  0.00    -0.365 N 
HETATM   27  C4  UNL     1      18.320  17.659  14.953  1.00  0.00     0.151 C 
BRANCH  26  28
HETATM   28  C5  UNL     1      18.318  17.235  17.365  1.00  0.00     0.184 C 
BRANCH  28  29
HETATM   29  C6  UNL     1      19.200  16.048  17.475  1.00  0.00     0.271 C 
BRANCH  29  30
HETATM   30  O1  UNL     1      18.608  14.914  18.006  1.00  0.00    -0.370 OA
ATOM     31  H1  UNL     1      18.445  14.938  18.942  1.00  0.00     0.212 HD
ENDBRANCH  29  30
BRANCH  29  32
HETATM   32  O2  UNL     1      20.333  16.417  18.238  1.00  0.00    -0.370 OA
ATOM     33  H2  UNL     1      20.432  15.783  18.939  1.00  0.00     0.212 HD
ENDBRANCH  29  32
ENDBRANCH  28  29
ENDBRANCH  26  28
ENDBRANCH  19  26
BRANCH  21  34
HETATM   34  N1  UNL     1      17.807  22.786  16.946  1.00  0.00    -0.230 N 
HETATM   35  C1  UNL     1      17.701  23.495  18.208  1.00  0.00     0.165 C 
ATOM     36  H1  UNL     1      17.224  23.087  16.164  1.00  0.00     0.177 HD
ENDBRANCH  21  34
BRANCH  24  37
HETATM   37  O5  UNL     1      22.152  21.305  16.533  1.00  0.00    -0.339 OA
HETATM   38  C19 UNL     1      22.528  22.607  16.109  1.00  0.00     0.211 C 
ENDBRANCH  24  37
ENDBRANCH  16  18
ENDBRANCH   1  16
BRANCH  10  39
HETATM   39  O3  UNL     1      24.596  15.043  12.990  1.00  0.00    -0.328 OA
BRANCH  39  40
HETATM   40  C11 UNL     1      24.762  13.760  12.503  1.00  0.00     0.154 C 
HETATM   41  C12 UNL     1      25.711  12.955  13.405  1.00  0.00     0.042 C 
BRANCH  40  42
HETATM   42  C13 UNL     1      25.428  13.792  11.108  1.00  0.00     0.143 C 
HETATM   43  C14 UNL     1      24.356  13.844  10.072  1.00  0.00     0.042 C 
BRANCH  42  44
HETATM   44  O4  UNL     1      26.283  14.870  11.096  1.00  0.00    -0.393 OA
ATOM     45  H4  UNL     1      26.746  14.866  11.926  1.00  0.00     0.210 HD
ENDBRANCH  42  44
ENDBRANCH  40  42
ENDBRANCH  39  40
ENDBRANCH  10  39
BRANCH  12  46
HETATM   46  N8  UNL     1      22.435  14.261  17.080  1.00  0.00    -0.385 N 
ATOM     47  H82 UNL     1      23.128  13.941  17.756  1.00  0.00     0.157 HD
ATOM     48  H81 UNL     1      21.473  13.935  17.175  1.00  0.00     0.157 HD
ENDBRANCH  12  46
TORSDOF 14
ENDMDL
MODEL 4
REMARK VINA RESULT: -6.256498483      4.443      7.853
REMARK  14 active torsions:
REMARK  status: ('A' for Active; 'I' for Inactive)
REMARK    1  A    between atoms: N1_2  and  C2_4 
REMARK    2  A    between atoms: C3_7  and  N3_8 
REMARK    3  A    between atoms: N3_8  and  C5_10 
REMARK    4  A    between atoms: C5_10  and  C6_11 
REMARK    5  A    between atoms: C6_11  and  O1_12 
REMARK    6  A    between atoms: C6_11  and  O2_14 
REMARK    7  A    between atoms: C7_16  and  N4_17 
REMARK    8  A    between atoms: N4_17  and  C8_19 
REMARK    9  A    between atoms: C10_28  and  O3_29 
REMARK   10  A    between atoms: O3_29  and  C11_30 
REMARK   11  A    between atoms: C11_30  and  C13_32 
REMARK   12  A    between atoms: C13_32  and  O4_34 
REMARK   13  A    between atoms: C16_37  and  N8_38 
REMARK   14  A    between atoms: C18_44  and  O5_45 
ROOT
HETATM    1  C8  UNL     1      25.502  23.550  10.762  1.00  0.00     0.158 A 
HETATM    2  N5  UNL     1      24.592  24.344  10.159  1.00  0.00    -0.306 N 
ATOM      3  H5  UNL     1      23.620  24.377  10.466  1.00  0.00     0.176 HD
HETATM    4  S1  UNL     1      25.150  25.275   8.871  1.00  0.00     0.024 SA
HETATM    5  C9  UNL     1      26.809  25.033   8.565  1.00  0.00     0.169 A 
HETATM    6  N6  UNL     1      27.453  25.650   7.613  1.00  0.00    -0.378 N 
ATOM      7  H61 UNL     1      28.446  25.505   7.430  1.00  0.00     0.158 HD
ATOM      8  H62 UNL     1      27.000  26.319   6.991  1.00  0.00     0.158 HD
HETATM    9  N7  UNL     1      27.409  24.145   9.390  1.00  0.00    -0.253 N 
HETATM   10  C10 UNL     1      28.758  23.957   9.130  1.00  0.00     0.156 A 
HETATM   11  C15 UNL     1      29.516  23.087   9.879  1.00  0.00     0.104 A 
HETATM   12  C16 UNL     1      28.880  22.401  10.907  1.00  0.00     0.104 A 
HETATM   13  N9  UNL     1      27.586  22.619  11.111  1.00  0.00    -0.325 N 
ATOM     14  H9  UNL     1      27.128  22.111  11.868  1.00  0.00     0.169 HD
HETATM   15  C17 UNL     1      26.830  23.481  10.371  1.00  0.00     0.163 A 
ENDROOT
BRANCH   1  16
HETATM   16  N4  UNL     1      25.085  22.822  11.741  1.00  0.00    -0.332 N 
ATOM     17  H4  UNL     1      25.586  22.940  12.622  1.00  0.00     0.168 HD
BRANCH  16  18
HETATM   18  C7  UNL     1      24.047  21.899  11.762  1.00  0.00     0.131 A 
HETATM   19  C3  UNL     1      22.911  22.086  12.538  1.00  0.00     0.150 A 
HETATM   20  N2  UNL     1      21.921  21.138  12.524  1.00  0.00    -0.174 N 
HETATM   21  C2  UNL     1      22.042  20.034  11.769  1.00  0.00     0.681 A 
ATOM     22  H2  UNL     1      21.084  21.273  13.093  1.00  0.00     0.186 HD
HETATM   23  N10 UNL     1      23.126  19.816  11.004  1.00  0.00    -0.168 N 
HETATM   24  C18 UNL     1      24.116  20.747  11.008  1.00  0.00     0.188 A 
ATOM     25  H10 UNL     1      23.204  18.974  10.436  1.00  0.00     0.186 HD
BRANCH  19  26
HETATM   26  N3  UNL     1      22.827  23.268  13.304  1.00  0.00    -0.365 N 
HETATM   27  C4  UNL     1      22.363  24.484  12.637  1.00  0.00     0.151 C 
BRANCH  26  28
HETATM   28  C5  UNL     1      23.178  23.405  14.680  1.00  0.00     0.184 C 
BRANCH  28  29
HETATM   29  C6  UNL     1      22.351  22.689  15.680  1.00  0.00     0.271 C 
BRANCH  29  30
HETATM   30  O1  UNL     1      21.308  23.419  16.224  1.00  0.00    -0.370 OA
ATOM     31  H1  UNL     1      20.486  22.952  16.316  1.00  0.00     0.212 HD
ENDBRANCH  29  30
BRANCH  29  32
HETATM   32  O2  UNL     1      23.212  22.222  16.702  1.00  0.00    -0.370 OA
ATOM     33  H2  UNL     1      22.783  22.372  17.536  1.00  0.00     0.212 HD
ENDBRANCH  29  32
ENDBRANCH  28  29
ENDBRANCH  26  28
ENDBRANCH  19  26
BRANCH  21  34
HETATM   34  N1  UNL     1      21.116  19.135  11.748  1.00  0.00    -0.230 N 
HETATM   35  C1  UNL     1      20.314  18.814  12.914  1.00  0.00     0.165 C 
ATOM     36  H1  UNL     1      20.942  18.631  10.879  1.00  0.00     0.177 HD
ENDBRANCH  21  34
BRANCH  24  37
HETATM   37  O5  UNL     1      25.237  20.528  10.223  1.00  0.00    -0.339 OA
HETATM   38  C19 UNL     1      26.084  19.456  10.611  1.00  0.00     0.211 C 
ENDBRANCH  24  37
ENDBRANCH  16  18
ENDBRANCH   1  16
BRANCH  10  39
HETATM   39  O3  UNL     1      29.346  24.659   8.101  1.00  0.00    -0.328 OA
BRANCH  39  40
HETATM   40  C11 UNL     1      30.674  24.674   7.719  1.00  0.00     0.154 C 
HETATM   41  C12 UNL     1      31.306  26.046   8.004  1.00  0.00     0.042 C 
BRANCH  40  42
HETATM   42  C13 UNL     1      30.802  24.456   6.194  1.00  0.00     0.143 C 
HETATM   43  C14 UNL     1      30.512  23.025   5.893  1.00  0.00     0.042 C 
BRANCH  42  44
HETATM   44  O4  UNL     1      29.946  25.349   5.588  1.00  0.00    -0.393 OA
ATOM     45  H4  UNL     1      30.457  26.122   5.376  1.00  0.00     0.210 HD
ENDBRANCH  42  44
ENDBRANCH  40  42
ENDBRANCH  39  40
ENDBRANCH  10  39
BRANCH  12  46
HETATM   46  N8  UNL     1      29.580  21.573  11.627  1.00  0.00    -0.385 N 
ATOM     47  H82 UNL     1      30.597  21.606  11.678  1.00  0.00     0.157 HD
ATOM     48  H81 UNL     1      29.087  20.860  12.166  1.00  0.00     0.157 HD
ENDBRANCH  12  46
TORSDOF 14
ENDMDL
MODEL 5
REMARK VINA RESULT: -6.195555215      3.889      8.446
REMARK  14 active torsions:
REMARK  status: ('A' for Active; 'I' for Inactive)
REMARK    1  A    between atoms: N1_2  and  C2_4 
REMARK    2  A    between atoms: C3_7  and  N3_8 
REMARK    3  A    between atoms: N3_8  and  C5_10 
REMARK    4  A    between atoms: C5_10  and  C6_11 
REMARK    5  A    between atoms: C6_11  and  O1_12 
REMARK    6  A    between atoms: C6_11  and  O2_14 
REMARK    7  A    between atoms: C7_16  and  N4_17 
REMARK    8  A    between atoms: N4_17  and  C8_19 
REMARK    9  A    between atoms: C10_28  and  O3_29 
REMARK   10  A    between atoms: O3_29  and  C11_30 
REMARK   11  A    between atoms: C11_30  and  C13_32 
REMARK   12  A    between atoms: C13_32  and  O4_34 
REMARK   13  A    between atoms: C16_37  and  N8_38 
REMARK   14  A    between atoms: C18_44  and  O5_45 
ROOT
HETATM    1  C8  UNL     1      26.887  21.507  10.860  1.00  0.00     0.158 A 
HETATM    2  N5  UNL     1      27.467  20.296  10.723  1.00  0.00    -0.306 N 
ATOM      3  H5  UNL     1      28.424  20.193  10.383  1.00  0.00     0.176 HD
HETATM    4  S1  UNL     1      26.525  18.965  11.143  1.00  0.00     0.024 SA
HETATM    5  C9  UNL     1      24.970  19.413  11.678  1.00  0.00     0.169 A 
HETATM    6  N6  UNL     1      24.071  18.545  12.053  1.00  0.00    -0.378 N 
ATOM      7  H61 UNL     1      23.140  18.814  12.374  1.00  0.00     0.158 HD
ATOM      8  H62 UNL     1      24.245  17.541  12.050  1.00  0.00     0.158 HD
HETATM    9  N7  UNL     1      24.739  20.746  11.682  1.00  0.00    -0.253 N 
HETATM   10  C10 UNL     1      23.471  21.096  12.119  1.00  0.00     0.156 A 
HETATM   11  C15 UNL     1      23.076  22.412  12.185  1.00  0.00     0.104 A 
HETATM   12  C16 UNL     1      23.994  23.380  11.795  1.00  0.00     0.104 A 
HETATM   13  N9  UNL     1      25.195  22.987  11.384  1.00  0.00    -0.325 N 
ATOM     14  H9  UNL     1      25.862  23.704  11.100  1.00  0.00     0.169 HD
HETATM   15  C17 UNL     1      25.591  21.683  11.318  1.00  0.00     0.163 A 
ENDROOT
BRANCH   1  16
HETATM   16  N4  UNL     1      27.594  22.534  10.529  1.00  0.00    -0.332 N 
ATOM     17  H4  UNL     1      27.461  23.364  11.107  1.00  0.00     0.168 HD
BRANCH  16  18
HETATM   18  C7  UNL     1      28.512  22.666   9.494  1.00  0.00     0.131 A 
HETATM   19  C3  UNL     1      28.250  23.441   8.373  1.00  0.00     0.150 A 
HETATM   20  N2  UNL     1      29.190  23.529   7.380  1.00  0.00    -0.174 N 
HETATM   21  C2  UNL     1      30.357  22.873   7.483  1.00  0.00     0.681 A 
ATOM     22  H2  UNL     1      29.002  24.098   6.554  1.00  0.00     0.186 HD
HETATM   23  N10 UNL     1      30.648  22.112   8.552  1.00  0.00    -0.168 N 
HETATM   24  C18 UNL     1      29.726  22.015   9.545  1.00  0.00     0.188 A 
ATOM     25  H10 UNL     1      31.539  21.620   8.617  1.00  0.00     0.186 HD
BRANCH  19  26
HETATM   26  N3  UNL     1      27.014  24.120   8.319  1.00  0.00    -0.365 N 
HETATM   27  C4  UNL     1      25.816  23.336   8.019  1.00  0.00     0.151 C 
BRANCH  26  28
HETATM   28  C5  UNL     1      26.815  25.519   8.506  1.00  0.00     0.184 C 
BRANCH  28  29
HETATM   29  C6  UNL     1      26.055  25.957   9.701  1.00  0.00     0.271 C 
BRANCH  29  30
HETATM   30  O1  UNL     1      25.940  27.327   9.866  1.00  0.00    -0.370 OA
ATOM     31  H1  UNL     1      26.018  27.640  10.760  1.00  0.00     0.212 HD
ENDBRANCH  29  30
BRANCH  29  32
HETATM   32  O2  UNL     1      26.660  25.372  10.839  1.00  0.00    -0.370 OA
ATOM     33  H2  UNL     1      27.522  25.758  10.942  1.00  0.00     0.212 HD
ENDBRANCH  29  32
ENDBRANCH  28  29
ENDBRANCH  26  28
ENDBRANCH  19  26
BRANCH  21  34
HETATM   34  N1  UNL     1      31.250  22.948   6.553  1.00  0.00    -0.230 N 
HETATM   35  C1  UNL     1      31.891  24.197   6.186  1.00  0.00     0.165 C 
ATOM     36  H1  UNL     1      31.515  22.096   6.058  1.00  0.00     0.177 HD
ENDBRANCH  21  34
BRANCH  24  37
HETATM   37  O5  UNL     1      30.018  21.230  10.650  1.00  0.00    -0.339 OA
HETATM   38  C19 UNL     1      31.014  21.724  11.533  1.00  0.00     0.211 C 
ENDBRANCH  24  37
ENDBRANCH  16  18
ENDBRANCH   1  16
BRANCH  10  39
HETATM   39  O3  UNL     1      22.594  20.103  12.495  1.00  0.00    -0.328 OA
BRANCH  39  40
HETATM   40  C11 UNL     1      21.604  20.149  13.459  1.00  0.00     0.154 C 
HETATM   41  C12 UNL     1      22.212  20.069  14.868  1.00  0.00     0.042 C 
BRANCH  40  42
HETATM   42  C13 UNL     1      20.666  18.927  13.331  1.00  0.00     0.143 C 
HETATM   43  C14 UNL     1      20.022  18.962  11.986  1.00  0.00     0.042 C 
BRANCH  42  44
HETATM   44  O4  UNL     1      21.432  17.808  13.566  1.00  0.00    -0.393 OA
ATOM     45  H4  UNL     1      20.849  17.059  13.524  1.00  0.00     0.210 HD
ENDBRANCH  42  44
ENDBRANCH  40  42
ENDBRANCH  39  40
ENDBRANCH  10  39
BRANCH  12  46
HETATM   46  N8  UNL     1      23.640  24.631  11.849  1.00  0.00    -0.385 N 
ATOM     47  H82 UNL     1      22.736  24.935  12.209  1.00  0.00     0.157 HD
ATOM     48  H81 UNL     1      24.296  25.338  11.517  1.00  0.00     0.157 HD
ENDBRANCH  12  46
TORSDOF 14
ENDMDL
