MODEL 1
REMARK VINA RESULT: -8.461580587      0.000      0.000
REMARK  14 active torsions:
REMARK  status: ('A' for Active; 'I' for Inactive)
REMARK    1  A    between atoms: C2_2  and  C3_4 
REMARK    2  A    between atoms: C6_7  and  N1_8 
REMARK    3  A    between atoms: C8_10  and  C9_11 
REMARK    4  A    between atoms: C9_11  and  N4_17 
REMARK    5  A    between atoms: N2_12  and  N3_14 
REMARK    6  A    between atoms: N4_17  and  N5_19 
REMARK       I    between atoms: N5_19  and  C10_21 
REMARK    7  A    between atoms: C10_21  and  C11_23 
REMARK    8  A    between atoms: C12_24  and  O3_25 
REMARK    9  A    between atoms: C13_30  and  N7_31 
REMARK   10  A    between atoms: N7_31  and  N8_33 
REMARK   11  A    between atoms: C14_35  and  C16_37 
REMARK   12  A    between atoms: C16_37  and  N9_38 
REMARK   13  A    between atoms: C16_37  and  O5_42 
REMARK   14  A    between atoms: C17_47  and  N12_48 
ROOT
HETATM    1  N4  UNL     1      26.709  18.139  11.005  1.00  0.00    -0.280 N 
ATOM      2  H4  UNL     1      27.718  17.998  11.029  1.00  0.00     0.189 HD
ENDROOT
BRANCH   1   3
HETATM    3  C9  UNL     1      26.246  19.455  11.195  1.00  0.00     0.164 C 
HETATM    4  N2  UNL     1      25.036  19.637  11.564  1.00  0.00    -0.289 N 
ATOM      5  H2  UNL     1      24.489  18.791  11.722  1.00  0.00     0.188 HD
BRANCH   3   6
HETATM    6  C8  UNL     1      27.154  20.561  10.935  1.00  0.00     0.110 A 
HETATM    7  C7  UNL     1      27.426  21.233   9.766  1.00  0.00     0.149 A 
HETATM    8  N1  UNL     1      28.355  22.187   9.987  1.00  0.00    -0.246 N 
HETATM    9  N11 UNL     1      28.671  22.130  11.272  1.00  0.00    -0.015 NA
HETATM   10  N10 UNL     1      27.971  21.173  11.853  1.00  0.00    -0.279 N 
ATOM     11  H10 UNL     1      28.028  20.924  12.840  1.00  0.00     0.184 HD
BRANCH   8  12
HETATM   12  C6  UNL     1      28.863  23.028   8.970  1.00  0.00     0.087 A 
HETATM   13  C5  UNL     1      28.242  24.223   8.631  1.00  0.00     0.034 A 
HETATM   14  C4  UNL     1      28.699  25.064   7.644  1.00  0.00     0.017 A 
HETATM   15  C3  UNL     1      29.827  24.693   6.964  1.00  0.00     0.012 A 
HETATM   16  C18 UNL     1      30.479  23.522   7.259  1.00  0.00     0.053 A 
HETATM   17  C17 UNL     1      29.990  22.678   8.277  1.00  0.00     0.132 A 
BRANCH  15  18
HETATM   18  C2  UNL     1      30.301  25.594   5.913  1.00  0.00     0.155 C 
HETATM   19  C1  UNL     1      29.434  26.560   5.198  1.00  0.00     0.096 C 
HETATM   20  O1  UNL     1      31.522  25.584   5.559  1.00  0.00    -0.293 OA
ENDBRANCH  15  18
BRANCH  17  21
HETATM   21  N12 UNL     1      30.704  21.485   8.540  1.00  0.00    -0.113 N 
HETATM   22  O6  UNL     1      31.615  21.501   9.374  1.00  0.00    -0.532 OA
HETATM   23  O7  UNL     1      30.382  20.345   7.876  1.00  0.00    -0.532 OA
ENDBRANCH  17  21
ENDBRANCH   8  12
ENDBRANCH   3   6
BRANCH   4  24
HETATM   24  N3  UNL     1      24.377  20.818  11.776  1.00  0.00    -0.344 N 
ATOM     25  H32 UNL     1      24.518  21.518  11.048  1.00  0.00     0.176 HD
ATOM     26  H31 UNL     1      23.775  21.079  12.557  1.00  0.00     0.176 HD
ENDBRANCH   4  24
ENDBRANCH   1   3
BRANCH   1  27
HETATM   27  N5  UNL     1      25.923  17.015  10.789  1.00  0.00    -0.264 N 
HETATM   28  C10 UNL     1      26.488  15.727  10.627  1.00  0.00     0.278 C 
HETATM   29  O2  UNL     1      27.755  15.678  10.680  1.00  0.00    -0.266 OA
ATOM     30  H5  UNL     1      24.910  17.121  10.746  1.00  0.00     0.190 HD
BRANCH  28  31
HETATM   31  C11 UNL     1      25.719  14.518  10.414  1.00  0.00     0.140 A 
HETATM   32  C12 UNL     1      25.570  13.794   9.259  1.00  0.00     0.224 A 
HETATM   33  O4  UNL     1      24.791  12.798   9.525  1.00  0.00    -0.210 OA
HETATM   34  N6  UNL     1      24.390  12.756  10.728  1.00  0.00    -0.240 N 
HETATM   35  C13 UNL     1      24.952  13.847  11.377  1.00  0.00     0.161 A 
ATOM     36  H6  UNL     1      23.773  12.055  11.138  1.00  0.00     0.196 HD
BRANCH  32  37
HETATM   37  O3  UNL     1      26.142  14.065   8.018  1.00  0.00    -0.339 OA
ATOM     38  H3  UNL     1      25.813  13.804   7.166  1.00  0.00     0.220 HD
ENDBRANCH  32  37
BRANCH  35  39
HETATM   39  N7  UNL     1      24.767  14.083  12.564  1.00  0.00    -0.283 N 
ATOM     40  H7  UNL     1      25.439  13.473  13.030  1.00  0.00     0.188 HD
BRANCH  39  41
HETATM   41  N8  UNL     1      24.184  14.685  13.549  1.00  0.00    -0.303 N 
HETATM   42  C14 UNL     1      23.826  14.326  14.709  1.00  0.00     0.055 C 
HETATM   43  C15 UNL     1      24.056  12.937  15.192  1.00  0.00     0.069 C 
ATOM     44  H8  UNL     1      23.965  15.660  13.346  1.00  0.00     0.186 HD
BRANCH  42  45
HETATM   45  C16 UNL     1      23.169  15.287  15.622  1.00  0.00     0.364 C 
BRANCH  45  46
HETATM   46  N9  UNL     1      23.332  16.624  15.103  1.00  0.00    -0.048 N 
ATOM     47  H93 UNL     1      24.116  16.695  14.455  1.00  0.00     0.277 HD
ATOM     48  H92 UNL     1      22.586  16.882  14.457  1.00  0.00     0.277 HD
ATOM     49  H91 UNL     1      23.412  17.279  15.881  1.00  0.00     0.277 HD
ENDBRANCH  45  46
BRANCH  45  50
HETATM   50  O5  UNL     1      21.779  15.021  15.626  1.00  0.00    -0.366 OA
ATOM     51  H5  UNL     1      21.453  15.138  16.510  1.00  0.00     0.212 HD
ENDBRANCH  45  50
ENDBRANCH  42  45
ENDBRANCH  39  41
ENDBRANCH  35  39
ENDBRANCH  28  31
ENDBRANCH   1  27
TORSDOF 14
ENDMDL
MODEL 2
REMARK VINA RESULT: -8.356671432      2.839      5.466
REMARK  14 active torsions:
REMARK  status: ('A' for Active; 'I' for Inactive)
REMARK    1  A    between atoms: C2_2  and  C3_4 
REMARK    2  A    between atoms: C6_7  and  N1_8 
REMARK    3  A    between atoms: C8_10  and  C9_11 
REMARK    4  A    between atoms: C9_11  and  N4_17 
REMARK    5  A    between atoms: N2_12  and  N3_14 
REMARK    6  A    between atoms: N4_17  and  N5_19 
REMARK       I    between atoms: N5_19  and  C10_21 
REMARK    7  A    between atoms: C10_21  and  C11_23 
REMARK    8  A    between atoms: C12_24  and  O3_25 
REMARK    9  A    between atoms: C13_30  and  N7_31 
REMARK   10  A    between atoms: N7_31  and  N8_33 
REMARK   11  A    between atoms: C14_35  and  C16_37 
REMARK   12  A    between atoms: C16_37  and  N9_38 
REMARK   13  A    between atoms: C16_37  and  O5_42 
REMARK   14  A    between atoms: C17_47  and  N12_48 
ROOT
HETATM    1  N4  UNL     1      22.466  18.325  14.971  1.00  0.00    -0.280 N 
ATOM      2  H4  UNL     1      22.966  19.035  15.507  1.00  0.00     0.189 HD
ENDROOT
BRANCH   1   3
HETATM    3  C9  UNL     1      21.836  18.750  13.785  1.00  0.00     0.164 C 
HETATM    4  N2  UNL     1      20.566  18.653  13.691  1.00  0.00    -0.289 N 
ATOM      5  H2  UNL     1      20.088  18.287  14.515  1.00  0.00     0.188 HD
BRANCH   3   6
HETATM    6  C8  UNL     1      22.660  19.257  12.698  1.00  0.00     0.110 A 
HETATM    7  C7  UNL     1      23.908  19.834  12.721  1.00  0.00     0.149 A 
HETATM    8  N1  UNL     1      24.285  20.171  11.470  1.00  0.00    -0.246 N 
HETATM    9  N11 UNL     1      23.299  19.815  10.659  1.00  0.00    -0.015 NA
HETATM   10  N10 UNL     1      22.326  19.271  11.367  1.00  0.00    -0.279 N 
ATOM     11  H10 UNL     1      21.452  18.913  10.980  1.00  0.00     0.184 HD
BRANCH   8  12
HETATM   12  C6  UNL     1      25.511  20.810  11.172  1.00  0.00     0.087 A 
HETATM   13  C5  UNL     1      25.640  22.193  11.196  1.00  0.00     0.034 A 
HETATM   14  C4  UNL     1      26.810  22.852  10.904  1.00  0.00     0.017 A 
HETATM   15  C3  UNL     1      27.901  22.095  10.574  1.00  0.00     0.012 A 
HETATM   16  C18 UNL     1      27.828  20.725  10.536  1.00  0.00     0.053 A 
HETATM   17  C17 UNL     1      26.615  20.073  10.839  1.00  0.00     0.132 A 
BRANCH  15  18
HETATM   18  C2  UNL     1      29.140  22.809  10.263  1.00  0.00     0.155 C 
HETATM   19  C1  UNL     1      30.494  22.234  10.450  1.00  0.00     0.096 C 
HETATM   20  O1  UNL     1      29.104  23.993   9.803  1.00  0.00    -0.293 OA
ENDBRANCH  15  18
BRANCH  17  21
HETATM   21  N12 UNL     1      26.599  18.660  10.786  1.00  0.00    -0.113 N 
HETATM   22  O6  UNL     1      26.959  18.016  11.777  1.00  0.00    -0.532 OA
HETATM   23  O7  UNL     1      26.190  18.031   9.655  1.00  0.00    -0.532 OA
ENDBRANCH  17  21
ENDBRANCH   8  12
ENDBRANCH   3   6
BRANCH   4  24
HETATM   24  N3  UNL     1      19.761  18.974  12.631  1.00  0.00    -0.344 N 
ATOM     25  H32 UNL     1      18.921  18.402  12.550  1.00  0.00     0.176 HD
ATOM     26  H31 UNL     1      19.896  19.699  11.928  1.00  0.00     0.176 HD
ENDBRANCH   4  24
ENDBRANCH   1   3
BRANCH   1  27
HETATM   27  N5  UNL     1      22.472  17.034  15.480  1.00  0.00    -0.264 N 
HETATM   28  C10 UNL     1      23.273  16.011  14.918  1.00  0.00     0.278 C 
HETATM   29  O2  UNL     1      23.968  16.355  13.915  1.00  0.00    -0.266 OA
ATOM     30  H5  UNL     1      21.882  16.817  16.283  1.00  0.00     0.190 HD
BRANCH  28  31
HETATM   31  C11 UNL     1      23.331  14.652  15.416  1.00  0.00     0.140 A 
HETATM   32  C12 UNL     1      22.791  14.141  16.568  1.00  0.00     0.224 A 
HETATM   33  O4  UNL     1      23.095  12.887  16.614  1.00  0.00    -0.210 OA
HETATM   34  N6  UNL     1      23.781  12.479  15.628  1.00  0.00    -0.240 N 
HETATM   35  C13 UNL     1      23.978  13.573  14.797  1.00  0.00     0.161 A 
ATOM     36  H6  UNL     1      24.121  11.529  15.476  1.00  0.00     0.196 HD
BRANCH  32  37
HETATM   37  O3  UNL     1      22.049  14.830  17.525  1.00  0.00    -0.339 OA
ATOM     38  H3  UNL     1      21.577  14.459  18.261  1.00  0.00     0.220 HD
ENDBRANCH  32  37
BRANCH  35  39
HETATM   39  N7  UNL     1      24.598  13.505  13.743  1.00  0.00    -0.283 N 
ATOM     40  H7  UNL     1      24.836  12.515  13.677  1.00  0.00     0.188 HD
BRANCH  39  41
HETATM   41  N8  UNL     1      25.115  14.004  12.668  1.00  0.00    -0.303 N 
HETATM   42  C14 UNL     1      25.075  13.683  11.444  1.00  0.00     0.055 C 
HETATM   43  C15 UNL     1      24.308  12.493  10.982  1.00  0.00     0.069 C 
ATOM     44  H8  UNL     1      25.676  14.837  12.845  1.00  0.00     0.186 HD
BRANCH  42  45
HETATM   45  C16 UNL     1      25.792  14.491  10.433  1.00  0.00     0.364 C 
BRANCH  45  46
HETATM   46  N9  UNL     1      24.860  15.385   9.789  1.00  0.00    -0.048 N 
ATOM     47  H93 UNL     1      24.598  15.064   8.856  1.00  0.00     0.277 HD
ATOM     48  H92 UNL     1      23.935  15.354  10.217  1.00  0.00     0.277 HD
ATOM     49  H91 UNL     1      25.249  16.327   9.779  1.00  0.00     0.277 HD
ENDBRANCH  45  46
BRANCH  45  50
HETATM   50  O5  UNL     1      26.738  15.306  11.101  1.00  0.00    -0.366 OA
ATOM     51  H5  UNL     1      27.586  14.880  11.055  1.00  0.00     0.212 HD
ENDBRANCH  45  50
ENDBRANCH  42  45
ENDBRANCH  39  41
ENDBRANCH  35  39
ENDBRANCH  28  31
ENDBRANCH   1  27
TORSDOF 14
ENDMDL
MODEL 3
REMARK VINA RESULT: -8.318196045      4.694     10.343
REMARK  14 active torsions:
REMARK  status: ('A' for Active; 'I' for Inactive)
REMARK    1  A    between atoms: C2_2  and  C3_4 
REMARK    2  A    between atoms: C6_7  and  N1_8 
REMARK    3  A    between atoms: C8_10  and  C9_11 
REMARK    4  A    between atoms: C9_11  and  N4_17 
REMARK    5  A    between atoms: N2_12  and  N3_14 
REMARK    6  A    between atoms: N4_17  and  N5_19 
REMARK       I    between atoms: N5_19  and  C10_21 
REMARK    7  A    between atoms: C10_21  and  C11_23 
REMARK    8  A    between atoms: C12_24  and  O3_25 
REMARK    9  A    between atoms: C13_30  and  N7_31 
REMARK   10  A    between atoms: N7_31  and  N8_33 
REMARK   11  A    between atoms: C14_35  and  C16_37 
REMARK   12  A    between atoms: C16_37  and  N9_38 
REMARK   13  A    between atoms: C16_37  and  O5_42 
REMARK   14  A    between atoms: C17_47  and  N12_48 
ROOT
HETATM    1  N4  UNL     1      22.457  23.481  15.301  1.00  0.00    -0.280 N 
ATOM      2  H4  UNL     1      23.219  24.046  15.675  1.00  0.00     0.189 HD
ENDROOT
BRANCH   1   3
HETATM    3  C9  UNL     1      21.826  22.594  16.193  1.00  0.00     0.164 C 
HETATM    4  N2  UNL     1      21.552  22.996  17.375  1.00  0.00    -0.289 N 
ATOM      5  H2  UNL     1      21.795  23.965  17.580  1.00  0.00     0.188 HD
BRANCH   3   6
HETATM    6  C8  UNL     1      21.535  21.240  15.746  1.00  0.00     0.110 A 
HETATM    7  C7  UNL     1      22.298  20.098  15.812  1.00  0.00     0.149 A 
HETATM    8  N1  UNL     1      21.631  19.064  15.256  1.00  0.00    -0.246 N 
HETATM    9  N11 UNL     1      20.463  19.533  14.844  1.00  0.00    -0.015 NA
HETATM   10  N10 UNL     1      20.385  20.821  15.124  1.00  0.00    -0.279 N 
ATOM     11  H10 UNL     1      19.586  21.419  14.910  1.00  0.00     0.184 HD
BRANCH   8  12
HETATM   12  C6  UNL     1      22.168  17.760  15.149  1.00  0.00     0.087 A 
HETATM   13  C5  UNL     1      21.867  16.767  16.072  1.00  0.00     0.034 A 
HETATM   14  C4  UNL     1      22.375  15.491  16.008  1.00  0.00     0.017 A 
HETATM   15  C3  UNL     1      23.221  15.194  14.976  1.00  0.00     0.012 A 
HETATM   16  C18 UNL     1      23.552  16.139  14.037  1.00  0.00     0.053 A 
HETATM   17  C17 UNL     1      23.017  17.441  14.125  1.00  0.00     0.132 A 
BRANCH  15  18
HETATM   18  C2  UNL     1      23.758  13.834  14.920  1.00  0.00     0.155 C 
HETATM   19  C1  UNL     1      23.683  12.869  16.043  1.00  0.00     0.096 C 
HETATM   20  O1  UNL     1      24.331  13.410  13.868  1.00  0.00    -0.293 OA
ENDBRANCH  15  18
BRANCH  17  21
HETATM   21  N12 UNL     1      23.390  18.372  13.128  1.00  0.00    -0.113 N 
HETATM   22  O6  UNL     1      24.423  19.034  13.279  1.00  0.00    -0.532 OA
HETATM   23  O7  UNL     1      22.615  18.527  12.024  1.00  0.00    -0.532 OA
ENDBRANCH  17  21
ENDBRANCH   8  12
ENDBRANCH   3   6
BRANCH   4  24
HETATM   24  N3  UNL     1      20.974  22.299  18.401  1.00  0.00    -0.344 N 
ATOM     25  H32 UNL     1      21.368  22.496  19.321  1.00  0.00     0.176 HD
ATOM     26  H31 UNL     1      20.213  21.621  18.360  1.00  0.00     0.176 HD
ENDBRANCH   4  24
ENDBRANCH   1   3
BRANCH   1  27
HETATM   27  N5  UNL     1      22.144  23.660  13.961  1.00  0.00    -0.264 N 
HETATM   28  C10 UNL     1      22.793  22.929  12.936  1.00  0.00     0.278 C 
HETATM   29  O2  UNL     1      23.683  22.116  13.329  1.00  0.00    -0.266 OA
ATOM     30  H5  UNL     1      21.425  24.338  13.707  1.00  0.00     0.190 HD
BRANCH  28  31
HETATM   31  C11 UNL     1      22.498  23.063  11.525  1.00  0.00     0.140 A 
HETATM   32  C12 UNL     1      21.722  24.006  10.900  1.00  0.00     0.224 A 
HETATM   33  O4  UNL     1      21.730  23.738   9.637  1.00  0.00    -0.210 OA
HETATM   34  N6  UNL     1      22.421  22.722   9.322  1.00  0.00    -0.240 N 
HETATM   35  C13 UNL     1      22.958  22.222  10.501  1.00  0.00     0.161 A 
ATOM     36  H6  UNL     1      22.556  22.346   8.384  1.00  0.00     0.196 HD
BRANCH  32  37
HETATM   37  O3  UNL     1      21.040  25.063  11.499  1.00  0.00    -0.339 OA
ATOM     38  H3  UNL     1      21.195  25.991  11.369  1.00  0.00     0.220 HD
ENDBRANCH  32  37
BRANCH  35  39
HETATM   39  N7  UNL     1      23.691  21.242  10.535  1.00  0.00    -0.283 N 
ATOM     40  H7  UNL     1      23.103  20.499  10.158  1.00  0.00     0.188 HD
BRANCH  39  41
HETATM   41  N8  UNL     1      24.805  20.636  10.789  1.00  0.00    -0.303 N 
HETATM   42  C14 UNL     1      25.998  21.024  10.955  1.00  0.00     0.055 C 
HETATM   43  C15 UNL     1      26.360  22.466  10.868  1.00  0.00     0.069 C 
ATOM     44  H8  UNL     1      24.698  19.625  10.874  1.00  0.00     0.186 HD
BRANCH  42  45
HETATM   45  C16 UNL     1      27.071  20.048  11.246  1.00  0.00     0.364 C 
BRANCH  45  46
HETATM   46  N9  UNL     1      26.516  18.715  11.245  1.00  0.00    -0.048 N 
ATOM     47  H93 UNL     1      26.710  18.216  12.113  1.00  0.00     0.277 HD
ATOM     48  H92 UNL     1      25.498  18.720  11.304  1.00  0.00     0.277 HD
ATOM     49  H91 UNL     1      26.853  18.212  10.425  1.00  0.00     0.277 HD
ENDBRANCH  45  46
BRANCH  45  50
HETATM   50  O5  UNL     1      28.016  20.094  10.192  1.00  0.00    -0.366 OA
ATOM     51  H5  UNL     1      27.674  19.592   9.462  1.00  0.00     0.212 HD
ENDBRANCH  45  50
ENDBRANCH  42  45
ENDBRANCH  39  41
ENDBRANCH  35  39
ENDBRANCH  28  31
ENDBRANCH   1  27
TORSDOF 14
ENDMDL
MODEL 4
REMARK VINA RESULT: -8.130682883      2.752      5.203
REMARK  14 active torsions:
REMARK  status: ('A' for Active; 'I' for Inactive)
REMARK    1  A    between atoms: C2_2  and  C3_4 
REMARK    2  A    between atoms: C6_7  and  N1_8 
REMARK    3  A    between atoms: C8_10  and  C9_11 
REMARK    4  A    between atoms: C9_11  and  N4_17 
REMARK    5  A    between atoms: N2_12  and  N3_14 
REMARK    6  A    between atoms: N4_17  and  N5_19 
REMARK       I    between atoms: N5_19  and  C10_21 
REMARK    7  A    between atoms: C10_21  and  C11_23 
REMARK    8  A    between atoms: C12_24  and  O3_25 
REMARK    9  A    between atoms: C13_30  and  N7_31 
REMARK   10  A    between atoms: N7_31  and  N8_33 
REMARK   11  A    between atoms: C14_35  and  C16_37 
REMARK   12  A    between atoms: C16_37  and  N9_38 
REMARK   13  A    between atoms: C16_37  and  O5_42 
REMARK   14  A    between atoms: C17_47  and  N12_48 
ROOT
HETATM    1  N4  UNL     1      21.718  20.782  12.625  1.00  0.00    -0.280 N 
ATOM      2  H4  UNL     1      21.001  20.635  11.916  1.00  0.00     0.189 HD
ENDROOT
BRANCH   1   3
HETATM    3  C9  UNL     1      22.427  21.997  12.572  1.00  0.00     0.164 C 
HETATM    4  N2  UNL     1      22.093  22.943  13.363  1.00  0.00    -0.289 N 
ATOM      5  H2  UNL     1      21.333  22.731  14.009  1.00  0.00     0.188 HD
BRANCH   3   6
HETATM    6  C8  UNL     1      23.496  22.141  11.595  1.00  0.00     0.110 A 
HETATM    7  C7  UNL     1      24.860  22.068  11.751  1.00  0.00     0.149 A 
HETATM    8  N1  UNL     1      25.473  22.282  10.568  1.00  0.00    -0.246 N 
HETATM    9  N11 UNL     1      24.521  22.486   9.670  1.00  0.00    -0.015 NA
HETATM   10  N10 UNL     1      23.341  22.406  10.257  1.00  0.00    -0.279 N 
ATOM     11  H10 UNL     1      22.444  22.525   9.785  1.00  0.00     0.184 HD
BRANCH   8  12
HETATM   12  C6  UNL     1      26.878  22.298  10.412  1.00  0.00     0.087 A 
HETATM   13  C5  UNL     1      27.583  23.483  10.244  1.00  0.00     0.034 A 
HETATM   14  C4  UNL     1      28.946  23.540  10.080  1.00  0.00     0.017 A 
HETATM   15  C3  UNL     1      29.637  22.360  10.084  1.00  0.00     0.012 A 
HETATM   16  C18 UNL     1      28.990  21.160  10.246  1.00  0.00     0.053 A 
HETATM   17  C17 UNL     1      27.590  21.129  10.412  1.00  0.00     0.132 A 
BRANCH  15  18
HETATM   18  C2  UNL     1      31.088  22.433   9.906  1.00  0.00     0.155 C 
HETATM   19  C1  UNL     1      31.888  23.660  10.132  1.00  0.00     0.096 C 
HETATM   20  O1  UNL     1      31.744  21.409   9.536  1.00  0.00    -0.293 OA
ENDBRANCH  15  18
BRANCH  17  21
HETATM   21  N12 UNL     1      26.977  19.865  10.578  1.00  0.00    -0.113 N 
HETATM   22  O6  UNL     1      26.264  19.419   9.673  1.00  0.00    -0.532 OA
HETATM   23  O7  UNL     1      27.179  19.161  11.721  1.00  0.00    -0.532 OA
ENDBRANCH  17  21
ENDBRANCH   8  12
ENDBRANCH   3   6
BRANCH   4  24
HETATM   24  N3  UNL     1      22.620  24.202  13.458  1.00  0.00    -0.344 N 
ATOM     25  H32 UNL     1      22.974  24.580  12.579  1.00  0.00     0.176 HD
ATOM     26  H31 UNL     1      22.702  24.797  14.282  1.00  0.00     0.176 HD
ENDBRANCH   4  24
ENDBRANCH   1   3
BRANCH   1  27
HETATM   27  N5  UNL     1      21.902  19.763  13.551  1.00  0.00    -0.264 N 
HETATM   28  C10 UNL     1      22.487  18.524  13.194  1.00  0.00     0.278 C 
HETATM   29  O2  UNL     1      22.815  18.409  11.974  1.00  0.00    -0.266 OA
ATOM     30  H5  UNL     1      21.607  19.913  14.516  1.00  0.00     0.190 HD
BRANCH  28  31
HETATM   31  C11 UNL     1      22.716  17.433  14.118  1.00  0.00     0.140 A 
HETATM   32  C12 UNL     1      22.203  17.258  15.378  1.00  0.00     0.224 A 
HETATM   33  O4  UNL     1      22.682  16.152  15.841  1.00  0.00    -0.210 OA
HETATM   34  N6  UNL     1      23.464  15.548  15.045  1.00  0.00    -0.240 N 
HETATM   35  C13 UNL     1      23.539  16.320  13.894  1.00  0.00     0.161 A 
ATOM     36  H6  UNL     1      23.943  14.664  15.218  1.00  0.00     0.196 HD
BRANCH  32  37
HETATM   37  O3  UNL     1      21.328  18.107  16.053  1.00  0.00    -0.339 OA
ATOM     38  H3  UNL     1      21.081  18.064  16.969  1.00  0.00     0.220 HD
ENDBRANCH  32  37
BRANCH  35  39
HETATM   39  N7  UNL     1      24.210  16.000  12.920  1.00  0.00    -0.283 N 
ATOM     40  H7  UNL     1      24.548  15.069  13.167  1.00  0.00     0.188 HD
BRANCH  39  41
HETATM   41  N8  UNL     1      24.723  16.198  11.750  1.00  0.00    -0.303 N 
HETATM   42  C14 UNL     1      25.317  15.456  10.914  1.00  0.00     0.055 C 
HETATM   43  C15 UNL     1      25.555  14.013  11.196  1.00  0.00     0.069 C 
ATOM     44  H8  UNL     1      24.628  17.162  11.431  1.00  0.00     0.186 HD
BRANCH  42  45
HETATM   45  C16 UNL     1      25.788  16.006   9.624  1.00  0.00     0.364 C 
BRANCH  45  46
HETATM   46  N9  UNL     1      24.876  17.033   9.182  1.00  0.00    -0.048 N 
ATOM     47  H93 UNL     1      24.262  17.352   9.931  1.00  0.00     0.277 HD
ATOM     48  H92 UNL     1      25.349  17.917   8.995  1.00  0.00     0.277 HD
ATOM     49  H91 UNL     1      24.355  16.695   8.373  1.00  0.00     0.277 HD
ENDBRANCH  45  46
BRANCH  45  50
HETATM   50  O5  UNL     1      27.037  16.638   9.838  1.00  0.00    -0.366 OA
ATOM     51  H5  UNL     1      27.488  16.701   9.005  1.00  0.00     0.212 HD
ENDBRANCH  45  50
ENDBRANCH  42  45
ENDBRANCH  39  41
ENDBRANCH  35  39
ENDBRANCH  28  31
ENDBRANCH   1  27
TORSDOF 14
ENDMDL
MODEL 5
REMARK VINA RESULT: -8.120365880      2.187      4.404
REMARK  14 active torsions:
REMARK  status: ('A' for Active; 'I' for Inactive)
REMARK    1  A    between atoms: C2_2  and  C3_4 
REMARK    2  A    between atoms: C6_7  and  N1_8 
REMARK    3  A    between atoms: C8_10  and  C9_11 
REMARK    4  A    between atoms: C9_11  and  N4_17 
REMARK    5  A    between atoms: N2_12  and  N3_14 
REMARK    6  A    between atoms: N4_17  and  N5_19 
REMARK       I    between atoms: N5_19  and  C10_21 
REMARK    7  A    between atoms: C10_21  and  C11_23 
REMARK    8  A    between atoms: C12_24  and  O3_25 
REMARK    9  A    between atoms: C13_30  and  N7_31 
REMARK   10  A    between atoms: N7_31  and  N8_33 
REMARK   11  A    between atoms: C14_35  and  C16_37 
REMARK   12  A    between atoms: C16_37  and  N9_38 
REMARK   13  A    between atoms: C16_37  and  O5_42 
REMARK   14  A    between atoms: C17_47  and  N12_48 
ROOT
HETATM    1  N4  UNL     1      26.702  18.446  11.123  1.00  0.00    -0.280 N 
ATOM      2  H4  UNL     1      27.704  18.294  11.013  1.00  0.00     0.189 HD
ENDROOT
BRANCH   1   3
HETATM    3  C9  UNL     1      26.271  19.778  11.265  1.00  0.00     0.164 C 
HETATM    4  N2  UNL     1      25.059  20.004  11.602  1.00  0.00    -0.289 N 
ATOM      5  H2  UNL     1      24.486  19.178  11.771  1.00  0.00     0.188 HD
BRANCH   3   6
HETATM    6  C8  UNL     1      27.216  20.852  10.994  1.00  0.00     0.110 A 
HETATM    7  C7  UNL     1      27.501  21.511   9.821  1.00  0.00     0.149 A 
HETATM    8  N1  UNL     1      28.464  22.432  10.031  1.00  0.00    -0.246 N 
HETATM    9  N11 UNL     1      28.789  22.367  11.313  1.00  0.00    -0.015 NA
HETATM   10  N10 UNL     1      28.061  21.437  11.903  1.00  0.00    -0.279 N 
ATOM     11  H10 UNL     1      28.118  21.188  12.891  1.00  0.00     0.184 HD
BRANCH   8  12
HETATM   12  C6  UNL     1      28.992  23.253   9.007  1.00  0.00     0.087 A 
HETATM   13  C5  UNL     1      28.450  24.498   8.714  1.00  0.00     0.034 A 
HETATM   14  C4  UNL     1      28.928  25.320   7.722  1.00  0.00     0.017 A 
HETATM   15  C3  UNL     1      29.996  24.880   6.990  1.00  0.00     0.012 A 
HETATM   16  C18 UNL     1      30.569  23.657   7.238  1.00  0.00     0.053 A 
HETATM   17  C17 UNL     1      30.060  22.832   8.261  1.00  0.00     0.132 A 
BRANCH  15  18
HETATM   18  C2  UNL     1      30.493  25.763   5.935  1.00  0.00     0.155 C 
HETATM   19  C1  UNL     1      29.653  26.752   5.218  1.00  0.00     0.096 C 
HETATM   20  O1  UNL     1      31.713  25.716   5.577  1.00  0.00    -0.293 OA
ENDBRANCH  15  18
BRANCH  17  21
HETATM   21  N12 UNL     1      30.692  21.585   8.474  1.00  0.00    -0.113 N 
HETATM   22  O6  UNL     1      30.284  20.591   7.863  1.00  0.00    -0.532 OA
HETATM   23  O7  UNL     1      31.733  21.494   9.340  1.00  0.00    -0.532 OA
ENDBRANCH  17  21
ENDBRANCH   8  12
ENDBRANCH   3   6
BRANCH   4  24
HETATM   24  N3  UNL     1      24.429  21.208  11.765  1.00  0.00    -0.344 N 
ATOM     25  H32 UNL     1      24.679  21.914  11.073  1.00  0.00     0.176 HD
ATOM     26  H31 UNL     1      23.755  21.481  12.480  1.00  0.00     0.176 HD
ENDBRANCH   4  24
ENDBRANCH   1   3
BRANCH   1  27
HETATM   27  N5  UNL     1      25.893  17.317  11.118  1.00  0.00    -0.264 N 
HETATM   28  C10 UNL     1      26.204  16.176  10.339  1.00  0.00     0.278 C 
HETATM   29  O2  UNL     1      27.261  16.265   9.643  1.00  0.00    -0.266 OA
ATOM     30  H5  UNL     1      25.050  17.311  11.692  1.00  0.00     0.190 HD
BRANCH  28  31
HETATM   31  C11 UNL     1      25.407  14.968  10.306  1.00  0.00     0.140 A 
HETATM   32  C12 UNL     1      24.790  14.323  11.347  1.00  0.00     0.224 A 
HETATM   33  O4  UNL     1      24.198  13.283  10.861  1.00  0.00    -0.210 OA
HETATM   34  N6  UNL     1      24.336  13.141   9.608  1.00  0.00    -0.240 N 
HETATM   35  C13 UNL     1      25.115  14.203   9.168  1.00  0.00     0.161 A 
ATOM     36  H6  UNL     1      23.950  12.391   9.035  1.00  0.00     0.196 HD
BRANCH  32  37
HETATM   37  O3  UNL     1      24.792  14.701  12.688  1.00  0.00    -0.339 OA
ATOM     38  H3  UNL     1      24.038  14.785  13.260  1.00  0.00     0.220 HD
ENDBRANCH  32  37
BRANCH  35  39
HETATM   39  N7  UNL     1      25.421  14.361   7.992  1.00  0.00    -0.283 N 
ATOM     40  H7  UNL     1      25.930  15.245   8.002  1.00  0.00     0.188 HD
BRANCH  39  41
HETATM   41  N8  UNL     1      25.450  14.019   6.746  1.00  0.00    -0.303 N 
HETATM   42  C14 UNL     1      24.678  14.218   5.762  1.00  0.00     0.055 C 
HETATM   43  C15 UNL     1      23.419  14.998   5.915  1.00  0.00     0.069 C 
ATOM     44  H8  UNL     1      26.274  13.469   6.502  1.00  0.00     0.186 HD
BRANCH  42  45
HETATM   45  C16 UNL     1      25.013  13.680   4.425  1.00  0.00     0.364 C 
BRANCH  45  46
HETATM   46  N9  UNL     1      24.706  14.672   3.422  1.00  0.00    -0.048 N 
ATOM     47  H93 UNL     1      25.503  15.275   3.219  1.00  0.00     0.277 HD
ATOM     48  H92 UNL     1      24.593  14.263   2.495  1.00  0.00     0.277 HD
ATOM     49  H91 UNL     1      23.884  15.202   3.713  1.00  0.00     0.277 HD
ENDBRANCH  45  46
BRANCH  45  50
HETATM   50  O5  UNL     1      26.411  13.465   4.367  1.00  0.00    -0.366 OA
ATOM     51  H5  UNL     1      26.580  12.752   3.764  1.00  0.00     0.212 HD
ENDBRANCH  45  50
ENDBRANCH  42  45
ENDBRANCH  39  41
ENDBRANCH  35  39
ENDBRANCH  28  31
ENDBRANCH   1  27
TORSDOF 14
ENDMDL
