MODEL 1
REMARK VINA RESULT: -7.731688409      0.000      0.000
REMARK  12 active torsions:
REMARK  status: ('A' for Active; 'I' for Inactive)
REMARK    1  A    between atoms: C3_3  and  C4_4 
REMARK    2  A    between atoms: C4_4  and  N1_5 
REMARK    3  A    between atoms: N1_5  and  N2_7 
REMARK    4  A    between atoms: N2_7  and  C6_10 
REMARK    5  A    between atoms: C6_10  and  C7_11 
REMARK    6  A    between atoms: C6_10  and  C9_14 
REMARK    7  A    between atoms: C9_14  and  O1_15 
REMARK    8  A    between atoms: N5_17  and  O2_19 
REMARK    9  A    between atoms: N6_24  and  C13_25 
REMARK   10  A    between atoms: C13_25  and  C14_26 
REMARK   11  A    between atoms: C17_36  and  N10_37 
REMARK   12  A    between atoms: N10_37  and  C18_39 
ROOT
HETATM    1  N2  UNL     1      24.609  16.303  10.227  1.00  0.00    -0.215 N 
HETATM    2  C5  UNL     1      24.008  16.372   8.909  1.00  0.00     0.201 C 
HETATM    3  N3  UNL     1      23.535  16.446   7.849  1.00  0.00    -0.170 NA
ENDROOT
BRANCH   1   4
HETATM    4  N1  UNL     1      24.446  17.366  10.989  1.00  0.00    -0.324 N 
ATOM      5  H1  UNL     1      24.366  17.197  11.992  1.00  0.00     0.181 HD
BRANCH   4   6
HETATM    6  C4  UNL     1      24.370  18.697  10.578  1.00  0.00     0.151 C 
BRANCH   6   7
HETATM    7  C3  UNL     1      24.686  19.680  11.712  1.00  0.00     0.054 C 
HETATM    8  C2  UNL     1      26.089  20.175  11.455  1.00  0.00     0.004 C 
HETATM    9  C1  UNL     1      27.069  19.309  11.450  1.00  0.00     0.038 C 
HETATM   10  N6  UNL     1      26.318  21.563  11.229  1.00  0.00    -0.377 N 
HETATM   11  C12 UNL     1      25.340  22.449  10.629  1.00  0.00     0.123 C 
HETATM   12  C11 UNL     1      24.044  21.734  10.443  1.00  0.00     0.021 C 
HETATM   13  C10 UNL     1      23.803  20.880  11.673  1.00  0.00     0.014 C 
BRANCH  10  14
HETATM   14  C13 UNL     1      27.582  22.143  11.608  1.00  0.00     0.199 C 
BRANCH  14  15
HETATM   15  C14 UNL     1      28.419  22.503  10.461  1.00  0.00     0.102 A 
HETATM   16  N7  UNL     1      28.988  21.547   9.715  1.00  0.00    -0.327 N 
HETATM   17  C15 UNL     1      29.767  21.824   8.652  1.00  0.00     0.161 A 
ATOM     18  H7  UNL     1      28.825  20.571   9.962  1.00  0.00     0.169 HD
HETATM   19  N8  UNL     1      30.439  21.074   7.761  1.00  0.00    -0.223 N 
HETATM   20  C16 UNL     1      29.977  23.167   8.331  1.00  0.00     0.147 A 
HETATM   21  O3  UNL     1      31.029  21.886   6.940  1.00  0.00    -0.155 OA
ATOM     22  H8  UNL     1      30.478  20.055   7.735  1.00  0.00     0.198 HD
HETATM   23  N9  UNL     1      30.772  23.115   7.254  1.00  0.00    -0.234 N 
ATOM     24  H9  UNL     1      31.125  23.929   6.752  1.00  0.00     0.197 HD
HETATM   25  C17 UNL     1      29.403  24.169   9.082  1.00  0.00     0.155 A 
HETATM   26  N13 UNL     1      28.641  23.766  10.127  1.00  0.00    -0.328 N 
ATOM     27  H13 UNL     1      28.204  24.488  10.700  1.00  0.00     0.169 HD
BRANCH  25  28
HETATM   28  N10 UNL     1      29.573  25.407   8.811  1.00  0.00    -0.174 N 
ATOM     29  H10 UNL     1      30.374  25.902   9.203  1.00  0.00     0.186 HD
BRANCH  28  30
HETATM   30  C18 UNL     1      28.669  26.097   7.978  1.00  0.00     0.675 C 
HETATM   31  N11 UNL     1      28.974  26.316   6.749  1.00  0.00    -0.226 N 
HETATM   32  C19 UNL     1      28.152  27.001   5.803  1.00  0.00     0.139 C 
ATOM     33  H11 UNL     1      29.877  25.971   6.423  1.00  0.00     0.177 HD
HETATM   34  C20 UNL     1      26.702  27.099   6.161  1.00  0.00     0.040 C 
HETATM   35  C21 UNL     1      26.458  27.293   7.638  1.00  0.00     0.139 C 
HETATM   36  N12 UNL     1      27.411  26.580   8.448  1.00  0.00    -0.226 N 
ATOM     37  H12 UNL     1      27.171  26.409   9.424  1.00  0.00     0.177 HD
ENDBRANCH  28  30
ENDBRANCH  25  28
ENDBRANCH  14  15
ENDBRANCH  10  14
ENDBRANCH   6   7
ENDBRANCH   4   6
ENDBRANCH   1   4
BRANCH   1  38
HETATM   38  C6  UNL     1      25.278  15.073  10.468  1.00  0.00     0.219 C 
BRANCH  38  39
HETATM   39  C7  UNL     1      24.877  13.901   9.706  1.00  0.00     0.024 C 
HETATM   40  C8  UNL     1      24.367  12.857  10.293  1.00  0.00     0.098 C 
HETATM   41  N4  UNL     1      23.984  11.729   9.524  1.00  0.00    -0.115 NA
ENDBRANCH  38  39
BRANCH  38  42
HETATM   42  C9  UNL     1      26.760  15.333  10.308  1.00  0.00     0.165 C 
HETATM   43  N5  UNL     1      27.638  14.513  10.714  1.00  0.00    -0.249 N 
ATOM     44  H5  UNL     1      27.331  13.651  11.162  1.00  0.00     0.196 HD
BRANCH  42  45
HETATM   45  O1  UNL     1      27.182  16.508   9.698  1.00  0.00    -0.346 OA
ATOM     46  H1  UNL     1      28.091  16.595   9.437  1.00  0.00     0.219 HD
ENDBRANCH  42  45
BRANCH  43  47
HETATM   47  O2  UNL     1      28.977  14.735  10.576  1.00  0.00    -0.288 OA
ATOM     48  H2  UNL     1      29.412  14.746   9.732  1.00  0.00     0.244 HD
ENDBRANCH  43  47
ENDBRANCH  38  42
ENDBRANCH   1  38
TORSDOF 12
ENDMDL
MODEL 2
REMARK VINA RESULT: -7.484096946      4.016      9.877
REMARK  12 active torsions:
REMARK  status: ('A' for Active; 'I' for Inactive)
REMARK    1  A    between atoms: C3_3  and  C4_4 
REMARK    2  A    between atoms: C4_4  and  N1_5 
REMARK    3  A    between atoms: N1_5  and  N2_7 
REMARK    4  A    between atoms: N2_7  and  C6_10 
REMARK    5  A    between atoms: C6_10  and  C7_11 
REMARK    6  A    between atoms: C6_10  and  C9_14 
REMARK    7  A    between atoms: C9_14  and  O1_15 
REMARK    8  A    between atoms: N5_17  and  O2_19 
REMARK    9  A    between atoms: N6_24  and  C13_25 
REMARK   10  A    between atoms: C13_25  and  C14_26 
REMARK   11  A    between atoms: C17_36  and  N10_37 
REMARK   12  A    between atoms: N10_37  and  C18_39 
ROOT
HETATM    1  N2  UNL     1      30.548  23.024   9.330  1.00  0.00    -0.215 N 
HETATM    2  C5  UNL     1      31.878  23.216   9.878  1.00  0.00     0.201 C 
HETATM    3  N3  UNL     1      32.939  23.356  10.332  1.00  0.00    -0.170 NA
ENDROOT
BRANCH   1   4
HETATM    4  N1  UNL     1      29.551  23.165  10.179  1.00  0.00    -0.324 N 
ATOM      5  H1  UNL     1      29.805  23.343  11.151  1.00  0.00     0.181 HD
BRANCH   4   6
HETATM    6  C4  UNL     1      28.186  23.097   9.899  1.00  0.00     0.151 C 
BRANCH   6   7
HETATM    7  C3  UNL     1      27.349  22.764  11.139  1.00  0.00     0.054 C 
HETATM    8  C2  UNL     1      25.917  22.682  10.665  1.00  0.00     0.004 C 
HETATM    9  C1  UNL     1      25.369  23.747  10.140  1.00  0.00     0.038 C 
HETATM   10  N6  UNL     1      25.196  21.462  10.802  1.00  0.00    -0.377 N 
HETATM   11  C12 UNL     1      25.822  20.155  10.779  1.00  0.00     0.123 C 
HETATM   12  C11 UNL     1      27.307  20.295  10.753  1.00  0.00     0.021 C 
HETATM   13  C10 UNL     1      27.684  21.422  11.696  1.00  0.00     0.014 C 
BRANCH  10  14
HETATM   14  C13 UNL     1      23.765  21.499  10.974  1.00  0.00     0.199 C 
BRANCH  14  15
HETATM   15  C14 UNL     1      23.350  21.473  12.378  1.00  0.00     0.102 A 
HETATM   16  N7  UNL     1      23.101  22.616  13.029  1.00  0.00    -0.327 N 
HETATM   17  C15 UNL     1      22.719  22.648  14.320  1.00  0.00     0.161 A 
ATOM     18  H7  UNL     1      23.205  23.498  12.527  1.00  0.00     0.169 HD
HETATM   19  N8  UNL     1      22.414  23.632  15.184  1.00  0.00    -0.223 N 
HETATM   20  C16 UNL     1      22.582  21.429  14.988  1.00  0.00     0.147 A 
HETATM   21  O3  UNL     1      22.109  23.073  16.314  1.00  0.00    -0.155 OA
ATOM     22  H8  UNL     1      22.421  24.633  14.988  1.00  0.00     0.198 HD
HETATM   23  N9  UNL     1      22.200  21.786  16.222  1.00  0.00    -0.234 N 
ATOM     24  H9  UNL     1      22.007  21.133  16.982  1.00  0.00     0.197 HD
HETATM   25  C17 UNL     1      22.833  20.239  14.341  1.00  0.00     0.155 A 
HETATM   26  N13 UNL     1      23.211  20.336  13.044  1.00  0.00    -0.328 N 
ATOM     27  H13 UNL     1      23.403  19.469  12.542  1.00  0.00     0.169 HD
BRANCH  25  28
HETATM   28  N10 UNL     1      22.712  19.108  14.924  1.00  0.00    -0.174 N 
ATOM     29  H10 UNL     1      23.547  18.610  15.234  1.00  0.00     0.186 HD
BRANCH  28  30
HETATM   30  C18 UNL     1      21.443  18.537  15.145  1.00  0.00     0.675 C 
HETATM   31  N11 UNL     1      21.269  17.728  16.128  1.00  0.00    -0.226 N 
HETATM   32  C19 UNL     1      20.038  17.082  16.460  1.00  0.00     0.139 C 
ATOM     33  H11 UNL     1      22.076  17.529  16.719  1.00  0.00     0.177 HD
HETATM   34  C20 UNL     1      18.807  17.706  15.880  1.00  0.00     0.040 C 
HETATM   35  C21 UNL     1      19.008  18.256  14.489  1.00  0.00     0.139 C 
HETATM   36  N12 UNL     1      20.321  18.816  14.307  1.00  0.00    -0.226 N 
ATOM     37  H12 UNL     1      20.461  19.457  13.525  1.00  0.00     0.177 HD
ENDBRANCH  28  30
ENDBRANCH  25  28
ENDBRANCH  14  15
ENDBRANCH  10  14
ENDBRANCH   6   7
ENDBRANCH   4   6
ENDBRANCH   1   4
BRANCH   1  38
HETATM   38  C6  UNL     1      30.560  22.716   7.943  1.00  0.00     0.219 C 
BRANCH  38  39
HETATM   39  C7  UNL     1      31.538  23.373   7.091  1.00  0.00     0.024 C 
HETATM   40  C8  UNL     1      31.236  24.449   6.424  1.00  0.00     0.098 C 
HETATM   41  N4  UNL     1      32.211  25.068   5.601  1.00  0.00    -0.115 NA
ENDBRANCH  38  39
BRANCH  38  42
HETATM   42  C9  UNL     1      30.670  21.211   7.822  1.00  0.00     0.165 C 
HETATM   43  N5  UNL     1      31.614  20.650   7.189  1.00  0.00    -0.249 N 
ATOM     44  H5  UNL     1      32.322  21.237   6.747  1.00  0.00     0.196 HD
BRANCH  42  45
HETATM   45  O1  UNL     1      29.707  20.409   8.421  1.00  0.00    -0.346 OA
ATOM     46  H1  UNL     1      29.909  19.500   8.606  1.00  0.00     0.219 HD
ENDBRANCH  42  45
BRANCH  43  47
HETATM   47  O2  UNL     1      31.725  19.296   7.073  1.00  0.00    -0.288 OA
ATOM     48  H2  UNL     1      32.254  18.771   7.662  1.00  0.00     0.244 HD
ENDBRANCH  43  47
ENDBRANCH  38  42
ENDBRANCH   1  38
TORSDOF 12
ENDMDL
MODEL 3
REMARK VINA RESULT: -7.469584305      4.220      8.781
REMARK  12 active torsions:
REMARK  status: ('A' for Active; 'I' for Inactive)
REMARK    1  A    between atoms: C3_3  and  C4_4 
REMARK    2  A    between atoms: C4_4  and  N1_5 
REMARK    3  A    between atoms: N1_5  and  N2_7 
REMARK    4  A    between atoms: N2_7  and  C6_10 
REMARK    5  A    between atoms: C6_10  and  C7_11 
REMARK    6  A    between atoms: C6_10  and  C9_14 
REMARK    7  A    between atoms: C9_14  and  O1_15 
REMARK    8  A    between atoms: N5_17  and  O2_19 
REMARK    9  A    between atoms: N6_24  and  C13_25 
REMARK   10  A    between atoms: C13_25  and  C14_26 
REMARK   11  A    between atoms: C17_36  and  N10_37 
REMARK   12  A    between atoms: N10_37  and  C18_39 
ROOT
HETATM    1  N2  UNL     1      28.514  23.252   8.266  1.00  0.00    -0.215 N 
HETATM    2  C5  UNL     1      29.182  21.967   8.362  1.00  0.00     0.201 C 
HETATM    3  N3  UNL     1      29.701  20.929   8.428  1.00  0.00    -0.170 NA
ENDROOT
BRANCH   1   4
HETATM    4  N1  UNL     1      27.246  23.268   8.624  1.00  0.00    -0.324 N 
ATOM      5  H1  UNL     1      26.775  24.172   8.582  1.00  0.00     0.181 HD
BRANCH   4   6
HETATM    6  C4  UNL     1      26.476  22.189   9.054  1.00  0.00     0.151 C 
BRANCH   6   7
HETATM    7  C3  UNL     1      26.070  22.308  10.528  1.00  0.00     0.054 C 
HETATM    8  C2  UNL     1      24.889  21.384  10.711  1.00  0.00     0.004 C 
HETATM    9  C1  UNL     1      23.802  21.613  10.022  1.00  0.00     0.038 C 
HETATM   10  N6  UNL     1      24.979  20.296  11.626  1.00  0.00    -0.377 N 
HETATM   11  C12 UNL     1      26.219  19.616  11.942  1.00  0.00     0.123 C 
HETATM   12  C11 UNL     1      27.369  20.320  11.304  1.00  0.00     0.021 C 
HETATM   13  C10 UNL     1      27.137  21.813  11.444  1.00  0.00     0.014 C 
BRANCH  10  14
HETATM   14  C13 UNL     1      23.787  19.824  12.284  1.00  0.00     0.199 C 
BRANCH  14  15
HETATM   15  C14 UNL     1      23.306  20.732  13.329  1.00  0.00     0.102 A 
HETATM   16  N7  UNL     1      22.990  20.257  14.540  1.00  0.00    -0.327 N 
HETATM   17  C15 UNL     1      22.542  21.046  15.535  1.00  0.00     0.161 A 
ATOM     18  H7  UNL     1      23.093  19.258  14.717  1.00  0.00     0.169 HD
HETATM   19  N8  UNL     1      22.166  20.830  16.808  1.00  0.00    -0.223 N 
HETATM   20  C16 UNL     1      22.410  22.412  15.272  1.00  0.00     0.147 A 
HETATM   21  O3  UNL     1      21.820  21.976  17.308  1.00  0.00    -0.155 OA
ATOM     22  H8  UNL     1      22.154  19.931  17.290  1.00  0.00     0.198 HD
HETATM   23  N9  UNL     1      21.956  22.914  16.429  1.00  0.00    -0.234 N 
ATOM     24  H9  UNL     1      21.746  23.899  16.592  1.00  0.00     0.197 HD
HETATM   25  C17 UNL     1      22.728  22.925  14.034  1.00  0.00     0.155 A 
HETATM   26  N13 UNL     1      23.167  22.031  13.116  1.00  0.00    -0.328 N 
ATOM     27  H13 UNL     1      23.409  22.386  12.190  1.00  0.00     0.169 HD
BRANCH  25  28
HETATM   28  N10 UNL     1      22.621  24.170  13.764  1.00  0.00    -0.174 N 
ATOM     29  H10 UNL     1      22.602  24.850  14.524  1.00  0.00     0.186 HD
BRANCH  28  30
HETATM   30  C18 UNL     1      22.528  24.617  12.431  1.00  0.00     0.675 C 
HETATM   31  N11 UNL     1      21.374  24.825  11.906  1.00  0.00    -0.226 N 
HETATM   32  C19 UNL     1      21.142  25.276  10.570  1.00  0.00     0.139 C 
ATOM     33  H11 UNL     1      20.556  24.654  12.491  1.00  0.00     0.177 HD
HETATM   34  C20 UNL     1      22.309  25.927   9.898  1.00  0.00     0.040 C 
HETATM   35  C21 UNL     1      23.636  25.299  10.253  1.00  0.00     0.139 C 
HETATM   36  N12 UNL     1      23.679  24.847  11.618  1.00  0.00    -0.226 N 
ATOM     37  H12 UNL     1      24.595  24.679  12.034  1.00  0.00     0.177 HD
ENDBRANCH  28  30
ENDBRANCH  25  28
ENDBRANCH  14  15
ENDBRANCH  10  14
ENDBRANCH   6   7
ENDBRANCH   4   6
ENDBRANCH   1   4
BRANCH   1  38
HETATM   38  C6  UNL     1      29.368  24.286   7.797  1.00  0.00     0.219 C 
BRANCH  38  39
HETATM   39  C7  UNL     1      30.124  24.066   6.575  1.00  0.00     0.024 C 
HETATM   40  C8  UNL     1      31.418  24.206   6.548  1.00  0.00     0.098 C 
HETATM   41  N4  UNL     1      32.129  23.984   5.341  1.00  0.00    -0.115 NA
ENDBRANCH  38  39
BRANCH  38  42
HETATM   42  C9  UNL     1      28.529  25.541   7.689  1.00  0.00     0.165 C 
HETATM   43  N5  UNL     1      28.403  26.179   6.601  1.00  0.00    -0.249 N 
ATOM     44  H5  UNL     1      28.886  25.831   5.772  1.00  0.00     0.196 HD
BRANCH  42  45
HETATM   45  O1  UNL     1      27.871  26.018   8.816  1.00  0.00    -0.346 OA
ATOM     46  H1  UNL     1      28.337  26.583   9.421  1.00  0.00     0.219 HD
ENDBRANCH  42  45
BRANCH  43  47
HETATM   47  O2  UNL     1      27.650  27.310   6.489  1.00  0.00    -0.288 OA
ATOM     48  H2  UNL     1      27.355  27.652   5.654  1.00  0.00     0.244 HD
ENDBRANCH  43  47
ENDBRANCH  38  42
ENDBRANCH   1  38
TORSDOF 12
ENDMDL
MODEL 4
REMARK VINA RESULT: -7.467826170      8.426     12.533
REMARK  12 active torsions:
REMARK  status: ('A' for Active; 'I' for Inactive)
REMARK    1  A    between atoms: C3_3  and  C4_4 
REMARK    2  A    between atoms: C4_4  and  N1_5 
REMARK    3  A    between atoms: N1_5  and  N2_7 
REMARK    4  A    between atoms: N2_7  and  C6_10 
REMARK    5  A    between atoms: C6_10  and  C7_11 
REMARK    6  A    between atoms: C6_10  and  C9_14 
REMARK    7  A    between atoms: C9_14  and  O1_15 
REMARK    8  A    between atoms: N5_17  and  O2_19 
REMARK    9  A    between atoms: N6_24  and  C13_25 
REMARK   10  A    between atoms: C13_25  and  C14_26 
REMARK   11  A    between atoms: C17_36  and  N10_37 
REMARK   12  A    between atoms: N10_37  and  C18_39 
ROOT
HETATM    1  N2  UNL     1      18.516  22.537  17.986  1.00  0.00    -0.215 N 
HETATM    2  C5  UNL     1      19.881  23.006  17.830  1.00  0.00     0.201 C 
HETATM    3  N3  UNL     1      20.968  23.389  17.686  1.00  0.00    -0.170 NA
ENDROOT
BRANCH   1   4
HETATM    4  N1  UNL     1      18.040  21.814  16.992  1.00  0.00    -0.324 N 
ATOM      5  H1  UNL     1      17.834  22.313  16.127  1.00  0.00     0.181 HD
BRANCH   4   6
HETATM    6  C4  UNL     1      17.786  20.443  16.991  1.00  0.00     0.151 C 
BRANCH   6   7
HETATM    7  C3  UNL     1      18.929  19.634  16.368  1.00  0.00     0.054 C 
HETATM    8  C2  UNL     1      19.401  18.683  17.442  1.00  0.00     0.004 C 
HETATM    9  C1  UNL     1      19.879  19.179  18.553  1.00  0.00     0.038 C 
HETATM   10  N6  UNL     1      19.321  17.277  17.225  1.00  0.00    -0.377 N 
HETATM   11  C12 UNL     1      18.318  16.652  16.385  1.00  0.00     0.123 C 
HETATM   12  C11 UNL     1      17.514  17.692  15.682  1.00  0.00     0.021 C 
HETATM   13  C10 UNL     1      18.462  18.788  15.233  1.00  0.00     0.014 C 
BRANCH  10  14
HETATM   14  C13 UNL     1      20.276  16.407  17.863  1.00  0.00     0.199 C 
BRANCH  14  15
HETATM   15  C14 UNL     1      21.284  15.878  16.940  1.00  0.00     0.102 A 
HETATM   16  N7  UNL     1      21.665  14.597  17.021  1.00  0.00    -0.327 N 
HETATM   17  C15 UNL     1      22.587  14.061  16.199  1.00  0.00     0.161 A 
ATOM     18  H7  UNL     1      21.240  14.004  17.733  1.00  0.00     0.169 HD
HETATM   19  N8  UNL     1      23.134  12.839  16.071  1.00  0.00    -0.223 N 
HETATM   20  C16 UNL     1      23.156  14.891  15.230  1.00  0.00     0.147 A 
HETATM   21  O3  UNL     1      23.985  12.897  15.094  1.00  0.00    -0.155 OA
ATOM     22  H8  UNL     1      22.919  12.019  16.638  1.00  0.00     0.198 HD
HETATM   23  N9  UNL     1      24.013  14.087  14.587  1.00  0.00    -0.234 N 
ATOM     24  H9  UNL     1      24.605  14.372  13.807  1.00  0.00     0.197 HD
HETATM   25  C17 UNL     1      22.781  16.213  15.126  1.00  0.00     0.155 A 
HETATM   26  N13 UNL     1      21.845  16.636  16.009  1.00  0.00    -0.328 N 
ATOM     27  H13 UNL     1      21.549  17.611  15.953  1.00  0.00     0.169 HD
BRANCH  25  28
HETATM   28  N10 UNL     1      23.279  16.996  14.247  1.00  0.00    -0.174 N 
ATOM     29  H10 UNL     1      24.074  16.685  13.689  1.00  0.00     0.186 HD
BRANCH  28  30
HETATM   30  C18 UNL     1      22.747  18.284  14.039  1.00  0.00     0.675 C 
HETATM   31  N11 UNL     1      21.878  18.473  13.111  1.00  0.00    -0.226 N 
HETATM   32  C19 UNL     1      21.264  19.724  12.796  1.00  0.00     0.139 C 
ATOM     33  H11 UNL     1      21.605  17.664  12.554  1.00  0.00     0.177 HD
HETATM   34  C20 UNL     1      21.334  20.765  13.869  1.00  0.00     0.040 C 
HETATM   35  C21 UNL     1      22.631  20.745  14.643  1.00  0.00     0.139 C 
HETATM   36  N12 UNL     1      23.142  19.412  14.820  1.00  0.00    -0.226 N 
ATOM     37  H12 UNL     1      23.834  19.262  15.555  1.00  0.00     0.177 HD
ENDBRANCH  28  30
ENDBRANCH  25  28
ENDBRANCH  14  15
ENDBRANCH  10  14
ENDBRANCH   6   7
ENDBRANCH   4   6
ENDBRANCH   1   4
BRANCH   1  38
HETATM   38  C6  UNL     1      17.927  22.946  19.212  1.00  0.00     0.219 C 
BRANCH  38  39
HETATM   39  C7  UNL     1      18.726  22.884  20.425  1.00  0.00     0.024 C 
HETATM   40  C8  UNL     1      18.663  21.856  21.222  1.00  0.00     0.098 C 
HETATM   41  N4  UNL     1      19.455  21.823  22.398  1.00  0.00    -0.115 NA
ENDBRANCH  38  39
BRANCH  38  42
HETATM   42  C9  UNL     1      17.383  24.342  19.001  1.00  0.00     0.165 C 
HETATM   43  N5  UNL     1      17.688  25.309  19.762  1.00  0.00    -0.249 N 
ATOM     44  H5  UNL     1      18.321  25.135  20.543  1.00  0.00     0.196 HD
BRANCH  42  45
HETATM   45  O1  UNL     1      16.520  24.582  17.939  1.00  0.00    -0.346 OA
ATOM     46  H1  UNL     1      16.088  25.425  17.873  1.00  0.00     0.219 HD
ENDBRANCH  42  45
BRANCH  43  47
HETATM   47  O2  UNL     1      17.206  26.572  19.583  1.00  0.00    -0.288 OA
ATOM     48  H2  UNL     1      16.285  26.756  19.441  1.00  0.00     0.244 HD
ENDBRANCH  43  47
ENDBRANCH  38  42
ENDBRANCH   1  38
TORSDOF 12
ENDMDL
MODEL 5
REMARK VINA RESULT: -7.460231244      1.701      3.373
REMARK  12 active torsions:
REMARK  status: ('A' for Active; 'I' for Inactive)
REMARK    1  A    between atoms: C3_3  and  C4_4 
REMARK    2  A    between atoms: C4_4  and  N1_5 
REMARK    3  A    between atoms: N1_5  and  N2_7 
REMARK    4  A    between atoms: N2_7  and  C6_10 
REMARK    5  A    between atoms: C6_10  and  C7_11 
REMARK    6  A    between atoms: C6_10  and  C9_14 
REMARK    7  A    between atoms: C9_14  and  O1_15 
REMARK    8  A    between atoms: N5_17  and  O2_19 
REMARK    9  A    between atoms: N6_24  and  C13_25 
REMARK   10  A    between atoms: C13_25  and  C14_26 
REMARK   11  A    between atoms: C17_36  and  N10_37 
REMARK   12  A    between atoms: N10_37  and  C18_39 
ROOT
HETATM    1  N2  UNL     1      24.909  16.225  10.279  1.00  0.00    -0.215 N 
HETATM    2  C5  UNL     1      24.947  16.575   8.871  1.00  0.00     0.201 C 
HETATM    3  N3  UNL     1      24.987  16.875   7.749  1.00  0.00    -0.170 NA
ENDROOT
BRANCH   1   4
HETATM    4  N1  UNL     1      24.425  17.147  11.088  1.00  0.00    -0.324 N 
ATOM      5  H1  UNL     1      24.130  16.830  12.011  1.00  0.00     0.181 HD
BRANCH   4   6
HETATM    6  C4  UNL     1      24.271  18.507  10.822  1.00  0.00     0.151 C 
BRANCH   6   7
HETATM    7  C3  UNL     1      24.742  19.389  11.985  1.00  0.00     0.054 C 
HETATM    8  C2  UNL     1      25.921  20.174  11.462  1.00  0.00     0.004 C 
HETATM    9  C1  UNL     1      26.980  19.521  11.057  1.00  0.00     0.038 C 
HETATM   10  N6  UNL     1      25.862  21.596  11.423  1.00  0.00    -0.377 N 
HETATM   11  C12 UNL     1      24.630  22.342  11.255  1.00  0.00     0.123 C 
HETATM   12  C11 UNL     1      23.460  21.418  11.291  1.00  0.00     0.021 C 
HETATM   13  C10 UNL     1      23.712  20.391  12.379  1.00  0.00     0.014 C 
BRANCH  10  14
HETATM   14  C13 UNL     1      27.077  22.360  11.554  1.00  0.00     0.199 C 
BRANCH  14  15
HETATM   15  C14 UNL     1      27.314  23.267  10.428  1.00  0.00     0.102 A 
HETATM   16  N7  UNL     1      26.787  24.498  10.433  1.00  0.00    -0.327 N 
HETATM   17  C15 UNL     1      26.973  25.370   9.423  1.00  0.00     0.161 A 
ATOM     18  H7  UNL     1      26.223  24.787  11.232  1.00  0.00     0.169 HD
HETATM   19  N8  UNL     1      26.567  26.630   9.185  1.00  0.00    -0.223 N 
HETATM   20  C16 UNL     1      27.750  24.954   8.339  1.00  0.00     0.147 A 
HETATM   21  O3  UNL     1      27.053  26.980   8.035  1.00  0.00    -0.155 OA
ATOM     22  H8  UNL     1      25.986  27.203   9.796  1.00  0.00     0.198 HD
HETATM   23  N9  UNL     1      27.748  26.017   7.523  1.00  0.00    -0.234 N 
ATOM     24  H9  UNL     1      28.228  26.060   6.623  1.00  0.00     0.197 HD
HETATM   25  C17 UNL     1      28.303  23.693   8.311  1.00  0.00     0.155 A 
HETATM   26  N13 UNL     1      28.045  22.907   9.384  1.00  0.00    -0.328 N 
ATOM     27  H13 UNL     1      28.442  21.968   9.388  1.00  0.00     0.169 HD
BRANCH  25  28
HETATM   28  N10 UNL     1      29.021  23.285   7.335  1.00  0.00    -0.174 N 
ATOM     29  H10 UNL     1      28.628  23.267   6.394  1.00  0.00     0.186 HD
BRANCH  28  30
HETATM   30  C18 UNL     1      30.349  22.860   7.541  1.00  0.00     0.675 C 
HETATM   31  N11 UNL     1      31.217  23.682   8.012  1.00  0.00    -0.226 N 
HETATM   32  C19 UNL     1      32.590  23.380   8.266  1.00  0.00     0.139 C 
ATOM     33  H11 UNL     1      30.899  24.629   8.222  1.00  0.00     0.177 HD
HETATM   34  C20 UNL     1      32.920  21.925   8.374  1.00  0.00     0.040 C 
HETATM   35  C21 UNL     1      32.128  21.056   7.426  1.00  0.00     0.139 C 
HETATM   36  N12 UNL     1      30.785  21.535   7.238  1.00  0.00    -0.226 N 
ATOM     37  H12 UNL     1      30.096  20.883   6.861  1.00  0.00     0.177 HD
ENDBRANCH  28  30
ENDBRANCH  25  28
ENDBRANCH  14  15
ENDBRANCH  10  14
ENDBRANCH   6   7
ENDBRANCH   4   6
ENDBRANCH   1   4
BRANCH   1  38
HETATM   38  C6  UNL     1      25.406  14.920  10.539  1.00  0.00     0.219 C 
BRANCH  38  39
HETATM   39  C7  UNL     1      24.931  13.817   9.718  1.00  0.00     0.024 C 
HETATM   40  C8  UNL     1      24.266  12.827  10.240  1.00  0.00     0.098 C 
HETATM   41  N4  UNL     1      23.815  11.765   9.415  1.00  0.00    -0.115 NA
ENDBRANCH  38  39
BRANCH  38  42
HETATM   42  C9  UNL     1      26.917  15.003  10.500  1.00  0.00     0.165 C 
HETATM   43  N5  UNL     1      27.631  14.106   9.960  1.00  0.00    -0.249 N 
ATOM     44  H5  UNL     1      27.167  13.301   9.538  1.00  0.00     0.196 HD
BRANCH  42  45
HETATM   45  O1  UNL     1      27.551  16.098  11.074  1.00  0.00    -0.346 OA
ATOM     46  H1  UNL     1      27.744  16.857  10.537  1.00  0.00     0.219 HD
ENDBRANCH  42  45
BRANCH  43  47
HETATM   47  O2  UNL     1      28.992  14.169   9.918  1.00  0.00    -0.288 OA
ATOM     48  H2  UNL     1      29.532  13.448   9.616  1.00  0.00     0.244 HD
ENDBRANCH  43  47
ENDBRANCH  38  42
ENDBRANCH   1  38
TORSDOF 12
ENDMDL
