MODEL 1
REMARK VINA RESULT: -6.689959568      0.000      0.000
REMARK  16 active torsions:
REMARK  status: ('A' for Active; 'I' for Inactive)
REMARK    1  A    between atoms: C4_5  and  O2_6 
REMARK    2  A    between atoms: O2_6  and  C5_7 
REMARK    3  A    between atoms: C7_9  and  C8_10 
REMARK    4  A    between atoms: C8_10  and  N1_11 
REMARK    5  A    between atoms: N1_11  and  C9_13 
REMARK    6  A    between atoms: C9_13  and  C10_14 
REMARK    7  A    between atoms: C10_14  and  C11_15 
REMARK    8  A    between atoms: C11_15  and  C12_16 
REMARK    9  A    between atoms: C12_16  and  C13_17 
REMARK   10  A    between atoms: C13_17  and  C14_18 
REMARK   11  A    between atoms: C14_18  and  N2_19 
REMARK   12  A    between atoms: C15_23  and  O3_24 
REMARK   13  A    between atoms: C16_26  and  O4_27 
REMARK   14  A    between atoms: C17_29  and  N3_30 
REMARK   15  A    between atoms: C18_34  and  O5_35 
REMARK   16  A    between atoms: C23_41  and  N4_42 
ROOT
HETATM    1  C5  UNL     1     -13.943  74.658 119.317  1.00  0.00     0.158 C 
HETATM    2  C6  UNL     1     -13.051  73.593 119.942  1.00  0.00     0.043 C 
HETATM    3  C7  UNL     1     -13.089  72.272 119.270  1.00  0.00     0.037 C 
HETATM    4  C15 UNL     1     -14.490  71.722 119.119  1.00  0.00     0.154 C 
HETATM    5  C16 UNL     1     -15.528  72.794 119.354  1.00  0.00     0.180 C 
HETATM    6  C17 UNL     1     -15.166  74.111 118.700  1.00  0.00     0.243 C 
ENDROOT
BRANCH   1   7
HETATM    7  O2  UNL     1     -13.082  75.381 118.498  1.00  0.00    -0.351 OA
BRANCH   7   8
HETATM    8  C4  UNL     1     -12.081  76.020 119.147  1.00  0.00     0.296 C 
HETATM    9  O1  UNL     1     -10.824  75.743 118.496  1.00  0.00    -0.346 OA
HETATM   10  C2  UNL     1      -9.806  76.181 119.297  1.00  0.00     0.085 C 
HETATM   11  C1  UNL     1      -9.094  74.972 119.927  1.00  0.00     0.048 C 
HETATM   12  C3  UNL     1      -8.717  76.882 118.472  1.00  0.00     0.048 C 
HETATM   13  C23 UNL     1     -10.162  77.097 120.410  1.00  0.00     0.224 C 
HETATM   14  C22 UNL     1     -11.283  78.044 120.166  1.00  0.00     0.058 C 
HETATM   15  C18 UNL     1     -12.205  77.495 119.079  1.00  0.00     0.113 C 
HETATM   16  C21 UNL     1     -12.229  78.068 121.373  1.00  0.00     0.010 C 
HETATM   17  C19 UNL     1     -13.567  77.973 119.409  1.00  0.00     0.043 C 
HETATM   18  C20 UNL     1     -13.531  78.527 120.794  1.00  0.00     0.004 C 
BRANCH  13  19
HETATM   19  N4  UNL     1      -8.978  77.911 120.737  1.00  0.00    -0.072 N 
ATOM     20  H43 UNL     1      -8.594  77.693 121.656  1.00  0.00     0.274 HD
ATOM     21  H42 UNL     1      -8.161  77.657 120.182  1.00  0.00     0.274 HD
ATOM     22  H41 UNL     1      -9.228  78.896 120.639  1.00  0.00     0.274 HD
ENDBRANCH  13  19
BRANCH  15  23
HETATM   23  O5  UNL     1     -11.770  77.944 117.817  1.00  0.00    -0.384 OA
ATOM     24  H5  UNL     1     -11.338  78.784 117.912  1.00  0.00     0.210 HD
ENDBRANCH  15  23
ENDBRANCH   7   8
ENDBRANCH   1   7
BRANCH   6  25
HETATM   25  N3  UNL     1     -16.313  74.971 118.936  1.00  0.00    -0.070 N 
ATOM     26  H33 UNL     1     -16.047  75.956 118.931  1.00  0.00     0.274 HD
ATOM     27  H32 UNL     1     -16.947  74.974 118.137  1.00  0.00     0.274 HD
ATOM     28  H31 UNL     1     -16.798  74.719 119.797  1.00  0.00     0.274 HD
ENDBRANCH   6  25
BRANCH   3  29
HETATM   29  C8  UNL     1     -12.409  72.246 117.925  1.00  0.00     0.121 C 
BRANCH  29  30
HETATM   30  N1  UNL     1     -11.102  72.820 117.904  1.00  0.00    -0.421 N 
ATOM     31  H1  UNL     1     -10.918  73.777 118.204  1.00  0.00     0.153 HD
BRANCH  30  32
HETATM   32  C9  UNL     1     -10.072  71.951 117.429  1.00  0.00     0.113 C 
BRANCH  32  33
HETATM   33  C10 UNL     1      -9.207  71.535 118.598  1.00  0.00     0.019 C 
BRANCH  33  34
HETATM   34  C11 UNL     1      -8.602  70.173 118.410  1.00  0.00     0.002 C 
BRANCH  34  35
HETATM   35  C12 UNL     1      -9.403  69.053 118.990  1.00  0.00     0.002 C 
BRANCH  35  36
HETATM   36  C13 UNL     1      -9.346  67.905 118.000  1.00  0.00     0.027 C 
BRANCH  36  37
HETATM   37  C14 UNL     1      -9.086  68.393 116.593  1.00  0.00     0.229 C 
BRANCH  37  38
HETATM   38  N2  UNL     1      -8.355  67.351 115.880  1.00  0.00    -0.079 N 
ATOM     39  H23 UNL     1      -7.393  67.618 115.671  1.00  0.00     0.274 HD
ATOM     40  H22 UNL     1      -8.149  66.543 116.467  1.00  0.00     0.274 HD
ATOM     41  H21 UNL     1      -8.886  67.106 115.044  1.00  0.00     0.274 HD
ENDBRANCH  37  38
ENDBRANCH  36  37
ENDBRANCH  35  36
ENDBRANCH  34  35
ENDBRANCH  33  34
ENDBRANCH  32  33
ENDBRANCH  30  32
ENDBRANCH  29  30
ENDBRANCH   3  29
BRANCH   5  42
HETATM   42  O4  UNL     1     -15.750  72.980 120.695  1.00  0.00    -0.391 OA
ATOM     43  H4  UNL     1     -16.630  72.714 120.936  1.00  0.00     0.210 HD
ENDBRANCH   5  42
BRANCH   4  44
HETATM   44  O3  UNL     1     -14.694  70.659 119.986  1.00  0.00    -0.393 OA
ATOM     45  H3  UNL     1     -14.828  70.972 120.873  1.00  0.00     0.210 HD
ENDBRANCH   4  44
TORSDOF 16
ENDMDL
MODEL 2
REMARK VINA RESULT: -6.618978945      1.641      5.029
REMARK  16 active torsions:
REMARK  status: ('A' for Active; 'I' for Inactive)
REMARK    1  A    between atoms: C4_5  and  O2_6 
REMARK    2  A    between atoms: O2_6  and  C5_7 
REMARK    3  A    between atoms: C7_9  and  C8_10 
REMARK    4  A    between atoms: C8_10  and  N1_11 
REMARK    5  A    between atoms: N1_11  and  C9_13 
REMARK    6  A    between atoms: C9_13  and  C10_14 
REMARK    7  A    between atoms: C10_14  and  C11_15 
REMARK    8  A    between atoms: C11_15  and  C12_16 
REMARK    9  A    between atoms: C12_16  and  C13_17 
REMARK   10  A    between atoms: C13_17  and  C14_18 
REMARK   11  A    between atoms: C14_18  and  N2_19 
REMARK   12  A    between atoms: C15_23  and  O3_24 
REMARK   13  A    between atoms: C16_26  and  O4_27 
REMARK   14  A    between atoms: C17_29  and  N3_30 
REMARK   15  A    between atoms: C18_34  and  O5_35 
REMARK   16  A    between atoms: C23_41  and  N4_42 
ROOT
HETATM    1  C5  UNL     1     -11.588  76.363 120.148  1.00  0.00     0.158 C 
HETATM    2  C6  UNL     1     -10.789  75.609 119.093  1.00  0.00     0.043 C 
HETATM    3  C7  UNL     1      -9.412  75.236 119.497  1.00  0.00     0.037 C 
HETATM    4  C15 UNL     1      -8.599  76.411 119.992  1.00  0.00     0.154 C 
HETATM    5  C16 UNL     1      -9.482  77.600 120.296  1.00  0.00     0.180 C 
HETATM    6  C17 UNL     1     -10.754  77.211 121.020  1.00  0.00     0.243 C 
ENDROOT
BRANCH   1   7
HETATM    7  O2  UNL     1     -12.353  75.375 120.760  1.00  0.00    -0.351 OA
BRANCH   7   8
HETATM    8  C4  UNL     1     -13.303  74.819 119.973  1.00  0.00     0.296 C 
HETATM    9  O1  UNL     1     -13.173  73.384 119.991  1.00  0.00    -0.346 OA
HETATM   10  C2  UNL     1     -13.963  72.855 119.010  1.00  0.00     0.085 C 
HETATM   11  C1  UNL     1     -13.080  72.349 117.857  1.00  0.00     0.048 C 
HETATM   12  C3  UNL     1     -14.701  71.603 119.507  1.00  0.00     0.048 C 
HETATM   13  C23 UNL     1     -14.986  73.747 118.406  1.00  0.00     0.224 C 
HETATM   14  C22 UNL     1     -15.610  74.755 119.304  1.00  0.00     0.058 C 
HETATM   15  C18 UNL     1     -14.676  75.064 120.473  1.00  0.00     0.113 C 
HETATM   16  C21 UNL     1     -15.672  76.120 118.606  1.00  0.00     0.010 C 
HETATM   17  C19 UNL     1     -14.913  76.481 120.831  1.00  0.00     0.043 C 
HETATM   18  C20 UNL     1     -15.724  77.096 119.740  1.00  0.00     0.004 C 
BRANCH  13  19
HETATM   19  N4  UNL     1     -16.078  72.910 117.879  1.00  0.00    -0.072 N 
ATOM     20  H43 UNL     1     -16.217  72.058 118.422  1.00  0.00     0.274 HD
ATOM     21  H42 UNL     1     -16.998  73.323 118.032  1.00  0.00     0.274 HD
ATOM     22  H41 UNL     1     -15.891  72.722 116.893  1.00  0.00     0.274 HD
ENDBRANCH  13  19
BRANCH  15  23
HETATM   23  O5  UNL     1     -14.948  74.188 121.541  1.00  0.00    -0.384 OA
ATOM     24  H5  UNL     1     -15.798  74.395 121.911  1.00  0.00     0.210 HD
ENDBRANCH  15  23
ENDBRANCH   7   8
ENDBRANCH   1   7
BRANCH   6  25
HETATM   25  N3  UNL     1     -11.410  78.472 121.321  1.00  0.00    -0.070 N 
ATOM     26  H33 UNL     1     -11.602  79.004 120.472  1.00  0.00     0.274 HD
ATOM     27  H32 UNL     1     -12.368  78.327 121.638  1.00  0.00     0.274 HD
ATOM     28  H31 UNL     1     -10.873  79.022 121.992  1.00  0.00     0.274 HD
ENDBRANCH   6  25
BRANCH   3  29
HETATM   29  C8  UNL     1      -9.350  74.136 120.524  1.00  0.00     0.121 C 
BRANCH  29  30
HETATM   30  N1  UNL     1     -10.265  73.061 120.308  1.00  0.00    -0.421 N 
ATOM     31  H1  UNL     1     -11.273  73.202 120.249  1.00  0.00     0.153 HD
BRANCH  30  32
HETATM   32  C9  UNL     1      -9.660  71.773 120.181  1.00  0.00     0.113 C 
BRANCH  32  33
HETATM   33  C10 UNL     1      -8.916  71.711 118.866  1.00  0.00     0.019 C 
BRANCH  33  34
HETATM   34  C11 UNL     1      -8.549  70.307 118.478  1.00  0.00     0.002 C 
BRANCH  34  35
HETATM   35  C12 UNL     1      -9.316  69.245 119.195  1.00  0.00     0.002 C 
BRANCH  35  36
HETATM   36  C13 UNL     1      -9.315  68.016 118.306  1.00  0.00     0.027 C 
BRANCH  36  37
HETATM   37  C14 UNL     1      -9.280  68.386 116.841  1.00  0.00     0.229 C 
BRANCH  37  38
HETATM   38  N2  UNL     1      -8.520  67.362 116.133  1.00  0.00    -0.079 N 
ATOM     39  H23 UNL     1      -8.569  66.450 116.587  1.00  0.00     0.274 HD
ATOM     40  H22 UNL     1      -8.948  67.096 115.246  1.00  0.00     0.274 HD
ATOM     41  H21 UNL     1      -7.562  67.697 116.023  1.00  0.00     0.274 HD
ENDBRANCH  37  38
ENDBRANCH  36  37
ENDBRANCH  35  36
ENDBRANCH  34  35
ENDBRANCH  33  34
ENDBRANCH  32  33
ENDBRANCH  30  32
ENDBRANCH  29  30
ENDBRANCH   3  29
BRANCH   5  42
HETATM   42  O4  UNL     1      -9.784  78.295 119.152  1.00  0.00    -0.391 OA
ATOM     43  H4  UNL     1     -10.705  78.213 118.936  1.00  0.00     0.210 HD
ENDBRANCH   5  42
BRANCH   4  44
HETATM   44  O3  UNL     1      -7.629  76.760 119.063  1.00  0.00    -0.393 OA
ATOM     45  H3  UNL     1      -7.108  77.488 119.381  1.00  0.00     0.210 HD
ENDBRANCH   4  44
TORSDOF 16
ENDMDL
MODEL 3
REMARK VINA RESULT: -6.430544819      2.803      4.692
REMARK  16 active torsions:
REMARK  status: ('A' for Active; 'I' for Inactive)
REMARK    1  A    between atoms: C4_5  and  O2_6 
REMARK    2  A    between atoms: O2_6  and  C5_7 
REMARK    3  A    between atoms: C7_9  and  C8_10 
REMARK    4  A    between atoms: C8_10  and  N1_11 
REMARK    5  A    between atoms: N1_11  and  C9_13 
REMARK    6  A    between atoms: C9_13  and  C10_14 
REMARK    7  A    between atoms: C10_14  and  C11_15 
REMARK    8  A    between atoms: C11_15  and  C12_16 
REMARK    9  A    between atoms: C12_16  and  C13_17 
REMARK   10  A    between atoms: C13_17  and  C14_18 
REMARK   11  A    between atoms: C14_18  and  N2_19 
REMARK   12  A    between atoms: C15_23  and  O3_24 
REMARK   13  A    between atoms: C16_26  and  O4_27 
REMARK   14  A    between atoms: C17_29  and  N3_30 
REMARK   15  A    between atoms: C18_34  and  O5_35 
REMARK   16  A    between atoms: C23_41  and  N4_42 
ROOT
HETATM    1  C5  UNL     1      -8.985  71.874 118.717  1.00  0.00     0.158 C 
HETATM    2  C6  UNL     1      -8.162  70.883 117.905  1.00  0.00     0.043 C 
HETATM    3  C7  UNL     1      -8.904  69.688 117.436  1.00  0.00     0.037 C 
HETATM    4  C15 UNL     1      -9.612  68.952 118.552  1.00  0.00     0.154 C 
HETATM    5  C16 UNL     1      -9.694  69.798 119.801  1.00  0.00     0.180 C 
HETATM    6  C17 UNL     1     -10.057  71.238 119.507  1.00  0.00     0.243 C 
ENDROOT
BRANCH   1   7
HETATM    7  O2  UNL     1      -9.362  72.839 117.789  1.00  0.00    -0.351 OA
BRANCH   7   8
HETATM    8  C4  UNL     1      -9.840  73.987 118.322  1.00  0.00     0.296 C 
HETATM    9  O1  UNL     1      -8.959  75.080 117.996  1.00  0.00    -0.346 OA
HETATM   10  C2  UNL     1      -9.312  76.171 118.740  1.00  0.00     0.085 C 
HETATM   11  C1  UNL     1      -8.262  76.403 119.840  1.00  0.00     0.048 C 
HETATM   12  C3  UNL     1      -9.275  77.453 117.896  1.00  0.00     0.048 C 
HETATM   13  C23 UNL     1     -10.636  76.136 119.413  1.00  0.00     0.224 C 
HETATM   14  C22 UNL     1     -11.730  75.422 118.701  1.00  0.00     0.058 C 
HETATM   15  C18 UNL     1     -11.143  74.388 117.742  1.00  0.00     0.113 C 
HETATM   16  C21 UNL     1     -12.496  74.519 119.676  1.00  0.00     0.010 C 
HETATM   17  C19 UNL     1     -12.116  73.273 117.687  1.00  0.00     0.043 C 
HETATM   18  C20 UNL     1     -13.098  73.472 118.792  1.00  0.00     0.004 C 
BRANCH  13  19
HETATM   19  N4  UNL     1     -11.090  77.522 119.615  1.00  0.00    -0.072 N 
ATOM     20  H43 UNL     1     -10.808  78.143 118.856  1.00  0.00     0.274 HD
ATOM     21  H42 UNL     1     -12.099  77.624 119.508  1.00  0.00     0.274 HD
ATOM     22  H41 UNL     1     -10.759  77.840 120.526  1.00  0.00     0.274 HD
ENDBRANCH  13  19
BRANCH  15  23
HETATM   23  O5  UNL     1     -10.932  74.978 116.481  1.00  0.00    -0.384 OA
ATOM     24  H5  UNL     1     -11.540  75.698 116.363  1.00  0.00     0.210 HD
ENDBRANCH  15  23
ENDBRANCH   7   8
ENDBRANCH   1   7
BRANCH   6  25
HETATM   25  N3  UNL     1     -10.197  71.860 120.812  1.00  0.00    -0.070 N 
ATOM     26  H33 UNL     1     -11.087  71.617 121.247  1.00  0.00     0.274 HD
ATOM     27  H32 UNL     1      -9.566  71.440 121.495  1.00  0.00     0.274 HD
ATOM     28  H31 UNL     1     -10.071  72.871 120.761  1.00  0.00     0.274 HD
ENDBRANCH   6  25
BRANCH   3  29
HETATM   29  C8  UNL     1      -9.895  69.973 116.337  1.00  0.00     0.121 C 
BRANCH  29  30
HETATM   30  N1  UNL     1      -9.313  70.296 115.074  1.00  0.00    -0.421 N 
ATOM     31  H1  UNL     1      -9.047  71.247 114.820  1.00  0.00     0.153 HD
BRANCH  30  32
HETATM   32  C9  UNL     1      -9.131  69.185 114.194  1.00  0.00     0.113 C 
BRANCH  32  33
HETATM   33  C10 UNL     1     -10.301  68.240 114.354  1.00  0.00     0.019 C 
BRANCH  33  34
HETATM   34  C11 UNL     1      -9.876  66.799 114.386  1.00  0.00     0.002 C 
BRANCH  34  35
HETATM   35  C12 UNL     1      -8.472  66.577 114.848  1.00  0.00     0.002 C 
BRANCH  35  36
HETATM   36  C13 UNL     1      -8.159  65.109 114.630  1.00  0.00     0.027 C 
BRANCH  36  37
HETATM   37  C14 UNL     1      -6.940  64.920 113.756  1.00  0.00     0.229 C 
BRANCH  37  38
HETATM   38  N2  UNL     1      -5.911  65.851 114.206  1.00  0.00    -0.079 N 
ATOM     39  H23 UNL     1      -6.298  66.663 114.687  1.00  0.00     0.274 HD
ATOM     40  H22 UNL     1      -5.359  65.483 114.981  1.00  0.00     0.274 HD
ATOM     41  H21 UNL     1      -5.339  66.106 113.401  1.00  0.00     0.274 HD
ENDBRANCH  37  38
ENDBRANCH  36  37
ENDBRANCH  35  36
ENDBRANCH  34  35
ENDBRANCH  33  34
ENDBRANCH  32  33
ENDBRANCH  30  32
ENDBRANCH  29  30
ENDBRANCH   3  29
BRANCH   5  42
HETATM   42  O4  UNL     1      -8.523  69.743 120.513  1.00  0.00    -0.391 OA
ATOM     43  H4  UNL     1      -8.351  70.567 120.953  1.00  0.00     0.210 HD
ENDBRANCH   5  42
BRANCH   4  44
HETATM   44  O3  UNL     1      -8.972  67.752 118.827  1.00  0.00    -0.393 OA
ATOM     45  H3  UNL     1      -9.512  67.016 118.561  1.00  0.00     0.210 HD
ENDBRANCH   4  44
TORSDOF 16
ENDMDL
MODEL 4
REMARK VINA RESULT: -6.253809829      3.157      6.636
REMARK  16 active torsions:
REMARK  status: ('A' for Active; 'I' for Inactive)
REMARK    1  A    between atoms: C4_5  and  O2_6 
REMARK    2  A    between atoms: O2_6  and  C5_7 
REMARK    3  A    between atoms: C7_9  and  C8_10 
REMARK    4  A    between atoms: C8_10  and  N1_11 
REMARK    5  A    between atoms: N1_11  and  C9_13 
REMARK    6  A    between atoms: C9_13  and  C10_14 
REMARK    7  A    between atoms: C10_14  and  C11_15 
REMARK    8  A    between atoms: C11_15  and  C12_16 
REMARK    9  A    between atoms: C12_16  and  C13_17 
REMARK   10  A    between atoms: C13_17  and  C14_18 
REMARK   11  A    between atoms: C14_18  and  N2_19 
REMARK   12  A    between atoms: C15_23  and  O3_24 
REMARK   13  A    between atoms: C16_26  and  O4_27 
REMARK   14  A    between atoms: C17_29  and  N3_30 
REMARK   15  A    between atoms: C18_34  and  O5_35 
REMARK   16  A    between atoms: C23_41  and  N4_42 
ROOT
HETATM    1  C5  UNL     1     -11.195  73.785 117.776  1.00  0.00     0.158 C 
HETATM    2  C6  UNL     1     -11.058  74.255 119.218  1.00  0.00     0.043 C 
HETATM    3  C7  UNL     1      -9.778  73.896 119.875  1.00  0.00     0.037 C 
HETATM    4  C15 UNL     1      -9.467  72.418 119.801  1.00  0.00     0.154 C 
HETATM    5  C16 UNL     1     -10.335  71.724 118.777  1.00  0.00     0.180 C 
HETATM    6  C17 UNL     1     -10.482  72.524 117.499  1.00  0.00     0.243 C 
ENDROOT
BRANCH   1   7
HETATM    7  O2  UNL     1     -10.839  74.900 117.023  1.00  0.00    -0.351 OA
BRANCH   7   8
HETATM    8  C4  UNL     1     -11.594  75.109 115.920  1.00  0.00     0.296 C 
HETATM    9  O1  UNL     1     -12.865  74.446 116.067  1.00  0.00    -0.346 OA
HETATM   10  C2  UNL     1     -13.509  74.452 114.862  1.00  0.00     0.085 C 
HETATM   11  C1  UNL     1     -13.486  73.036 114.261  1.00  0.00     0.048 C 
HETATM   12  C3  UNL     1     -15.002  74.772 115.034  1.00  0.00     0.048 C 
HETATM   13  C23 UNL     1     -12.989  75.370 113.817  1.00  0.00     0.224 C 
HETATM   14  C22 UNL     1     -12.419  76.662 114.284  1.00  0.00     0.058 C 
HETATM   15  C18 UNL     1     -11.949  76.534 115.732  1.00  0.00     0.113 C 
HETATM   16  C21 UNL     1     -11.094  76.947 113.566  1.00  0.00     0.010 C 
HETATM   17  C19 UNL     1     -10.787  77.441 115.873  1.00  0.00     0.043 C 
HETATM   18  C20 UNL     1     -10.374  77.866 114.504  1.00  0.00     0.004 C 
BRANCH  13  19
HETATM   19  N4  UNL     1     -14.091  75.696 112.895  1.00  0.00    -0.072 N 
ATOM     20  H43 UNL     1     -14.513  74.866 112.478  1.00  0.00     0.274 HD
ATOM     21  H42 UNL     1     -14.918  76.043 113.380  1.00  0.00     0.274 HD
ATOM     22  H41 UNL     1     -13.741  76.352 112.196  1.00  0.00     0.274 HD
ENDBRANCH  13  19
BRANCH  15  23
HETATM   23  O5  UNL     1     -13.002  76.874 116.603  1.00  0.00    -0.384 OA
ATOM     24  H5  UNL     1     -13.340  76.086 117.012  1.00  0.00     0.210 HD
ENDBRANCH  15  23
ENDBRANCH   7   8
ENDBRANCH   1   7
BRANCH   6  25
HETATM   25  N3  UNL     1     -11.243  71.665 116.609  1.00  0.00    -0.070 N 
ATOM     26  H33 UNL     1     -12.058  72.149 116.232  1.00  0.00     0.274 HD
ATOM     27  H32 UNL     1     -10.743  71.495 115.737  1.00  0.00     0.274 HD
ATOM     28  H31 UNL     1     -11.506  70.792 117.066  1.00  0.00     0.274 HD
ENDBRANCH   6  25
BRANCH   3  29
HETATM   29  C8  UNL     1      -8.589  74.669 119.368  1.00  0.00     0.121 C 
BRANCH  29  30
HETATM   30  N1  UNL     1      -8.800  76.075 119.239  1.00  0.00    -0.421 N 
ATOM     31  H1  UNL     1      -9.110  76.506 118.368  1.00  0.00     0.153 HD
BRANCH  30  32
HETATM   32  C9  UNL     1      -8.543  76.833 120.423  1.00  0.00     0.113 C 
BRANCH  32  33
HETATM   33  C10 UNL     1      -9.675  77.814 120.629  1.00  0.00     0.019 C 
BRANCH  33  34
HETATM   34  C11 UNL     1     -10.382  78.155 119.348  1.00  0.00     0.002 C 
BRANCH  34  35
HETATM   35  C12 UNL     1     -11.869  78.240 119.464  1.00  0.00     0.002 C 
BRANCH  35  36
HETATM   36  C13 UNL     1     -12.280  77.326 120.604  1.00  0.00     0.027 C 
BRANCH  36  37
HETATM   37  C14 UNL     1     -13.213  78.020 121.569  1.00  0.00     0.229 C 
BRANCH  37  38
HETATM   38  N2  UNL     1     -12.715  77.797 122.922  1.00  0.00    -0.079 N 
ATOM     39  H23 UNL     1     -12.394  76.840 123.070  1.00  0.00     0.274 HD
ATOM     40  H22 UNL     1     -11.827  78.267 123.097  1.00  0.00     0.274 HD
ATOM     41  H21 UNL     1     -13.445  78.074 123.578  1.00  0.00     0.274 HD
ENDBRANCH  37  38
ENDBRANCH  36  37
ENDBRANCH  35  36
ENDBRANCH  34  35
ENDBRANCH  33  34
ENDBRANCH  32  33
ENDBRANCH  30  32
ENDBRANCH  29  30
ENDBRANCH   3  29
BRANCH   5  42
HETATM   42  O4  UNL     1     -11.572  71.434 119.295  1.00  0.00    -0.391 OA
ATOM     43  H4  UNL     1     -12.245  71.496 118.628  1.00  0.00     0.210 HD
ENDBRANCH   5  42
BRANCH   4  44
HETATM   44  O3  UNL     1      -9.624  71.822 121.044  1.00  0.00    -0.393 OA
ATOM     45  H3  UNL     1     -10.537  71.833 121.308  1.00  0.00     0.210 HD
ENDBRANCH   4  44
TORSDOF 16
ENDMDL
MODEL 5
REMARK VINA RESULT: -6.218153101      3.065      8.423
REMARK  16 active torsions:
REMARK  status: ('A' for Active; 'I' for Inactive)
REMARK    1  A    between atoms: C4_5  and  O2_6 
REMARK    2  A    between atoms: O2_6  and  C5_7 
REMARK    3  A    between atoms: C7_9  and  C8_10 
REMARK    4  A    between atoms: C8_10  and  N1_11 
REMARK    5  A    between atoms: N1_11  and  C9_13 
REMARK    6  A    between atoms: C9_13  and  C10_14 
REMARK    7  A    between atoms: C10_14  and  C11_15 
REMARK    8  A    between atoms: C11_15  and  C12_16 
REMARK    9  A    between atoms: C12_16  and  C13_17 
REMARK   10  A    between atoms: C13_17  and  C14_18 
REMARK   11  A    between atoms: C14_18  and  N2_19 
REMARK   12  A    between atoms: C15_23  and  O3_24 
REMARK   13  A    between atoms: C16_26  and  O4_27 
REMARK   14  A    between atoms: C17_29  and  N3_30 
REMARK   15  A    between atoms: C18_34  and  O5_35 
REMARK   16  A    between atoms: C23_41  and  N4_42 
ROOT
HETATM    1  C5  UNL     1     -12.529  76.149 120.524  1.00  0.00     0.158 C 
HETATM    2  C6  UNL     1     -13.944  76.249 121.078  1.00  0.00     0.043 C 
HETATM    3  C7  UNL     1     -14.607  77.559 120.871  1.00  0.00     0.037 C 
HETATM    4  C15 UNL     1     -13.789  78.725 121.380  1.00  0.00     0.154 C 
HETATM    5  C16 UNL     1     -12.357  78.318 121.642  1.00  0.00     0.180 C 
HETATM    6  C17 UNL     1     -11.796  77.428 120.554  1.00  0.00     0.243 C 
ENDROOT
BRANCH   1   7
HETATM    7  O2  UNL     1     -12.695  75.535 119.286  1.00  0.00    -0.351 OA
BRANCH   7   8
HETATM    8  C4  UNL     1     -11.815  74.542 119.019  1.00  0.00     0.296 C 
HETATM    9  O1  UNL     1     -10.827  74.472 120.067  1.00  0.00    -0.346 OA
HETATM   10  C2  UNL     1      -9.815  73.646 119.665  1.00  0.00     0.085 C 
HETATM   11  C1  UNL     1      -8.570  74.486 119.331  1.00  0.00     0.048 C 
HETATM   12  C3  UNL     1      -9.363  72.728 120.810  1.00  0.00     0.048 C 
HETATM   13  C23 UNL     1     -10.072  72.775 118.490  1.00  0.00     0.224 C 
HETATM   14  C22 UNL     1     -11.461  72.271 118.322  1.00  0.00     0.058 C 
HETATM   15  C18 UNL     1     -12.446  73.202 119.027  1.00  0.00     0.113 C 
HETATM   16  C21 UNL     1     -11.906  72.419 116.862  1.00  0.00     0.010 C 
HETATM   17  C19 UNL     1     -13.700  73.152 118.241  1.00  0.00     0.043 C 
HETATM   18  C20 UNL     1     -13.400  72.468 116.950  1.00  0.00     0.004 C 
BRANCH  13  19
HETATM   19  N4  UNL     1      -9.196  71.595 118.586  1.00  0.00    -0.072 N 
ATOM     20  H43 UNL     1      -8.374  71.763 119.166  1.00  0.00     0.274 HD
ATOM     21  H42 UNL     1      -9.607  70.846 119.143  1.00  0.00     0.274 HD
ATOM     22  H41 UNL     1      -8.956  71.295 117.641  1.00  0.00     0.274 HD
ENDBRANCH  13  19
BRANCH  15  23
HETATM   23  O5  UNL     1     -12.630  72.778 120.357  1.00  0.00    -0.384 OA
ATOM     24  H5  UNL     1     -13.062  71.932 120.363  1.00  0.00     0.210 HD
ENDBRANCH  15  23
ENDBRANCH   7   8
ENDBRANCH   1   7
BRANCH   6  25
HETATM   25  N3  UNL     1     -10.402  77.235 120.914  1.00  0.00    -0.070 N 
ATOM     26  H33 UNL     1     -10.000  78.082 121.317  1.00  0.00     0.274 HD
ATOM     27  H32 UNL     1     -10.308  76.617 121.721  1.00  0.00     0.274 HD
ATOM     28  H31 UNL     1      -9.853  76.901 120.122  1.00  0.00     0.274 HD
ENDBRANCH   6  25
BRANCH   3  29
HETATM   29  C8  UNL     1     -15.002  77.829 119.443  1.00  0.00     0.121 C 
BRANCH  29  30
HETATM   30  N1  UNL     1     -14.628  79.115 118.950  1.00  0.00    -0.421 N 
ATOM     31  H1  UNL     1     -13.682  79.485 119.043  1.00  0.00     0.153 HD
BRANCH  30  32
HETATM   32  C9  UNL     1     -15.681  79.846 118.317  1.00  0.00     0.113 C 
BRANCH  32  33
HETATM   33  C10 UNL     1     -16.568  80.446 119.386  1.00  0.00     0.019 C 
BRANCH  33  34
HETATM   34  C11 UNL     1     -16.625  81.945 119.311  1.00  0.00     0.002 C 
BRANCH  34  35
HETATM   35  C12 UNL     1     -15.751  82.648 120.299  1.00  0.00     0.002 C 
BRANCH  35  36
HETATM   36  C13 UNL     1     -16.194  82.205 121.680  1.00  0.00     0.027 C 
BRANCH  36  37
HETATM   37  C14 UNL     1     -15.411  82.901 122.770  1.00  0.00     0.229 C 
BRANCH  37  38
HETATM   38  N2  UNL     1     -14.297  82.039 123.148  1.00  0.00    -0.079 N 
ATOM     39  H23 UNL     1     -13.391  82.428 122.885  1.00  0.00     0.274 HD
ATOM     40  H22 UNL     1     -14.146  82.011 124.157  1.00  0.00     0.274 HD
ATOM     41  H21 UNL     1     -14.460  81.115 122.749  1.00  0.00     0.274 HD
ENDBRANCH  37  38
ENDBRANCH  36  37
ENDBRANCH  35  36
ENDBRANCH  34  35
ENDBRANCH  33  34
ENDBRANCH  32  33
ENDBRANCH  30  32
ENDBRANCH  29  30
ENDBRANCH   3  29
BRANCH   5  42
HETATM   42  O4  UNL     1     -12.235  77.705 122.863  1.00  0.00    -0.391 OA
ATOM     43  H4  UNL     1     -12.273  78.339 123.569  1.00  0.00     0.210 HD
ENDBRANCH   5  42
BRANCH   4  44
HETATM   44  O3  UNL     1     -14.355  79.254 122.531  1.00  0.00    -0.393 OA
ATOM     45  H3  UNL     1     -13.705  79.328 123.220  1.00  0.00     0.210 HD
ENDBRANCH   4  44
TORSDOF 16
ENDMDL
