MODEL 1
REMARK VINA RESULT: -6.940817335      0.000      0.000
REMARK  16 active torsions:
REMARK  status: ('A' for Active; 'I' for Inactive)
REMARK    1  A    between atoms: C2_2  and  C4_4 
REMARK    2  A    between atoms: C4_4  and  O1_5 
REMARK    3  A    between atoms: C4_4  and  C5_7 
REMARK    4  A    between atoms: C5_7  and  O2_8 
REMARK    5  A    between atoms: C5_7  and  C6_10 
REMARK    6  A    between atoms: C6_10  and  C7_11 
REMARK    7  A    between atoms: C6_10  and  C8_14 
REMARK    8  A    between atoms: C7_11  and  O3_12 
REMARK    9  A    between atoms: C8_14  and  C9_15 
REMARK   10  A    between atoms: C9_15  and  C10_16 
REMARK   11  A    between atoms: C10_16  and  O4_17 
REMARK   12  A    between atoms: C10_16  and  C11_19 
REMARK   13  A    between atoms: C11_19  and  C12_20 
REMARK   14  A    between atoms: C18_27  and  O6_28 
REMARK   15  A    between atoms: C19_30  and  O7_32 
REMARK   16  A    between atoms: C21_34  and  O8_35 
ROOT
HETATM    1  C12 UNL     1     -13.721  77.546 120.650  1.00  0.00     0.139 C 
HETATM    2  C13 UNL     1     -14.870  76.856 121.380  1.00  0.00     0.059 C 
HETATM    3  O5  UNL     1     -13.299  76.518 119.800  1.00  0.00    -0.355 OA
HETATM    4  C14 UNL     1     -12.012  76.300 119.567  1.00  0.00     0.093 C 
HETATM    5  C15 UNL     1     -11.859  74.757 119.666  1.00  0.00     0.049 C 
HETATM    6  C16 UNL     1     -11.766  76.564 118.075  1.00  0.00     0.043 C 
HETATM    7  C17 UNL     1     -10.350  76.377 117.669  1.00  0.00     0.038 C 
HETATM    8  C18 UNL     1      -9.500  77.346 118.464  1.00  0.00     0.155 C 
HETATM    9  C19 UNL     1      -9.600  76.959 119.902  1.00  0.00     0.114 C 
HETATM   10  C20 UNL     1      -8.772  75.697 120.118  1.00  0.00     0.052 C 
HETATM   11  C21 UNL     1     -10.970  76.846 120.454  1.00  0.00     0.128 C 
HETATM   12  C22 UNL     1     -11.340  78.201 121.081  1.00  0.00     0.126 C 
HETATM   13  C23 UNL     1     -12.713  77.883 121.648  1.00  0.00     0.168 C 
HETATM   14  O9  UNL     1     -12.809  77.943 122.839  1.00  0.00    -0.294 OA
ENDROOT
BRANCH   1  15
HETATM   15  C11 UNL     1     -14.112  78.672 119.809  1.00  0.00     0.050 C 
BRANCH  15  16
HETATM   16  C10 UNL     1     -15.124  78.634 118.769  1.00  0.00     0.043 C 
BRANCH  16  17
HETATM   17  C9  UNL     1     -16.519  79.137 119.090  1.00  0.00     0.065 C 
BRANCH  17  18
HETATM   18  C8  UNL     1     -16.764  80.384 118.310  1.00  0.00     0.016 C 
BRANCH  18  19
HETATM   19  C6  UNL     1     -17.124  81.615 119.096  1.00  0.00     0.041 C 
BRANCH  19  20
HETATM   20  C5  UNL     1     -16.220  82.013 120.173  1.00  0.00     0.157 C 
BRANCH  20  21
HETATM   21  C4  UNL     1     -16.624  82.082 121.576  1.00  0.00     0.175 C 
BRANCH  21  22
HETATM   22  C2  UNL     1     -15.619  81.966 122.637  1.00  0.00    -0.062 C 
HETATM   23  C1  UNL     1     -15.332  83.031 123.392  1.00  0.00     0.016 C 
HETATM   24  C3  UNL     1     -14.850  80.723 122.897  1.00  0.00     0.045 C 
ENDBRANCH  21  22
BRANCH  21  25
HETATM   25  O1  UNL     1     -17.146  83.420 121.751  1.00  0.00    -0.389 OA
ATOM     26  H1  UNL     1     -18.054  83.275 121.990  1.00  0.00     0.210 HD
ENDBRANCH  21  25
ENDBRANCH  20  21
BRANCH  20  27
HETATM   27  O2  UNL     1     -15.654  83.257 119.812  1.00  0.00    -0.392 OA
ATOM     28  H2  UNL     1     -16.340  83.915 119.834  1.00  0.00     0.210 HD
ENDBRANCH  20  27
ENDBRANCH  19  20
BRANCH  19  29
HETATM   29  C7  UNL     1     -17.447  82.748 118.108  1.00  0.00     0.171 C 
BRANCH  29  30
HETATM   30  O3  UNL     1     -18.256  83.634 118.875  1.00  0.00    -0.400 OA
ATOM     31  H3  UNL     1     -18.253  84.434 118.363  1.00  0.00     0.209 HD
ENDBRANCH  29  30
ENDBRANCH  19  29
ENDBRANCH  18  19
ENDBRANCH  17  18
ENDBRANCH  16  17
BRANCH  16  32
HETATM   32  O4  UNL     1     -15.159  77.501 117.955  1.00  0.00    -0.365 OA
ATOM     33  H4  UNL     1     -15.699  77.638 117.185  1.00  0.00     0.217 HD
ENDBRANCH  16  32
ENDBRANCH  15  16
ENDBRANCH   1  15
BRANCH  11  34
HETATM   34  O8  UNL     1     -10.878  75.979 121.575  1.00  0.00    -0.383 OA
ATOM     35  H8  UNL     1     -10.220  75.325 121.369  1.00  0.00     0.210 HD
ENDBRANCH  11  34
BRANCH   9  36
HETATM   36  O7  UNL     1      -8.924  77.963 120.636  1.00  0.00    -0.384 OA
ATOM     37  H7  UNL     1      -9.528  78.257 121.308  1.00  0.00     0.210 HD
ENDBRANCH   9  36
BRANCH   8  38
HETATM   38  O6  UNL     1      -8.152  77.240 118.090  1.00  0.00    -0.392 OA
ATOM     39  H6  UNL     1      -7.595  77.684 118.718  1.00  0.00     0.210 HD
ENDBRANCH   8  38
TORSDOF 16
ENDMDL
MODEL 2
REMARK VINA RESULT: -6.661379344      5.217     10.310
REMARK  16 active torsions:
REMARK  status: ('A' for Active; 'I' for Inactive)
REMARK    1  A    between atoms: C2_2  and  C4_4 
REMARK    2  A    between atoms: C4_4  and  O1_5 
REMARK    3  A    between atoms: C4_4  and  C5_7 
REMARK    4  A    between atoms: C5_7  and  O2_8 
REMARK    5  A    between atoms: C5_7  and  C6_10 
REMARK    6  A    between atoms: C6_10  and  C7_11 
REMARK    7  A    between atoms: C6_10  and  C8_14 
REMARK    8  A    between atoms: C7_11  and  O3_12 
REMARK    9  A    between atoms: C8_14  and  C9_15 
REMARK   10  A    between atoms: C9_15  and  C10_16 
REMARK   11  A    between atoms: C10_16  and  O4_17 
REMARK   12  A    between atoms: C10_16  and  C11_19 
REMARK   13  A    between atoms: C11_19  and  C12_20 
REMARK   14  A    between atoms: C18_27  and  O6_28 
REMARK   15  A    between atoms: C19_30  and  O7_32 
REMARK   16  A    between atoms: C21_34  and  O8_35 
ROOT
HETATM    1  C12 UNL     1     -11.972  72.767 119.086  1.00  0.00     0.139 C 
HETATM    2  C13 UNL     1     -13.282  72.277 119.695  1.00  0.00     0.059 C 
HETATM    3  O5  UNL     1     -11.554  73.673 120.067  1.00  0.00    -0.355 OA
HETATM    4  C14 UNL     1     -10.994  74.832 119.743  1.00  0.00     0.093 C 
HETATM    5  C15 UNL     1     -11.680  75.866 120.676  1.00  0.00     0.049 C 
HETATM    6  C16 UNL     1      -9.554  74.808 120.273  1.00  0.00     0.043 C 
HETATM    7  C17 UNL     1      -8.792  76.043 119.962  1.00  0.00     0.038 C 
HETATM    8  C18 UNL     1      -8.735  76.197 118.456  1.00  0.00     0.155 C 
HETATM    9  C19 UNL     1     -10.131  76.409 117.973  1.00  0.00     0.114 C 
HETATM   10  C20 UNL     1     -10.554  77.829 118.332  1.00  0.00     0.052 C 
HETATM   11  C21 UNL     1     -11.127  75.392 118.386  1.00  0.00     0.128 C 
HETATM   12  C22 UNL     1     -11.201  74.326 117.281  1.00  0.00     0.126 C 
HETATM   13  C23 UNL     1     -12.298  73.429 117.828  1.00  0.00     0.168 C 
HETATM   14  O9  UNL     1     -13.296  73.370 117.172  1.00  0.00    -0.294 OA
ENDROOT
BRANCH   1  15
HETATM   15  C11 UNL     1     -10.932  71.752 118.961  1.00  0.00     0.050 C 
BRANCH  15  16
HETATM   16  C10 UNL     1     -10.006  71.362 120.010  1.00  0.00     0.043 C 
BRANCH  16  17
HETATM   17  C9  UNL     1      -8.971  70.294 119.707  1.00  0.00     0.065 C 
BRANCH  17  18
HETATM   18  C8  UNL     1      -9.204  69.786 118.325  1.00  0.00     0.016 C 
BRANCH  18  19
HETATM   19  C6  UNL     1      -8.214  70.205 117.274  1.00  0.00     0.041 C 
BRANCH  19  20
HETATM   20  C5  UNL     1      -8.724  70.437 115.924  1.00  0.00     0.157 C 
BRANCH  20  21
HETATM   21  C4  UNL     1      -8.729  69.413 114.881  1.00  0.00     0.175 C 
BRANCH  21  22
HETATM   22  C2  UNL     1      -9.669  68.289 114.959  1.00  0.00    -0.062 C 
HETATM   23  C1  UNL     1      -9.360  67.224 115.704  1.00  0.00     0.016 C 
HETATM   24  C3  UNL     1     -10.947  68.244 114.205  1.00  0.00     0.045 C 
ENDBRANCH  21  22
BRANCH  21  25
HETATM   25  O1  UNL     1      -9.132  70.105 113.676  1.00  0.00    -0.389 OA
ATOM     26  H1  UNL     1      -9.222  71.007 113.959  1.00  0.00     0.210 HD
ENDBRANCH  21  25
ENDBRANCH  20  21
BRANCH  20  27
HETATM   27  O2  UNL     1      -8.071  71.584 115.416  1.00  0.00    -0.392 OA
ATOM     28  H2  UNL     1      -7.656  72.037 116.141  1.00  0.00     0.210 HD
ENDBRANCH  20  27
ENDBRANCH  19  20
BRANCH  19  29
HETATM   29  C7  UNL     1      -7.378  71.371 117.828  1.00  0.00     0.171 C 
BRANCH  29  30
HETATM   30  O3  UNL     1      -6.081  71.132 117.290  1.00  0.00    -0.400 OA
ATOM     31  H3  UNL     1      -6.202  70.350 116.765  1.00  0.00     0.209 HD
ENDBRANCH  29  30
ENDBRANCH  19  29
ENDBRANCH  18  19
ENDBRANCH  17  18
ENDBRANCH  16  17
BRANCH  16  32
HETATM   32  O4  UNL     1     -10.522  71.230 121.299  1.00  0.00    -0.365 OA
ATOM     33  H4  UNL     1     -10.477  72.048 121.782  1.00  0.00     0.217 HD
ENDBRANCH  16  32
ENDBRANCH  15  16
ENDBRANCH   1  15
BRANCH  11  34
HETATM   34  O8  UNL     1     -12.396  76.027 118.319  1.00  0.00    -0.383 OA
ATOM     35  H8  UNL     1     -12.408  76.543 117.521  1.00  0.00     0.210 HD
ENDBRANCH  11  34
BRANCH   9  36
HETATM   36  O7  UNL     1     -10.072  76.398 116.559  1.00  0.00    -0.384 OA
ATOM     37  H7  UNL     1      -9.198  76.690 116.325  1.00  0.00     0.210 HD
ENDBRANCH   9  36
BRANCH   8  38
HETATM   38  O6  UNL     1      -7.989  77.332 118.105  1.00  0.00    -0.392 OA
ATOM     39  H6  UNL     1      -7.067  77.195 118.288  1.00  0.00     0.210 HD
ENDBRANCH   8  38
TORSDOF 16
ENDMDL
MODEL 3
REMARK VINA RESULT: -6.475420638      0.896      2.547
REMARK  16 active torsions:
REMARK  status: ('A' for Active; 'I' for Inactive)
REMARK    1  A    between atoms: C2_2  and  C4_4 
REMARK    2  A    between atoms: C4_4  and  O1_5 
REMARK    3  A    between atoms: C4_4  and  C5_7 
REMARK    4  A    between atoms: C5_7  and  O2_8 
REMARK    5  A    between atoms: C5_7  and  C6_10 
REMARK    6  A    between atoms: C6_10  and  C7_11 
REMARK    7  A    between atoms: C6_10  and  C8_14 
REMARK    8  A    between atoms: C7_11  and  O3_12 
REMARK    9  A    between atoms: C8_14  and  C9_15 
REMARK   10  A    between atoms: C9_15  and  C10_16 
REMARK   11  A    between atoms: C10_16  and  O4_17 
REMARK   12  A    between atoms: C10_16  and  C11_19 
REMARK   13  A    between atoms: C11_19  and  C12_20 
REMARK   14  A    between atoms: C18_27  and  O6_28 
REMARK   15  A    between atoms: C19_30  and  O7_32 
REMARK   16  A    between atoms: C21_34  and  O8_35 
ROOT
HETATM    1  C12 UNL     1     -13.665  77.717 120.614  1.00  0.00     0.139 C 
HETATM    2  C13 UNL     1     -14.869  77.075 121.299  1.00  0.00     0.059 C 
HETATM    3  O5  UNL     1     -13.294  76.695 119.733  1.00  0.00    -0.355 OA
HETATM    4  C14 UNL     1     -12.018  76.404 119.513  1.00  0.00     0.093 C 
HETATM    5  C15 UNL     1     -11.965  74.852 119.558  1.00  0.00     0.049 C 
HETATM    6  C16 UNL     1     -11.729  76.705 118.036  1.00  0.00     0.043 C 
HETATM    7  C17 UNL     1     -10.320  76.443 117.647  1.00  0.00     0.038 C 
HETATM    8  C18 UNL     1      -9.426  77.327 118.490  1.00  0.00     0.155 C 
HETATM    9  C19 UNL     1      -9.576  76.895 119.911  1.00  0.00     0.114 C 
HETATM   10  C20 UNL     1      -8.834  75.577 120.094  1.00  0.00     0.052 C 
HETATM   11  C21 UNL     1     -10.961  76.851 120.437  1.00  0.00     0.128 C 
HETATM   12  C22 UNL     1     -11.256  78.203 121.107  1.00  0.00     0.126 C 
HETATM   13  C23 UNL     1     -12.657  77.953 121.640  1.00  0.00     0.168 C 
HETATM   14  O9  UNL     1     -12.770  77.976 122.830  1.00  0.00    -0.294 OA
ENDROOT
BRANCH   1  15
HETATM   15  C11 UNL     1     -13.969  78.895 119.809  1.00  0.00     0.050 C 
BRANCH  15  16
HETATM   16  C10 UNL     1     -15.169  79.085 119.015  1.00  0.00     0.043 C 
BRANCH  16  17
HETATM   17  C9  UNL     1     -16.271  79.974 119.561  1.00  0.00     0.065 C 
BRANCH  17  18
HETATM   18  C8  UNL     1     -15.736  80.728 120.732  1.00  0.00     0.016 C 
BRANCH  18  19
HETATM   19  C6  UNL     1     -16.003  82.207 120.764  1.00  0.00     0.041 C 
BRANCH  19  20
HETATM   20  C5  UNL     1     -17.303  82.666 120.280  1.00  0.00     0.157 C 
BRANCH  20  21
HETATM   21  C4  UNL     1     -17.493  83.325 118.990  1.00  0.00     0.175 C 
BRANCH  21  22
HETATM   22  C2  UNL     1     -18.317  82.692 117.955  1.00  0.00    -0.062 C 
HETATM   23  C1  UNL     1     -19.648  82.723 118.063  1.00  0.00     0.016 C 
HETATM   24  C3  UNL     1     -17.746  81.961 116.795  1.00  0.00     0.045 C 
ENDBRANCH  21  22
BRANCH  21  25
HETATM   25  O1  UNL     1     -18.210  84.545 119.292  1.00  0.00    -0.389 OA
ATOM     26  H1  UNL     1     -17.592  85.042 119.814  1.00  0.00     0.210 HD
ENDBRANCH  21  25
ENDBRANCH  20  21
BRANCH  20  27
HETATM   27  O2  UNL     1     -17.862  83.489 121.286  1.00  0.00    -0.392 OA
ATOM     28  H2  UNL     1     -17.152  83.863 121.794  1.00  0.00     0.210 HD
ENDBRANCH  20  27
ENDBRANCH  19  20
BRANCH  19  29
HETATM   29  C7  UNL     1     -15.639  82.739 122.161  1.00  0.00     0.171 C 
BRANCH  29  30
HETATM   30  O3  UNL     1     -16.356  81.877 123.039  1.00  0.00    -0.400 OA
ATOM     31  H3  UNL     1     -16.682  82.468 123.708  1.00  0.00     0.209 HD
ENDBRANCH  29  30
ENDBRANCH  19  29
ENDBRANCH  18  19
ENDBRANCH  17  18
ENDBRANCH  16  17
BRANCH  16  32
HETATM   32  O4  UNL     1     -15.686  77.965 118.362  1.00  0.00    -0.365 OA
ATOM     33  H4  UNL     1     -14.996  77.402 118.030  1.00  0.00     0.217 HD
ENDBRANCH  16  32
ENDBRANCH  15  16
ENDBRANCH   1  15
BRANCH  11  34
HETATM   34  O8  UNL     1     -10.945  75.940 121.526  1.00  0.00    -0.383 OA
ATOM     35  H8  UNL     1     -10.836  76.453 122.318  1.00  0.00     0.210 HD
ENDBRANCH  11  34
BRANCH   9  36
HETATM   36  O7  UNL     1      -8.852  77.827 120.692  1.00  0.00    -0.384 OA
ATOM     37  H7  UNL     1      -7.957  77.512 120.725  1.00  0.00     0.210 HD
ENDBRANCH   9  36
BRANCH   8  38
HETATM   38  O6  UNL     1      -8.080  77.148 118.134  1.00  0.00    -0.392 OA
ATOM     39  H6  UNL     1      -7.599  77.961 118.231  1.00  0.00     0.210 HD
ENDBRANCH   8  38
TORSDOF 16
ENDMDL
MODEL 4
REMARK VINA RESULT: -6.432249715      4.713      9.340
REMARK  16 active torsions:
REMARK  status: ('A' for Active; 'I' for Inactive)
REMARK    1  A    between atoms: C2_2  and  C4_4 
REMARK    2  A    between atoms: C4_4  and  O1_5 
REMARK    3  A    between atoms: C4_4  and  C5_7 
REMARK    4  A    between atoms: C5_7  and  O2_8 
REMARK    5  A    between atoms: C5_7  and  C6_10 
REMARK    6  A    between atoms: C6_10  and  C7_11 
REMARK    7  A    between atoms: C6_10  and  C8_14 
REMARK    8  A    between atoms: C7_11  and  O3_12 
REMARK    9  A    between atoms: C8_14  and  C9_15 
REMARK   10  A    between atoms: C9_15  and  C10_16 
REMARK   11  A    between atoms: C10_16  and  O4_17 
REMARK   12  A    between atoms: C10_16  and  C11_19 
REMARK   13  A    between atoms: C11_19  and  C12_20 
REMARK   14  A    between atoms: C18_27  and  O6_28 
REMARK   15  A    between atoms: C19_30  and  O7_32 
REMARK   16  A    between atoms: C21_34  and  O8_35 
ROOT
HETATM    1  C12 UNL     1     -11.425  76.525 117.680  1.00  0.00     0.139 C 
HETATM    2  C13 UNL     1     -11.548  77.831 116.899  1.00  0.00     0.059 C 
HETATM    3  O5  UNL     1     -12.276  75.699 116.938  1.00  0.00    -0.355 OA
HETATM    4  C14 UNL     1     -13.084  74.830 117.532  1.00  0.00     0.093 C 
HETATM    5  C15 UNL     1     -14.439  74.996 116.791  1.00  0.00     0.049 C 
HETATM    6  C16 UNL     1     -12.639  73.425 117.102  1.00  0.00     0.043 C 
HETATM    7  C17 UNL     1     -13.448  72.340 117.712  1.00  0.00     0.038 C 
HETATM    8  C18 UNL     1     -13.310  72.436 119.217  1.00  0.00     0.155 C 
HETATM    9  C19 UNL     1     -13.920  73.730 119.643  1.00  0.00     0.114 C 
HETATM   10  C20 UNL     1     -15.436  73.597 119.560  1.00  0.00     0.052 C 
HETATM   11  C21 UNL     1     -13.413  74.946 118.964  1.00  0.00     0.128 C 
HETATM   12  C22 UNL     1     -12.270  75.523 119.816  1.00  0.00     0.126 C 
HETATM   13  C23 UNL     1     -11.932  76.774 119.024  1.00  0.00     0.168 C 
HETATM   14  O9  UNL     1     -12.122  77.811 119.588  1.00  0.00    -0.294 OA
ENDROOT
BRANCH   1  15
HETATM   15  C11 UNL     1     -10.100  75.915 117.658  1.00  0.00     0.050 C 
BRANCH  15  16
HETATM   16  C10 UNL     1      -9.057  76.132 118.644  1.00  0.00     0.043 C 
BRANCH  16  17
HETATM   17  C9  UNL     1      -8.766  75.034 119.650  1.00  0.00     0.065 C 
BRANCH  17  18
HETATM   18  C8  UNL     1      -8.531  73.761 118.909  1.00  0.00     0.016 C 
BRANCH  18  19
HETATM   19  C6  UNL     1      -9.468  72.623 119.204  1.00  0.00     0.041 C 
BRANCH  19  20
HETATM   20  C5  UNL     1      -9.500  71.514 118.253  1.00  0.00     0.157 C 
BRANCH  20  21
HETATM   21  C4  UNL     1      -8.620  70.351 118.346  1.00  0.00     0.175 C 
BRANCH  21  22
HETATM   22  C2  UNL     1      -9.105  69.027 117.941  1.00  0.00    -0.062 C 
HETATM   23  C1  UNL     1      -9.569  68.185 118.868  1.00  0.00     0.016 C 
HETATM   24  C3  UNL     1      -9.064  68.540 116.540  1.00  0.00     0.045 C 
ENDBRANCH  21  22
BRANCH  21  25
HETATM   25  O1  UNL     1      -7.546  70.616 117.414  1.00  0.00    -0.389 OA
ATOM     26  H1  UNL     1      -7.234  71.475 117.674  1.00  0.00     0.210 HD
ENDBRANCH  21  25
ENDBRANCH  20  21
BRANCH  20  27
HETATM   27  O2  UNL     1      -9.372  72.064 116.956  1.00  0.00    -0.392 OA
ATOM     28  H2  UNL     1      -9.945  72.820 116.895  1.00  0.00     0.210 HD
ENDBRANCH  20  27
ENDBRANCH  19  20
BRANCH  19  29
HETATM   29  C7  UNL     1      -9.257  72.182 120.662  1.00  0.00     0.171 C 
BRANCH  29  30
HETATM   30  O3  UNL     1     -10.448  71.462 120.965  1.00  0.00    -0.400 OA
ATOM     31  H3  UNL     1     -10.708  71.812 121.809  1.00  0.00     0.209 HD
ENDBRANCH  29  30
ENDBRANCH  19  29
ENDBRANCH  18  19
ENDBRANCH  17  18
ENDBRANCH  16  17
BRANCH  16  32
HETATM   32  O4  UNL     1      -8.982  77.398 119.225  1.00  0.00    -0.365 OA
ATOM     33  H4  UNL     1      -9.485  77.445 120.030  1.00  0.00     0.217 HD
ENDBRANCH  16  32
ENDBRANCH  15  16
ENDBRANCH   1  15
BRANCH  11  34
HETATM   34  O8  UNL     1     -14.437  75.923 119.080  1.00  0.00    -0.383 OA
ATOM     35  H8  UNL     1     -14.280  76.397 119.888  1.00  0.00     0.210 HD
ENDBRANCH  11  34
BRANCH   9  36
HETATM   36  O7  UNL     1     -13.646  73.867 121.024  1.00  0.00    -0.384 OA
ATOM     37  H7  UNL     1     -14.299  73.349 121.480  1.00  0.00     0.210 HD
ENDBRANCH   9  36
BRANCH   8  38
HETATM   38  O6  UNL     1     -14.026  71.405 119.844  1.00  0.00    -0.392 OA
ATOM     39  H6  UNL     1     -13.707  70.556 119.558  1.00  0.00     0.210 HD
ENDBRANCH   8  38
TORSDOF 16
ENDMDL
MODEL 5
REMARK VINA RESULT: -6.412643407      5.038      9.075
REMARK  16 active torsions:
REMARK  status: ('A' for Active; 'I' for Inactive)
REMARK    1  A    between atoms: C2_2  and  C4_4 
REMARK    2  A    between atoms: C4_4  and  O1_5 
REMARK    3  A    between atoms: C4_4  and  C5_7 
REMARK    4  A    between atoms: C5_7  and  O2_8 
REMARK    5  A    between atoms: C5_7  and  C6_10 
REMARK    6  A    between atoms: C6_10  and  C7_11 
REMARK    7  A    between atoms: C6_10  and  C8_14 
REMARK    8  A    between atoms: C7_11  and  O3_12 
REMARK    9  A    between atoms: C8_14  and  C9_15 
REMARK   10  A    between atoms: C9_15  and  C10_16 
REMARK   11  A    between atoms: C10_16  and  O4_17 
REMARK   12  A    between atoms: C10_16  and  C11_19 
REMARK   13  A    between atoms: C11_19  and  C12_20 
REMARK   14  A    between atoms: C18_27  and  O6_28 
REMARK   15  A    between atoms: C19_30  and  O7_32 
REMARK   16  A    between atoms: C21_34  and  O8_35 
ROOT
HETATM    1  C12 UNL     1     -14.010  74.546 118.447  1.00  0.00     0.139 C 
HETATM    2  C13 UNL     1     -13.961  76.033 118.790  1.00  0.00     0.059 C 
HETATM    3  O5  UNL     1     -15.349  74.413 118.064  1.00  0.00    -0.355 OA
HETATM    4  C14 UNL     1     -16.062  73.348 118.407  1.00  0.00     0.093 C 
HETATM    5  C15 UNL     1     -17.424  73.932 118.875  1.00  0.00     0.049 C 
HETATM    6  C16 UNL     1     -16.440  72.614 117.114  1.00  0.00     0.043 C 
HETATM    7  C17 UNL     1     -17.231  71.379 117.348  1.00  0.00     0.038 C 
HETATM    8  C18 UNL     1     -16.398  70.439 118.194  1.00  0.00     0.155 C 
HETATM    9  C19 UNL     1     -16.196  71.090 119.523  1.00  0.00     0.114 C 
HETATM   10  C20 UNL     1     -17.503  71.004 120.303  1.00  0.00     0.052 C 
HETATM   11  C21 UNL     1     -15.631  72.459 119.500  1.00  0.00     0.128 C 
HETATM   12  C22 UNL     1     -14.103  72.342 119.636  1.00  0.00     0.126 C 
HETATM   13  C23 UNL     1     -13.710  73.809 119.669  1.00  0.00     0.168 C 
HETATM   14  O9  UNL     1     -13.207  74.189 120.685  1.00  0.00    -0.294 OA
ENDROOT
BRANCH   1  15
HETATM   15  C11 UNL     1     -13.191  74.149 117.308  1.00  0.00     0.050 C 
BRANCH  15  16
HETATM   16  C10 UNL     1     -11.752  73.954 117.332  1.00  0.00     0.043 C 
BRANCH  16  17
HETATM   17  C9  UNL     1     -10.854  75.172 117.446  1.00  0.00     0.065 C 
BRANCH  17  18
HETATM   18  C8  UNL     1      -9.709  74.835 118.340  1.00  0.00     0.016 C 
BRANCH  18  19
HETATM   19  C6  UNL     1     -10.048  74.399 119.739  1.00  0.00     0.041 C 
BRANCH  19  20
HETATM   20  C5  UNL     1      -9.455  73.152 120.217  1.00  0.00     0.157 C 
BRANCH  20  21
HETATM   21  C4  UNL     1      -9.975  71.831 119.872  1.00  0.00     0.175 C 
BRANCH  21  22
HETATM   22  C2  UNL     1      -9.165  70.907 119.072  1.00  0.00    -0.062 C 
HETATM   23  C1  UNL     1      -8.270  71.395 118.208  1.00  0.00     0.016 C 
HETATM   24  C3  UNL     1      -9.318  69.432 119.130  1.00  0.00     0.045 C 
ENDBRANCH  21  22
BRANCH  21  25
HETATM   25  O1  UNL     1     -10.121  71.142 121.136  1.00  0.00    -0.389 OA
ATOM     26  H1  UNL     1      -9.235  70.870 121.343  1.00  0.00     0.210 HD
ENDBRANCH  21  25
ENDBRANCH  20  21
BRANCH  20  27
HETATM   27  O2  UNL     1      -9.364  73.240 121.626  1.00  0.00    -0.392 OA
ATOM     28  H2  UNL     1      -9.150  74.137 121.856  1.00  0.00     0.210 HD
ENDBRANCH  20  27
ENDBRANCH  19  20
BRANCH  19  29
HETATM   29  C7  UNL     1      -9.833  75.591 120.687  1.00  0.00     0.171 C 
BRANCH  29  30
HETATM   30  O3  UNL     1     -11.033  75.624 121.453  1.00  0.00    -0.400 OA
ATOM     31  H3  UNL     1     -11.623  75.063 120.962  1.00  0.00     0.209 HD
ENDBRANCH  29  30
ENDBRANCH  19  29
ENDBRANCH  18  19
ENDBRANCH  17  18
ENDBRANCH  16  17
BRANCH  16  32
HETATM   32  O4  UNL     1     -11.223  73.002 116.459  1.00  0.00    -0.365 OA
ATOM     33  H4  UNL     1     -11.622  73.055 115.598  1.00  0.00     0.217 HD
ENDBRANCH  16  32
ENDBRANCH  15  16
ENDBRANCH   1  15
BRANCH  11  34
HETATM   34  O8  UNL     1     -16.024  73.073 120.719  1.00  0.00    -0.383 OA
ATOM     35  H8  UNL     1     -16.535  72.433 121.202  1.00  0.00     0.210 HD
ENDBRANCH  11  34
BRANCH   9  36
HETATM   36  O7  UNL     1     -15.295  70.266 120.239  1.00  0.00    -0.384 OA
ATOM     37  H7  UNL     1     -14.834  69.746 119.592  1.00  0.00     0.210 HD
ENDBRANCH   9  36
BRANCH   8  38
HETATM   38  O6  UNL     1     -17.084  69.235 118.413  1.00  0.00    -0.392 OA
ATOM     39  H6  UNL     1     -17.034  68.983 119.327  1.00  0.00     0.210 HD
ENDBRANCH   8  38
TORSDOF 16
ENDMDL
