MODEL 1
REMARK VINA RESULT: -6.806590302      0.000      0.000
REMARK  15 active torsions:
REMARK  status: ('A' for Active; 'I' for Inactive)
REMARK    1  A    between atoms: C2_2  and  C3_3 
REMARK    2  A    between atoms: C2_2  and  C4_6 
REMARK    3  A    between atoms: C3_3  and  O1_4 
REMARK    4  A    between atoms: C8_10  and  O2_11 
REMARK    5  A    between atoms: C8_10  and  C9_13 
REMARK    6  A    between atoms: C9_13  and  O3_14 
REMARK    7  A    between atoms: C11_17  and  C13_19 
REMARK    8  A    between atoms: C13_19  and  O4_20 
REMARK    9  A    between atoms: C13_19  and  C14_22 
REMARK   10  A    between atoms: C15_25  and  C16_26 
REMARK   11  A    between atoms: C16_26  and  O5_27 
REMARK   12  A    between atoms: C16_26  and  O6_29 
REMARK   13  A    between atoms: C18_33  and  O8_34 
REMARK   14  A    between atoms: O8_34  and  C19_35 
REMARK   15  A    between atoms: C19_35  and  C20_36 
ROOT
HETATM    1  C13 UNL     1     -10.520  73.795 120.230  1.00  0.00     0.177 C 
ENDROOT
BRANCH   1   2
HETATM    2  C11 UNL     1     -10.312  75.105 119.563  1.00  0.00    -0.006 C 
HETATM    3  C6  UNL     1     -11.487  76.009 119.958  1.00  0.00     0.005 C 
HETATM    4  C5  UNL     1     -11.581  76.422 121.381  1.00  0.00     0.015 C 
HETATM    5  C7  UNL     1     -11.003  77.424 119.665  1.00  0.00     0.035 C 
HETATM    6  C4  UNL     1     -11.748  77.846 120.914  1.00  0.00     0.023 C 
HETATM    7  C8  UNL     1      -9.527  77.351 119.732  1.00  0.00     0.084 C 
HETATM    8  C10 UNL     1      -9.150  75.912 120.031  1.00  0.00     0.052 C 
HETATM    9  C12 UNL     1     -10.341  75.029 118.077  1.00  0.00     0.019 C 
BRANCH   6  10
HETATM   10  C2  UNL     1     -13.152  78.204 120.647  1.00  0.00    -0.061 C 
HETATM   11  C1  UNL     1     -13.641  78.467 119.449  1.00  0.00     0.017 C 
BRANCH  10  12
HETATM   12  C3  UNL     1     -14.098  78.269 121.816  1.00  0.00     0.198 C 
BRANCH  12  13
HETATM   13  O1  UNL     1     -13.459  78.879 122.911  1.00  0.00    -0.397 OA
ATOM     14  H1  UNL     1     -12.879  79.565 122.603  1.00  0.00     0.209 HD
ENDBRANCH  12  13
ENDBRANCH  10  12
ENDBRANCH   6  10
BRANCH   7  15
HETATM   15  O2  UNL     1      -9.046  77.740 118.456  1.00  0.00    -0.387 OA
ATOM     16  H2  UNL     1      -9.235  78.667 118.368  1.00  0.00     0.210 HD
ENDBRANCH   7  15
BRANCH   7  17
HETATM   17  C9  UNL     1      -8.854  78.263 120.702  1.00  0.00     0.202 C 
BRANCH  17  18
HETATM   18  O3  UNL     1      -7.820  77.632 121.371  1.00  0.00    -0.398 OA
ATOM     19  H3  UNL     1      -7.931  77.674 122.313  1.00  0.00     0.209 HD
ENDBRANCH  17  18
ENDBRANCH   7  17
ENDBRANCH   1   2
BRANCH   1  20
HETATM   20  O4  UNL     1      -9.647  73.715 121.374  1.00  0.00    -0.389 OA
ATOM     21  H4  UNL     1     -10.149  73.410 122.120  1.00  0.00     0.210 HD
ENDBRANCH   1  20
BRANCH   1  22
HETATM   22  C14 UNL     1     -10.298  72.552 119.461  1.00  0.00     0.072 C 
HETATM   23  N1  UNL     1      -8.933  72.277 119.110  1.00  0.00    -0.355 N 
HETATM   24  C15 UNL     1      -8.628  71.831 117.805  1.00  0.00     0.086 C 
ATOM     25  H1  UNL     1      -8.190  72.404 119.797  1.00  0.00     0.165 HD
HETATM   26  C17 UNL     1      -9.582  71.243 117.049  1.00  0.00     0.168 C 
HETATM   27  O7  UNL     1     -10.834  71.116 117.626  1.00  0.00    -0.325 OA
HETATM   28  C18 UNL     1     -11.304  72.220 118.402  1.00  0.00     0.315 C 
BRANCH  24  29
HETATM   29  C16 UNL     1      -7.280  71.975 117.205  1.00  0.00     0.307 C 
BRANCH  29  30
HETATM   30  O5  UNL     1      -7.294  71.845 115.840  1.00  0.00    -0.366 OA
ATOM     31  H5  UNL     1      -6.562  72.286 115.424  1.00  0.00     0.213 HD
ENDBRANCH  29  30
BRANCH  29  32
HETATM   32  O6  UNL     1      -6.454  70.957 117.718  1.00  0.00    -0.366 OA
ATOM     33  H6  UNL     1      -5.753  70.799 117.097  1.00  0.00     0.213 HD
ENDBRANCH  29  32
ENDBRANCH  24  29
BRANCH  28  34
HETATM   34  O8  UNL     1     -12.469  71.779 119.084  1.00  0.00    -0.352 OA
BRANCH  34  35
HETATM   35  C19 UNL     1     -13.632  72.253 118.535  1.00  0.00     0.199 C 
BRANCH  35  36
HETATM   36  C20 UNL     1     -14.302  73.094 119.567  1.00  0.00     0.001 C 
HETATM   37  C21 UNL     1     -14.624  74.340 119.276  1.00  0.00    -0.089 C 
HETATM   38  C22 UNL     1     -15.294  75.197 120.291  1.00  0.00     0.042 C 
HETATM   39  C23 UNL     1     -14.321  74.896 117.935  1.00  0.00     0.042 C 
ENDBRANCH  35  36
ENDBRANCH  34  35
ENDBRANCH  28  34
ENDBRANCH   1  22
TORSDOF 15
ENDMDL
MODEL 2
REMARK VINA RESULT: -6.544523920      2.165      4.421
REMARK  15 active torsions:
REMARK  status: ('A' for Active; 'I' for Inactive)
REMARK    1  A    between atoms: C2_2  and  C3_3 
REMARK    2  A    between atoms: C2_2  and  C4_6 
REMARK    3  A    between atoms: C3_3  and  O1_4 
REMARK    4  A    between atoms: C8_10  and  O2_11 
REMARK    5  A    between atoms: C8_10  and  C9_13 
REMARK    6  A    between atoms: C9_13  and  O3_14 
REMARK    7  A    between atoms: C11_17  and  C13_19 
REMARK    8  A    between atoms: C13_19  and  O4_20 
REMARK    9  A    between atoms: C13_19  and  C14_22 
REMARK   10  A    between atoms: C15_25  and  C16_26 
REMARK   11  A    between atoms: C16_26  and  O5_27 
REMARK   12  A    between atoms: C16_26  and  O6_29 
REMARK   13  A    between atoms: C18_33  and  O8_34 
REMARK   14  A    between atoms: O8_34  and  C19_35 
REMARK   15  A    between atoms: C19_35  and  C20_36 
ROOT
HETATM    1  C13 UNL     1     -10.700  75.948 120.852  1.00  0.00     0.177 C 
ENDROOT
BRANCH   1   2
HETATM    2  C11 UNL     1     -11.751  76.997 120.887  1.00  0.00    -0.006 C 
HETATM    3  C6  UNL     1     -13.011  76.401 120.246  1.00  0.00     0.005 C 
HETATM    4  C5  UNL     1     -13.685  75.293 120.971  1.00  0.00     0.015 C 
HETATM    5  C7  UNL     1     -14.149  77.295 120.724  1.00  0.00     0.035 C 
HETATM    6  C4  UNL     1     -14.987  76.037 120.812  1.00  0.00     0.023 C 
HETATM    7  C8  UNL     1     -13.666  77.895 121.987  1.00  0.00     0.084 C 
HETATM    8  C10 UNL     1     -12.260  77.384 122.233  1.00  0.00     0.052 C 
HETATM    9  C12 UNL     1     -11.418  78.202 120.079  1.00  0.00     0.019 C 
BRANCH   6  10
HETATM   10  C2  UNL     1     -15.680  75.723 119.550  1.00  0.00    -0.061 C 
HETATM   11  C1  UNL     1     -16.200  76.626 118.739  1.00  0.00     0.017 C 
BRANCH  10  12
HETATM   12  C3  UNL     1     -15.800  74.277 119.153  1.00  0.00     0.198 C 
BRANCH  12  13
HETATM   13  O1  UNL     1     -16.660  73.609 120.043  1.00  0.00    -0.397 OA
ATOM     14  H1  UNL     1     -17.422  73.289 119.574  1.00  0.00     0.209 HD
ENDBRANCH  12  13
ENDBRANCH  10  12
ENDBRANCH   6  10
BRANCH   7  15
HETATM   15  O2  UNL     1     -13.662  79.300 121.790  1.00  0.00    -0.387 OA
ATOM     16  H2  UNL     1     -12.957  79.645 122.324  1.00  0.00     0.210 HD
ENDBRANCH   7  15
BRANCH   7  17
HETATM   17  C9  UNL     1     -14.507  77.670 123.199  1.00  0.00     0.202 C 
BRANCH  17  18
HETATM   18  O3  UNL     1     -14.409  78.719 124.096  1.00  0.00    -0.398 OA
ATOM     19  H3  UNL     1     -13.666  79.278 123.906  1.00  0.00     0.209 HD
ENDBRANCH  17  18
ENDBRANCH   7  17
ENDBRANCH   1   2
BRANCH   1  20
HETATM   20  O4  UNL     1      -9.408  76.588 120.865  1.00  0.00    -0.389 OA
ATOM     21  H4  UNL     1      -8.742  75.926 121.005  1.00  0.00     0.210 HD
ENDBRANCH   1  20
BRANCH   1  22
HETATM   22  C14 UNL     1     -10.670  74.996 119.722  1.00  0.00     0.072 C 
HETATM   23  N1  UNL     1     -10.802  73.611 120.076  1.00  0.00    -0.355 N 
HETATM   24  C15 UNL     1      -9.962  72.654 119.465  1.00  0.00     0.086 C 
ATOM     25  H1  UNL     1     -11.497  73.320 120.763  1.00  0.00     0.165 HD
HETATM   26  C17 UNL     1      -9.376  72.926 118.277  1.00  0.00     0.168 C 
HETATM   27  O7  UNL     1      -9.651  74.166 117.725  1.00  0.00    -0.325 OA
HETATM   28  C18 UNL     1      -9.696  75.279 118.620  1.00  0.00     0.315 C 
BRANCH  24  29
HETATM   29  C16 UNL     1      -9.681  71.331 120.073  1.00  0.00     0.307 C 
BRANCH  29  30
HETATM   30  O5  UNL     1     -10.127  70.291 119.298  1.00  0.00    -0.366 OA
ATOM     31  H5  UNL     1     -10.525  69.598 119.812  1.00  0.00     0.213 HD
ENDBRANCH  29  30
BRANCH  29  32
HETATM   32  O6  UNL     1     -10.355  71.258 121.306  1.00  0.00    -0.366 OA
ATOM     33  H6  UNL     1      -9.727  71.421 122.000  1.00  0.00     0.213 HD
ENDBRANCH  29  32
ENDBRANCH  24  29
BRANCH  28  34
HETATM   34  O8  UNL     1     -10.225  76.375 117.890  1.00  0.00    -0.352 OA
BRANCH  34  35
HETATM   35  C19 UNL     1     -11.231  76.021 117.030  1.00  0.00     0.199 C 
BRANCH  35  36
HETATM   36  C20 UNL     1     -11.209  76.988 115.896  1.00  0.00     0.001 C 
HETATM   37  C21 UNL     1     -12.159  77.900 115.808  1.00  0.00    -0.089 C 
HETATM   38  C22 UNL     1     -12.157  78.876 114.684  1.00  0.00     0.042 C 
HETATM   39  C23 UNL     1     -13.234  77.961 116.827  1.00  0.00     0.042 C 
ENDBRANCH  35  36
ENDBRANCH  34  35
ENDBRANCH  28  34
ENDBRANCH   1  22
TORSDOF 15
ENDMDL
MODEL 3
REMARK VINA RESULT: -6.443477026      2.368      6.225
REMARK  15 active torsions:
REMARK  status: ('A' for Active; 'I' for Inactive)
REMARK    1  A    between atoms: C2_2  and  C3_3 
REMARK    2  A    between atoms: C2_2  and  C4_6 
REMARK    3  A    between atoms: C3_3  and  O1_4 
REMARK    4  A    between atoms: C8_10  and  O2_11 
REMARK    5  A    between atoms: C8_10  and  C9_13 
REMARK    6  A    between atoms: C9_13  and  O3_14 
REMARK    7  A    between atoms: C11_17  and  C13_19 
REMARK    8  A    between atoms: C13_19  and  O4_20 
REMARK    9  A    between atoms: C13_19  and  C14_22 
REMARK   10  A    between atoms: C15_25  and  C16_26 
REMARK   11  A    between atoms: C16_26  and  O5_27 
REMARK   12  A    between atoms: C16_26  and  O6_29 
REMARK   13  A    between atoms: C18_33  and  O8_34 
REMARK   14  A    between atoms: O8_34  and  C19_35 
REMARK   15  A    between atoms: C19_35  and  C20_36 
ROOT
HETATM    1  C13 UNL     1     -13.462  74.268 119.859  1.00  0.00     0.177 C 
ENDROOT
BRANCH   1   2
HETATM    2  C11 UNL     1     -12.330  73.717 119.073  1.00  0.00    -0.006 C 
HETATM    3  C6  UNL     1     -11.154  74.690 119.223  1.00  0.00     0.005 C 
HETATM    4  C5  UNL     1     -10.538  74.811 120.569  1.00  0.00     0.015 C 
HETATM    5  C7  UNL     1      -9.927  73.879 118.825  1.00  0.00     0.035 C 
HETATM    6  C4  UNL     1      -9.189  74.616 119.922  1.00  0.00     0.023 C 
HETATM    7  C8  UNL     1     -10.298  72.468 119.066  1.00  0.00     0.084 C 
HETATM    8  C10 UNL     1     -11.728  72.448 119.572  1.00  0.00     0.052 C 
HETATM    9  C12 UNL     1     -12.603  73.635 117.611  1.00  0.00     0.019 C 
BRANCH   6  10
HETATM   10  C2  UNL     1      -8.585  75.877 119.458  1.00  0.00    -0.061 C 
HETATM   11  C1  UNL     1      -8.641  76.318 118.215  1.00  0.00     0.017 C 
BRANCH  10  12
HETATM   12  C3  UNL     1      -7.859  76.724 120.467  1.00  0.00     0.198 C 
BRANCH  12  13
HETATM   13  O1  UNL     1      -8.682  77.790 120.873  1.00  0.00    -0.397 OA
ATOM     14  H1  UNL     1      -8.221  78.614 120.759  1.00  0.00     0.209 HD
ENDBRANCH  12  13
ENDBRANCH  10  12
ENDBRANCH   6  10
BRANCH   7  15
HETATM   15  O2  UNL     1     -10.199  71.806 117.816  1.00  0.00    -0.387 OA
ATOM     16  H2  UNL     1     -10.755  72.284 117.213  1.00  0.00     0.210 HD
ENDBRANCH   7  15
BRANCH   7  17
HETATM   17  C9  UNL     1      -9.422  71.694 119.994  1.00  0.00     0.202 C 
BRANCH  17  18
HETATM   18  O3  UNL     1     -10.114  71.251 121.107  1.00  0.00    -0.398 OA
ATOM     19  H3  UNL     1      -9.577  70.696 121.659  1.00  0.00     0.209 HD
ENDBRANCH  17  18
ENDBRANCH   7  17
ENDBRANCH   1   2
BRANCH   1  20
HETATM   20  O4  UNL     1     -14.678  73.621 119.434  1.00  0.00    -0.389 OA
ATOM     21  H4  UNL     1     -14.659  72.716 119.722  1.00  0.00     0.210 HD
ENDBRANCH   1  20
BRANCH   1  22
HETATM   22  C14 UNL     1     -13.735  75.720 119.809  1.00  0.00     0.072 C 
HETATM   23  N1  UNL     1     -13.273  76.476 120.939  1.00  0.00    -0.355 N 
HETATM   24  C15 UNL     1     -14.114  77.459 121.508  1.00  0.00     0.086 C 
ATOM     25  H1  UNL     1     -12.346  76.305 121.328  1.00  0.00     0.165 HD
HETATM   26  C17 UNL     1     -15.112  78.003 120.776  1.00  0.00     0.168 C 
HETATM   27  O7  UNL     1     -15.244  77.544 119.477  1.00  0.00    -0.325 OA
HETATM   28  C18 UNL     1     -15.064  76.143 119.263  1.00  0.00     0.315 C 
BRANCH  24  29
HETATM   29  C16 UNL     1     -13.955  77.937 122.902  1.00  0.00     0.307 C 
BRANCH  29  30
HETATM   30  O5  UNL     1     -12.639  78.108 123.253  1.00  0.00    -0.366 OA
ATOM     31  H5  UNL     1     -12.494  78.002 124.186  1.00  0.00     0.213 HD
ENDBRANCH  29  30
BRANCH  29  32
HETATM   32  O6  UNL     1     -14.500  76.971 123.768  1.00  0.00    -0.366 OA
ATOM     33  H6  UNL     1     -13.848  76.757 124.426  1.00  0.00     0.213 HD
ENDBRANCH  29  32
ENDBRANCH  24  29
BRANCH  28  34
HETATM   34  O8  UNL     1     -15.001  75.944 117.859  1.00  0.00    -0.352 OA
BRANCH  34  35
HETATM   35  C19 UNL     1     -14.698  77.084 117.161  1.00  0.00     0.199 C 
BRANCH  35  36
HETATM   36  C20 UNL     1     -13.572  76.758 116.241  1.00  0.00     0.001 C 
HETATM   37  C21 UNL     1     -12.363  77.210 116.515  1.00  0.00    -0.089 C 
HETATM   38  C22 UNL     1     -11.224  76.896 115.609  1.00  0.00     0.042 C 
HETATM   39  C23 UNL     1     -12.130  78.033 117.725  1.00  0.00     0.042 C 
ENDBRANCH  35  36
ENDBRANCH  34  35
ENDBRANCH  28  34
ENDBRANCH   1  22
TORSDOF 15
ENDMDL
MODEL 4
REMARK VINA RESULT: -6.433776849      2.223      3.671
REMARK  15 active torsions:
REMARK  status: ('A' for Active; 'I' for Inactive)
REMARK    1  A    between atoms: C2_2  and  C3_3 
REMARK    2  A    between atoms: C2_2  and  C4_6 
REMARK    3  A    between atoms: C3_3  and  O1_4 
REMARK    4  A    between atoms: C8_10  and  O2_11 
REMARK    5  A    between atoms: C8_10  and  C9_13 
REMARK    6  A    between atoms: C9_13  and  O3_14 
REMARK    7  A    between atoms: C11_17  and  C13_19 
REMARK    8  A    between atoms: C13_19  and  O4_20 
REMARK    9  A    between atoms: C13_19  and  C14_22 
REMARK   10  A    between atoms: C15_25  and  C16_26 
REMARK   11  A    between atoms: C16_26  and  O5_27 
REMARK   12  A    between atoms: C16_26  and  O6_29 
REMARK   13  A    between atoms: C18_33  and  O8_34 
REMARK   14  A    between atoms: O8_34  and  C19_35 
REMARK   15  A    between atoms: C19_35  and  C20_36 
ROOT
HETATM    1  C13 UNL     1     -11.981  73.870 119.325  1.00  0.00     0.177 C 
ENDROOT
BRANCH   1   2
HETATM    2  C11 UNL     1     -10.850  74.773 119.656  1.00  0.00    -0.006 C 
HETATM    3  C6  UNL     1     -10.506  75.558 118.383  1.00  0.00     0.005 C 
HETATM    4  C5  UNL     1     -11.516  76.529 117.888  1.00  0.00     0.015 C 
HETATM    5  C7  UNL     1      -9.710  76.762 118.873  1.00  0.00     0.035 C 
HETATM    6  C4  UNL     1     -10.419  77.560 117.799  1.00  0.00     0.023 C 
HETATM    7  C8  UNL     1     -10.133  76.961 120.276  1.00  0.00     0.084 C 
HETATM    8  C10 UNL     1     -11.139  75.878 120.613  1.00  0.00     0.052 C 
HETATM    9  C12 UNL     1      -9.603  74.054 120.036  1.00  0.00     0.019 C 
BRANCH   6  10
HETATM   10  C2  UNL     1      -9.710  77.536 116.508  1.00  0.00    -0.061 C 
HETATM   11  C1  UNL     1     -10.302  77.426 115.333  1.00  0.00     0.017 C 
BRANCH  10  12
HETATM   12  C3  UNL     1      -8.210  77.651 116.525  1.00  0.00     0.198 C 
BRANCH  12  13
HETATM   13  O1  UNL     1      -7.713  77.581 115.211  1.00  0.00    -0.397 OA
ATOM     14  H1  UNL     1      -7.073  76.882 115.146  1.00  0.00     0.209 HD
ENDBRANCH  12  13
ENDBRANCH  10  12
ENDBRANCH   6  10
BRANCH   7  15
HETATM   15  O2  UNL     1      -8.966  76.827 121.071  1.00  0.00    -0.387 OA
ATOM     16  H2  UNL     1      -8.880  77.636 121.562  1.00  0.00     0.210 HD
ENDBRANCH   7  15
BRANCH   7  17
HETATM   17  C9  UNL     1     -10.694  78.300 120.622  1.00  0.00     0.202 C 
BRANCH  17  18
HETATM   18  O3  UNL     1     -11.574  78.229 121.688  1.00  0.00    -0.398 OA
ATOM     19  H3  UNL     1     -11.515  78.996 122.246  1.00  0.00     0.209 HD
ENDBRANCH  17  18
ENDBRANCH   7  17
ENDBRANCH   1   2
BRANCH   1  20
HETATM   20  O4  UNL     1     -12.630  73.475 120.551  1.00  0.00    -0.389 OA
ATOM     21  H4  UNL     1     -11.975  73.416 121.236  1.00  0.00     0.210 HD
ENDBRANCH   1  20
BRANCH   1  22
HETATM   22  C14 UNL     1     -11.710  72.618 118.588  1.00  0.00     0.072 C 
HETATM   23  N1  UNL     1     -11.176  71.540 119.372  1.00  0.00    -0.355 N 
HETATM   24  C15 UNL     1     -10.105  70.773 118.861  1.00  0.00     0.086 C 
ATOM     25  H1  UNL     1     -11.566  71.330 120.290  1.00  0.00     0.165 HD
HETATM   26  C17 UNL     1      -9.878  70.729 117.529  1.00  0.00     0.168 C 
HETATM   27  O7  UNL     1     -10.740  71.463 116.732  1.00  0.00    -0.325 OA
HETATM   28  C18 UNL     1     -11.129  72.751 117.214  1.00  0.00     0.315 C 
BRANCH  24  29
HETATM   29  C16 UNL     1      -9.193  69.993 119.731  1.00  0.00     0.307 C 
BRANCH  29  30
HETATM   30  O5  UNL     1      -9.458  68.647 119.699  1.00  0.00    -0.366 OA
ATOM     31  H5  UNL     1      -9.211  68.247 118.873  1.00  0.00     0.213 HD
ENDBRANCH  29  30
BRANCH  29  32
HETATM   32  O6  UNL     1      -9.370  70.426 121.059  1.00  0.00    -0.366 OA
ATOM     33  H6  UNL     1      -8.618  70.144 121.568  1.00  0.00     0.213 HD
ENDBRANCH  29  32
ENDBRANCH  24  29
BRANCH  28  34
HETATM   34  O8  UNL     1     -12.182  73.205 116.377  1.00  0.00    -0.352 OA
BRANCH  34  35
HETATM   35  C19 UNL     1     -13.237  72.333 116.309  1.00  0.00     0.199 C 
BRANCH  35  36
HETATM   36  C20 UNL     1     -14.488  73.140 116.381  1.00  0.00     0.001 C 
HETATM   37  C21 UNL     1     -15.424  72.802 117.247  1.00  0.00    -0.089 C 
HETATM   38  C22 UNL     1     -16.682  73.594 117.336  1.00  0.00     0.042 C 
HETATM   39  C23 UNL     1     -15.233  71.633 118.138  1.00  0.00     0.042 C 
ENDBRANCH  35  36
ENDBRANCH  34  35
ENDBRANCH  28  34
ENDBRANCH   1  22
TORSDOF 15
ENDMDL
MODEL 5
REMARK VINA RESULT: -6.404664952      2.823      7.222
REMARK  15 active torsions:
REMARK  status: ('A' for Active; 'I' for Inactive)
REMARK    1  A    between atoms: C2_2  and  C3_3 
REMARK    2  A    between atoms: C2_2  and  C4_6 
REMARK    3  A    between atoms: C3_3  and  O1_4 
REMARK    4  A    between atoms: C8_10  and  O2_11 
REMARK    5  A    between atoms: C8_10  and  C9_13 
REMARK    6  A    between atoms: C9_13  and  O3_14 
REMARK    7  A    between atoms: C11_17  and  C13_19 
REMARK    8  A    between atoms: C13_19  and  O4_20 
REMARK    9  A    between atoms: C13_19  and  C14_22 
REMARK   10  A    between atoms: C15_25  and  C16_26 
REMARK   11  A    between atoms: C16_26  and  O5_27 
REMARK   12  A    between atoms: C16_26  and  O6_29 
REMARK   13  A    between atoms: C18_33  and  O8_34 
REMARK   14  A    between atoms: O8_34  and  C19_35 
REMARK   15  A    between atoms: C19_35  and  C20_36 
ROOT
HETATM    1  C13 UNL     1      -9.176  74.956 118.405  1.00  0.00     0.177 C 
ENDROOT
BRANCH   1   2
HETATM    2  C11 UNL     1      -9.898  73.736 118.847  1.00  0.00    -0.006 C 
HETATM    3  C6  UNL     1      -9.471  72.592 117.919  1.00  0.00     0.005 C 
HETATM    4  C5  UNL     1      -8.059  72.138 118.004  1.00  0.00     0.015 C 
HETATM    5  C7  UNL     1      -9.838  71.321 118.676  1.00  0.00     0.035 C 
HETATM    6  C4  UNL     1      -8.566  70.721 118.116  1.00  0.00     0.023 C 
HETATM    7  C8  UNL     1      -9.851  71.709 120.103  1.00  0.00     0.084 C 
HETATM    8  C10 UNL     1      -9.524  73.188 120.181  1.00  0.00     0.052 C 
HETATM    9  C12 UNL     1     -11.377  73.836 118.711  1.00  0.00     0.019 C 
BRANCH   6  10
HETATM   10  C2  UNL     1      -8.766  70.075 116.807  1.00  0.00    -0.061 C 
HETATM   11  C1  UNL     1      -8.508  70.648 115.646  1.00  0.00     0.017 C 
BRANCH  10  12
HETATM   12  C3  UNL     1      -9.295  68.667 116.789  1.00  0.00     0.198 C 
BRANCH  12  13
HETATM   13  O1  UNL     1      -8.355  67.813 116.185  1.00  0.00    -0.397 OA
ATOM     14  H1  UNL     1      -8.775  66.999 115.934  1.00  0.00     0.209 HD
ENDBRANCH  12  13
ENDBRANCH  10  12
ENDBRANCH   6  10
BRANCH   7  15
HETATM   15  O2  UNL     1     -11.165  71.461 120.576  1.00  0.00    -0.387 OA
ATOM     16  H2  UNL     1     -11.211  71.830 121.450  1.00  0.00     0.210 HD
ENDBRANCH   7  15
BRANCH   7  17
HETATM   17  C9  UNL     1      -8.952  70.942 121.014  1.00  0.00     0.202 C 
BRANCH  17  18
HETATM   18  O3  UNL     1      -9.496  69.718 121.363  1.00  0.00    -0.398 OA
ATOM     19  H3  UNL     1      -9.479  69.580 122.303  1.00  0.00     0.209 HD
ENDBRANCH  17  18
ENDBRANCH   7  17
ENDBRANCH   1   2
BRANCH   1  20
HETATM   20  O4  UNL     1      -8.030  75.149 119.258  1.00  0.00    -0.389 OA
ATOM     21  H4  UNL     1      -7.876  76.081 119.355  1.00  0.00     0.210 HD
ENDBRANCH   1  20
BRANCH   1  22
HETATM   22  C14 UNL     1      -9.891  76.249 118.387  1.00  0.00     0.072 C 
HETATM   23  N1  UNL     1     -10.263  76.770 119.672  1.00  0.00    -0.355 N 
HETATM   24  C15 UNL     1     -11.552  77.316 119.854  1.00  0.00     0.086 C 
ATOM     25  H1  UNL     1      -9.601  76.744 120.448  1.00  0.00     0.165 HD
HETATM   26  C17 UNL     1     -12.256  77.762 118.790  1.00  0.00     0.168 C 
HETATM   27  O7  UNL     1     -11.643  77.647 117.554  1.00  0.00    -0.325 OA
HETATM   28  C18 UNL     1     -10.908  76.448 117.305  1.00  0.00     0.315 C 
BRANCH  24  29
HETATM   29  C16 UNL     1     -12.191  77.431 121.188  1.00  0.00     0.307 C 
BRANCH  29  30
HETATM   30  O5  UNL     1     -11.914  78.626 121.803  1.00  0.00    -0.366 OA
ATOM     31  H5  UNL     1     -12.674  78.999 122.233  1.00  0.00     0.213 HD
ENDBRANCH  29  30
BRANCH  29  32
HETATM   32  O6  UNL     1     -11.688  76.406 122.010  1.00  0.00    -0.366 OA
ATOM     33  H6  UNL     1     -12.298  75.677 121.987  1.00  0.00     0.213 HD
ENDBRANCH  29  32
ENDBRANCH  24  29
BRANCH  28  34
HETATM   34  O8  UNL     1     -10.178  76.652 116.104  1.00  0.00    -0.352 OA
BRANCH  34  35
HETATM   35  C19 UNL     1     -10.778  77.538 115.248  1.00  0.00     0.199 C 
BRANCH  35  36
HETATM   36  C20 UNL     1     -10.700  76.957 113.878  1.00  0.00     0.001 C 
HETATM   37  C21 UNL     1     -11.741  76.309 113.391  1.00  0.00    -0.089 C 
HETATM   38  C22 UNL     1     -11.685  75.720 112.025  1.00  0.00     0.042 C 
HETATM   39  C23 UNL     1     -12.974  76.162 114.201  1.00  0.00     0.042 C 
ENDBRANCH  35  36
ENDBRANCH  34  35
ENDBRANCH  28  34
ENDBRANCH   1  22
TORSDOF 15
ENDMDL
