MODEL 1
REMARK VINA RESULT: -6.320279813      0.000      0.000
REMARK  16 active torsions:
REMARK  status: ('A' for Active; 'I' for Inactive)
REMARK    1  A    between atoms: S1_2  and  C2_3 
REMARK    2  A    between atoms: C2_3  and  C3_4 
REMARK    3  A    between atoms: C3_4  and  C4_5 
REMARK    4  A    between atoms: C4_5  and  C5_6 
REMARK    5  A    between atoms: C5_6  and  O1_7 
REMARK    6  A    between atoms: C5_6  and  C19_29 
REMARK    7  A    between atoms: O1_7  and  C6_8 
REMARK    8  A    between atoms: C10_12  and  O2_13 
REMARK    9  A    between atoms: C16_20  and  O3_21 
REMARK   10  A    between atoms: C16_20  and  C17_23 
REMARK   11  A    between atoms: C18_26  and  O6_27 
REMARK   12  A    between atoms: C19_29  and  O7_30 
REMARK   13  A    between atoms: C19_29  and  C20_32 
REMARK   14  A    between atoms: C20_32  and  O8_33 
REMARK   15  A    between atoms: C20_32  and  C21_35 
REMARK   16  A    between atoms: C21_35  and  O9_36 
ROOT
HETATM    1  C6  UNL     1     -11.861  76.572 120.585  1.00  0.00     0.133 C 
HETATM    2  C7  UNL     1     -11.540  75.314 119.872  1.00  0.00     0.016 C 
HETATM    3  C8  UNL     1     -10.271  74.764 120.529  1.00  0.00     0.010 C 
HETATM    4  C9  UNL     1      -9.306  75.815 120.920  1.00  0.00     0.041 C 
HETATM    5  C10 UNL     1      -9.476  77.147 120.242  1.00  0.00     0.093 C 
HETATM    6  C11 UNL     1     -10.874  77.689 120.314  1.00  0.00     0.052 C 
HETATM    7  C12 UNL     1     -11.231  78.542 119.126  1.00  0.00     0.011 C 
HETATM    8  C13 UNL     1     -11.650  77.782 117.933  1.00  0.00     0.009 C 
HETATM    9  C14 UNL     1     -10.911  76.502 117.698  1.00  0.00     0.034 C 
HETATM   10  C15 UNL     1     -11.472  75.330 118.404  1.00  0.00     0.015 C 
HETATM   11  C16 UNL     1      -9.414  76.611 117.741  1.00  0.00     0.178 C 
HETATM   12  C18 UNL     1      -8.813  77.228 118.912  1.00  0.00     0.198 C 
ENDROOT
BRANCH   1  13
HETATM   13  O1  UNL     1     -13.168  76.905 120.474  1.00  0.00    -0.377 OA
BRANCH  13  14
HETATM   14  C5  UNL     1     -13.856  77.309 121.566  1.00  0.00     0.153 C 
BRANCH  14  15
HETATM   15  C4  UNL     1     -13.953  78.808 121.554  1.00  0.00     0.035 C 
BRANCH  15  16
HETATM   16  C3  UNL     1     -14.952  79.418 120.672  1.00  0.00     0.013 C 
BRANCH  16  17
HETATM   17  C2  UNL     1     -15.522  80.750 120.989  1.00  0.00     0.073 C 
BRANCH  17  18
HETATM   18  S1  UNL     1     -15.034  81.168 122.735  1.00  0.00    -0.173 SA
HETATM   19  C1  UNL     1     -15.422  82.925 122.970  1.00  0.00     0.089 C 
ENDBRANCH  17  18
ENDBRANCH  16  17
ENDBRANCH  15  16
ENDBRANCH  14  15
BRANCH  14  20
HETATM   20  C19 UNL     1     -15.129  76.701 121.970  1.00  0.00     0.177 C 
BRANCH  20  21
HETATM   21  O7  UNL     1     -14.959  76.288 123.335  1.00  0.00    -0.390 OA
ATOM     22  H7  UNL     1     -15.653  75.663 123.510  1.00  0.00     0.210 HD
ENDBRANCH  20  21
BRANCH  20  23
HETATM   23  C20 UNL     1     -15.433  75.373 121.283  1.00  0.00     0.172 C 
BRANCH  23  24
HETATM   24  O8  UNL     1     -14.430  74.432 121.466  1.00  0.00    -0.391 OA
ATOM     25  H8  UNL     1     -14.684  73.563 121.178  1.00  0.00     0.210 HD
ENDBRANCH  23  24
BRANCH  23  26
HETATM   26  C21 UNL     1     -16.689  74.817 121.919  1.00  0.00     0.198 C 
BRANCH  26  27
HETATM   27  O9  UNL     1     -16.452  73.897 122.926  1.00  0.00    -0.398 OA
ATOM     28  H9  UNL     1     -17.153  73.832 123.564  1.00  0.00     0.209 HD
ENDBRANCH  26  27
ENDBRANCH  23  26
ENDBRANCH  20  23
ENDBRANCH  14  20
ENDBRANCH  13  14
ENDBRANCH   1  13
BRANCH   5  29
HETATM   29  O2  UNL     1      -8.693  78.034 121.044  1.00  0.00    -0.387 OA
ATOM     30  H2  UNL     1      -8.837  78.883 120.643  1.00  0.00     0.210 HD
ENDBRANCH   5  29
BRANCH  12  31
HETATM   31  O6  UNL     1      -7.519  76.670 119.099  1.00  0.00    -0.389 OA
ATOM     32  H6  UNL     1      -7.399  76.061 118.379  1.00  0.00     0.210 HD
ENDBRANCH  12  31
BRANCH  11  33
HETATM   33  O3  UNL     1      -8.944  75.296 117.538  1.00  0.00    -0.376 OA
ATOM     34  H3  UNL     1      -8.649  75.275 116.636  1.00  0.00     0.211 HD
ENDBRANCH  11  33
BRANCH  11  35
HETATM   35  C17 UNL     1      -8.995  77.368 116.534  1.00  0.00     0.212 C 
HETATM   36  O4  UNL     1      -7.946  78.067 116.469  1.00  0.00    -0.646 OA
HETATM   37  O5  UNL     1      -9.767  77.338 115.387  1.00  0.00    -0.646 OA
ENDBRANCH  11  35
TORSDOF 16
ENDMDL
MODEL 2
REMARK VINA RESULT: -6.299725555      2.364      3.957
REMARK  16 active torsions:
REMARK  status: ('A' for Active; 'I' for Inactive)
REMARK    1  A    between atoms: S1_2  and  C2_3 
REMARK    2  A    between atoms: C2_3  and  C3_4 
REMARK    3  A    between atoms: C3_4  and  C4_5 
REMARK    4  A    between atoms: C4_5  and  C5_6 
REMARK    5  A    between atoms: C5_6  and  O1_7 
REMARK    6  A    between atoms: C5_6  and  C19_29 
REMARK    7  A    between atoms: O1_7  and  C6_8 
REMARK    8  A    between atoms: C10_12  and  O2_13 
REMARK    9  A    between atoms: C16_20  and  O3_21 
REMARK   10  A    between atoms: C16_20  and  C17_23 
REMARK   11  A    between atoms: C18_26  and  O6_27 
REMARK   12  A    between atoms: C19_29  and  O7_30 
REMARK   13  A    between atoms: C19_29  and  C20_32 
REMARK   14  A    between atoms: C20_32  and  O8_33 
REMARK   15  A    between atoms: C20_32  and  C21_35 
REMARK   16  A    between atoms: C21_35  and  O9_36 
ROOT
HETATM    1  C6  UNL     1     -13.097  76.329 120.302  1.00  0.00     0.133 C 
HETATM    2  C7  UNL     1     -13.341  75.842 118.924  1.00  0.00     0.016 C 
HETATM    3  C8  UNL     1     -12.979  74.355 118.928  1.00  0.00     0.010 C 
HETATM    4  C9  UNL     1     -11.805  74.035 119.770  1.00  0.00     0.041 C 
HETATM    5  C10 UNL     1     -10.905  75.192 120.107  1.00  0.00     0.093 C 
HETATM    6  C11 UNL     1     -11.629  76.378 120.674  1.00  0.00     0.052 C 
HETATM    7  C12 UNL     1     -10.959  77.685 120.341  1.00  0.00     0.011 C 
HETATM    8  C13 UNL     1     -11.276  78.208 118.998  1.00  0.00     0.009 C 
HETATM    9  C14 UNL     1     -11.403  77.174 117.923  1.00  0.00     0.034 C 
HETATM   10  C15 UNL     1     -12.751  76.579 117.798  1.00  0.00     0.015 C 
HETATM   11  C16 UNL     1     -10.268  76.195 117.840  1.00  0.00     0.178 C 
HETATM   12  C18 UNL     1      -9.894  75.487 119.055  1.00  0.00     0.198 C 
ENDROOT
BRANCH   1  13
HETATM   13  O1  UNL     1     -13.811  77.443 120.586  1.00  0.00    -0.377 OA
BRANCH  13  14
HETATM   14  C5  UNL     1     -14.508  77.520 121.742  1.00  0.00     0.153 C 
BRANCH  14  15
HETATM   15  C4  UNL     1     -14.979  76.144 122.120  1.00  0.00     0.035 C 
BRANCH  15  16
HETATM   16  C3  UNL     1     -16.192  75.638 121.472  1.00  0.00     0.013 C 
BRANCH  16  17
HETATM   17  C2  UNL     1     -16.218  74.277 120.884  1.00  0.00     0.073 C 
BRANCH  17  18
HETATM   18  S1  UNL     1     -17.578  73.328 121.728  1.00  0.00    -0.173 SA
HETATM   19  C1  UNL     1     -17.330  73.553 123.511  1.00  0.00     0.089 C 
ENDBRANCH  17  18
ENDBRANCH  16  17
ENDBRANCH  15  16
ENDBRANCH  14  15
BRANCH  14  20
HETATM   20  C19 UNL     1     -14.016  78.250 122.917  1.00  0.00     0.177 C 
BRANCH  20  21
HETATM   21  O7  UNL     1     -14.050  77.317 124.009  1.00  0.00    -0.390 OA
ATOM     22  H7  UNL     1     -13.427  77.637 124.649  1.00  0.00     0.210 HD
ENDBRANCH  20  21
BRANCH  20  23
HETATM   23  C20 UNL     1     -14.961  79.339 123.416  1.00  0.00     0.172 C 
BRANCH  23  24
HETATM   24  O8  UNL     1     -14.724  79.692 124.736  1.00  0.00    -0.391 OA
ATOM     25  H8  UNL     1     -15.289  80.394 125.037  1.00  0.00     0.210 HD
ENDBRANCH  23  24
BRANCH  23  26
HETATM   26  C21 UNL     1     -14.712  80.570 122.572  1.00  0.00     0.198 C 
BRANCH  26  27
HETATM   27  O9  UNL     1     -14.383  81.698 123.304  1.00  0.00    -0.398 OA
ATOM     28  H9  UNL     1     -15.133  82.201 123.599  1.00  0.00     0.209 HD
ENDBRANCH  26  27
ENDBRANCH  23  26
ENDBRANCH  20  23
ENDBRANCH  14  20
ENDBRANCH  13  14
ENDBRANCH   1  13
BRANCH   5  29
HETATM   29  O2  UNL     1     -10.107  74.695 121.184  1.00  0.00    -0.387 OA
ATOM     30  H2  UNL     1     -10.368  75.234 121.922  1.00  0.00     0.210 HD
ENDBRANCH   5  29
BRANCH  12  31
HETATM   31  O6  UNL     1      -9.348  74.226 118.689  1.00  0.00    -0.389 OA
ATOM     32  H6  UNL     1      -8.529  74.423 118.250  1.00  0.00     0.210 HD
ENDBRANCH  12  31
BRANCH  11  33
HETATM   33  O3  UNL     1     -10.621  75.308 116.802  1.00  0.00    -0.376 OA
ATOM     34  H3  UNL     1      -9.854  74.764 116.669  1.00  0.00     0.211 HD
ENDBRANCH  11  33
BRANCH  11  35
HETATM   35  C17 UNL     1      -9.084  76.937 117.337  1.00  0.00     0.212 C 
HETATM   36  O4  UNL     1      -9.031  77.498 116.208  1.00  0.00    -0.646 OA
HETATM   37  O5  UNL     1      -7.947  77.050 118.116  1.00  0.00    -0.646 OA
ENDBRANCH  11  35
TORSDOF 16
ENDMDL
MODEL 3
REMARK VINA RESULT: -6.241051900      0.888      1.075
REMARK  16 active torsions:
REMARK  status: ('A' for Active; 'I' for Inactive)
REMARK    1  A    between atoms: S1_2  and  C2_3 
REMARK    2  A    between atoms: C2_3  and  C3_4 
REMARK    3  A    between atoms: C3_4  and  C4_5 
REMARK    4  A    between atoms: C4_5  and  C5_6 
REMARK    5  A    between atoms: C5_6  and  O1_7 
REMARK    6  A    between atoms: C5_6  and  C19_29 
REMARK    7  A    between atoms: O1_7  and  C6_8 
REMARK    8  A    between atoms: C10_12  and  O2_13 
REMARK    9  A    between atoms: C16_20  and  O3_21 
REMARK   10  A    between atoms: C16_20  and  C17_23 
REMARK   11  A    between atoms: C18_26  and  O6_27 
REMARK   12  A    between atoms: C19_29  and  O7_30 
REMARK   13  A    between atoms: C19_29  and  C20_32 
REMARK   14  A    between atoms: C20_32  and  O8_33 
REMARK   15  A    between atoms: C20_32  and  C21_35 
REMARK   16  A    between atoms: C21_35  and  O9_36 
ROOT
HETATM    1  C6  UNL     1     -11.925  76.607 120.534  1.00  0.00     0.133 C 
HETATM    2  C7  UNL     1     -11.575  75.338 119.854  1.00  0.00     0.016 C 
HETATM    3  C8  UNL     1     -10.326  74.806 120.560  1.00  0.00     0.010 C 
HETATM    4  C9  UNL     1      -9.379  75.869 120.964  1.00  0.00     0.041 C 
HETATM    5  C10 UNL     1      -9.533  77.188 120.257  1.00  0.00     0.093 C 
HETATM    6  C11 UNL     1     -10.934  77.724 120.275  1.00  0.00     0.052 C 
HETATM    7  C12 UNL     1     -11.257  78.554 119.061  1.00  0.00     0.011 C 
HETATM    8  C13 UNL     1     -11.634  77.772 117.869  1.00  0.00     0.009 C 
HETATM    9  C14 UNL     1     -10.882  76.491 117.680  1.00  0.00     0.034 C 
HETATM   10  C15 UNL     1     -11.460  75.329 118.389  1.00  0.00     0.015 C 
HETATM   11  C16 UNL     1      -9.387  76.609 117.769  1.00  0.00     0.178 C 
HETATM   12  C18 UNL     1      -8.828  77.250 118.949  1.00  0.00     0.198 C 
ENDROOT
BRANCH   1  13
HETATM   13  O1  UNL     1     -13.229  76.931 120.375  1.00  0.00    -0.377 OA
BRANCH  13  14
HETATM   14  C5  UNL     1     -13.899  77.541 121.379  1.00  0.00     0.153 C 
BRANCH  14  15
HETATM   15  C4  UNL     1     -14.248  78.940 120.952  1.00  0.00     0.035 C 
BRANCH  15  16
HETATM   16  C3  UNL     1     -14.881  79.114 119.643  1.00  0.00     0.013 C 
BRANCH  16  17
HETATM   17  C2  UNL     1     -16.236  79.707 119.536  1.00  0.00     0.073 C 
BRANCH  17  18
HETATM   18  S1  UNL     1     -16.027  81.532 119.242  1.00  0.00    -0.173 SA
HETATM   19  C1  UNL     1     -15.987  82.314 120.878  1.00  0.00     0.089 C 
ENDBRANCH  17  18
ENDBRANCH  16  17
ENDBRANCH  15  16
ENDBRANCH  14  15
BRANCH  14  20
HETATM   20  C19 UNL     1     -15.022  76.909 122.081  1.00  0.00     0.177 C 
BRANCH  20  21
HETATM   21  O7  UNL     1     -14.549  76.617 123.406  1.00  0.00    -0.390 OA
ATOM     22  H7  UNL     1     -15.324  76.497 123.943  1.00  0.00     0.210 HD
ENDBRANCH  20  21
BRANCH  20  23
HETATM   23  C20 UNL     1     -15.375  75.516 121.569  1.00  0.00     0.172 C 
BRANCH  23  24
HETATM   24  O8  UNL     1     -14.282  74.662 121.538  1.00  0.00    -0.391 OA
ATOM     25  H8  UNL     1     -14.446  73.838 121.982  1.00  0.00     0.210 HD
ENDBRANCH  23  24
BRANCH  23  26
HETATM   26  C21 UNL     1     -16.378  74.925 122.534  1.00  0.00     0.198 C 
BRANCH  26  27
HETATM   27  O9  UNL     1     -15.817  74.109 123.502  1.00  0.00    -0.398 OA
ATOM     28  H9  UNL     1     -16.383  73.945 124.247  1.00  0.00     0.209 HD
ENDBRANCH  26  27
ENDBRANCH  23  26
ENDBRANCH  20  23
ENDBRANCH  14  20
ENDBRANCH  13  14
ENDBRANCH   1  13
BRANCH   5  29
HETATM   29  O2  UNL     1      -8.780  78.094 121.068  1.00  0.00    -0.387 OA
ATOM     30  H2  UNL     1      -8.994  78.946 120.709  1.00  0.00     0.210 HD
ENDBRANCH   5  29
BRANCH  12  31
HETATM   31  O6  UNL     1      -7.537  76.702 119.186  1.00  0.00    -0.389 OA
ATOM     32  H6  UNL     1      -7.164  76.549 118.326  1.00  0.00     0.210 HD
ENDBRANCH  12  31
BRANCH  11  33
HETATM   33  O3  UNL     1      -8.905  75.294 117.605  1.00  0.00    -0.376 OA
ATOM     34  H3  UNL     1      -8.180  75.218 118.215  1.00  0.00     0.211 HD
ENDBRANCH  11  33
BRANCH  11  35
HETATM   35  C17 UNL     1      -8.934  77.347 116.563  1.00  0.00     0.212 C 
HETATM   36  O4  UNL     1      -9.628  77.484 115.518  1.00  0.00    -0.646 OA
HETATM   37  O5  UNL     1      -7.684  77.939 116.535  1.00  0.00    -0.646 OA
ENDBRANCH  11  35
TORSDOF 16
ENDMDL
MODEL 4
REMARK VINA RESULT: -6.148394310      4.340      7.240
REMARK  16 active torsions:
REMARK  status: ('A' for Active; 'I' for Inactive)
REMARK    1  A    between atoms: S1_2  and  C2_3 
REMARK    2  A    between atoms: C2_3  and  C3_4 
REMARK    3  A    between atoms: C3_4  and  C4_5 
REMARK    4  A    between atoms: C4_5  and  C5_6 
REMARK    5  A    between atoms: C5_6  and  O1_7 
REMARK    6  A    between atoms: C5_6  and  C19_29 
REMARK    7  A    between atoms: O1_7  and  C6_8 
REMARK    8  A    between atoms: C10_12  and  O2_13 
REMARK    9  A    between atoms: C16_20  and  O3_21 
REMARK   10  A    between atoms: C16_20  and  C17_23 
REMARK   11  A    between atoms: C18_26  and  O6_27 
REMARK   12  A    between atoms: C19_29  and  O7_30 
REMARK   13  A    between atoms: C19_29  and  C20_32 
REMARK   14  A    between atoms: C20_32  and  O8_33 
REMARK   15  A    between atoms: C20_32  and  C21_35 
REMARK   16  A    between atoms: C21_35  and  O9_36 
ROOT
HETATM    1  C6  UNL     1     -10.119  74.551 118.285  1.00  0.00     0.133 C 
HETATM    2  C7  UNL     1     -10.408  75.733 117.440  1.00  0.00     0.016 C 
HETATM    3  C8  UNL     1      -9.184  76.646 117.551  1.00  0.00     0.010 C 
HETATM    4  C9  UNL     1      -8.584  76.666 118.903  1.00  0.00     0.041 C 
HETATM    5  C10 UNL     1      -9.472  76.194 120.022  1.00  0.00     0.093 C 
HETATM    6  C11 UNL     1     -10.106  74.858 119.769  1.00  0.00     0.052 C 
HETATM    7  C12 UNL     1     -11.450  74.714 120.432  1.00  0.00     0.011 C 
HETATM    8  C13 UNL     1     -12.567  75.320 119.683  1.00  0.00     0.009 C 
HETATM    9  C14 UNL     1     -12.247  76.605 118.986  1.00  0.00     0.034 C 
HETATM   10  C15 UNL     1     -11.680  76.444 117.630  1.00  0.00     0.015 C 
HETATM   11  C16 UNL     1     -11.572  77.643 119.836  1.00  0.00     0.178 C 
HETATM   12  C18 UNL     1     -10.371  77.251 120.557  1.00  0.00     0.198 C 
ENDROOT
BRANCH   1  13
HETATM   13  O1  UNL     1     -10.841  73.468 117.916  1.00  0.00    -0.377 OA
BRANCH  13  14
HETATM   14  C5  UNL     1     -10.246  72.257 117.832  1.00  0.00     0.153 C 
BRANCH  14  15
HETATM   15  C4  UNL     1      -8.774  72.452 117.604  1.00  0.00     0.035 C 
BRANCH  15  16
HETATM   16  C3  UNL     1      -8.050  71.397 116.890  1.00  0.00     0.013 C 
BRANCH  16  17
HETATM   17  C2  UNL     1      -8.685  70.686 115.754  1.00  0.00     0.073 C 
BRANCH  17  18
HETATM   18  S1  UNL     1      -8.990  68.931 116.291  1.00  0.00    -0.173 SA
HETATM   19  C1  UNL     1      -9.522  68.027 114.811  1.00  0.00     0.089 C 
ENDBRANCH  17  18
ENDBRANCH  16  17
ENDBRANCH  15  16
ENDBRANCH  14  15
BRANCH  14  20
HETATM   20  C19 UNL     1     -10.491  71.185 118.804  1.00  0.00     0.177 C 
BRANCH  20  21
HETATM   21  O7  UNL     1     -11.775  71.460 119.387  1.00  0.00    -0.390 OA
ATOM     22  H7  UNL     1     -11.608  71.712 120.288  1.00  0.00     0.210 HD
ENDBRANCH  20  21
BRANCH  20  23
HETATM   23  C20 UNL     1      -9.582  71.233 120.029  1.00  0.00     0.172 C 
BRANCH  23  24
HETATM   24  O8  UNL     1     -10.281  71.455 121.207  1.00  0.00    -0.391 OA
ATOM     25  H8  UNL     1     -10.289  72.370 121.463  1.00  0.00     0.210 HD
ENDBRANCH  23  24
BRANCH  23  26
HETATM   26  C21 UNL     1      -8.922  69.877 120.151  1.00  0.00     0.198 C 
BRANCH  26  27
HETATM   27  O9  UNL     1      -9.748  68.815 119.824  1.00  0.00    -0.398 OA
ATOM     28  H9  UNL     1      -9.491  67.989 120.217  1.00  0.00     0.209 HD
ENDBRANCH  26  27
ENDBRANCH  23  26
ENDBRANCH  20  23
ENDBRANCH  14  20
ENDBRANCH  13  14
ENDBRANCH   1  13
BRANCH   5  29
HETATM   29  O2  UNL     1      -8.562  75.973 121.103  1.00  0.00    -0.387 OA
ATOM     30  H2  UNL     1      -9.132  75.821 121.847  1.00  0.00     0.210 HD
ENDBRANCH   5  29
BRANCH  12  31
HETATM   31  O6  UNL     1      -9.551  78.401 120.719  1.00  0.00    -0.389 OA
ATOM     32  H6  UNL     1     -10.005  78.950 121.349  1.00  0.00     0.210 HD
ENDBRANCH  12  31
BRANCH  11  33
HETATM   33  O3  UNL     1     -11.335  78.731 118.970  1.00  0.00    -0.376 OA
ATOM     34  H3  UNL     1     -11.142  79.465 119.541  1.00  0.00     0.211 HD
ENDBRANCH  11  33
BRANCH  11  35
HETATM   35  C17 UNL     1     -12.578  78.131 120.813  1.00  0.00     0.212 C 
HETATM   36  O4  UNL     1     -12.376  78.203 122.057  1.00  0.00    -0.646 OA
HETATM   37  O5  UNL     1     -13.827  78.542 120.385  1.00  0.00    -0.646 OA
ENDBRANCH  11  35
TORSDOF 16
ENDMDL
MODEL 5
REMARK VINA RESULT: -6.049536974      1.337      2.730
REMARK  16 active torsions:
REMARK  status: ('A' for Active; 'I' for Inactive)
REMARK    1  A    between atoms: S1_2  and  C2_3 
REMARK    2  A    between atoms: C2_3  and  C3_4 
REMARK    3  A    between atoms: C3_4  and  C4_5 
REMARK    4  A    between atoms: C4_5  and  C5_6 
REMARK    5  A    between atoms: C5_6  and  O1_7 
REMARK    6  A    between atoms: C5_6  and  C19_29 
REMARK    7  A    between atoms: O1_7  and  C6_8 
REMARK    8  A    between atoms: C10_12  and  O2_13 
REMARK    9  A    between atoms: C16_20  and  O3_21 
REMARK   10  A    between atoms: C16_20  and  C17_23 
REMARK   11  A    between atoms: C18_26  and  O6_27 
REMARK   12  A    between atoms: C19_29  and  O7_30 
REMARK   13  A    between atoms: C19_29  and  C20_32 
REMARK   14  A    between atoms: C20_32  and  O8_33 
REMARK   15  A    between atoms: C20_32  and  C21_35 
REMARK   16  A    between atoms: C21_35  and  O9_36 
ROOT
HETATM    1  C6  UNL     1     -12.654  77.080 119.304  1.00  0.00     0.133 C 
HETATM    2  C7  UNL     1     -11.731  77.074 120.463  1.00  0.00     0.016 C 
HETATM    3  C8  UNL     1     -10.636  78.095 120.141  1.00  0.00     0.010 C 
HETATM    4  C9  UNL     1     -10.244  78.109 118.714  1.00  0.00     0.041 C 
HETATM    5  C10 UNL     1     -10.608  76.883 117.922  1.00  0.00     0.093 C 
HETATM    6  C11 UNL     1     -12.049  76.487 118.048  1.00  0.00     0.052 C 
HETATM    7  C12 UNL     1     -12.260  75.002 117.913  1.00  0.00     0.011 C 
HETATM    8  C13 UNL     1     -12.003  74.235 119.147  1.00  0.00     0.009 C 
HETATM    9  C14 UNL     1     -10.855  74.723 119.975  1.00  0.00     0.034 C 
HETATM   10  C15 UNL     1     -11.203  75.789 120.940  1.00  0.00     0.015 C 
HETATM   11  C16 UNL     1      -9.572  74.941 119.225  1.00  0.00     0.178 C 
HETATM   12  C18 UNL     1      -9.616  75.781 118.039  1.00  0.00     0.198 C 
ENDROOT
BRANCH   1  13
HETATM   13  O1  UNL     1     -13.888  76.632 119.629  1.00  0.00    -0.377 OA
BRANCH  13  14
HETATM   14  C5  UNL     1     -14.639  77.313 120.523  1.00  0.00     0.153 C 
BRANCH  14  15
HETATM   15  C4  UNL     1     -15.529  78.271 119.783  1.00  0.00     0.035 C 
BRANCH  15  16
HETATM   16  C3  UNL     1     -15.324  79.704 120.009  1.00  0.00     0.013 C 
BRANCH  16  17
HETATM   17  C2  UNL     1     -14.971  80.210 121.357  1.00  0.00     0.073 C 
BRANCH  17  18
HETATM   18  S1  UNL     1     -15.768  81.880 121.555  1.00  0.00    -0.173 SA
HETATM   19  C1  UNL     1     -15.009  82.640 123.017  1.00  0.00     0.089 C 
ENDBRANCH  17  18
ENDBRANCH  16  17
ENDBRANCH  15  16
ENDBRANCH  14  15
BRANCH  14  20
HETATM   20  C19 UNL     1     -15.368  76.653 121.613  1.00  0.00     0.177 C 
BRANCH  20  21
HETATM   21  O7  UNL     1     -14.474  76.637 122.738  1.00  0.00    -0.390 OA
ATOM     22  H7  UNL     1     -14.995  76.365 123.485  1.00  0.00     0.210 HD
ENDBRANCH  20  21
BRANCH  20  23
HETATM   23  C20 UNL     1     -15.607  75.162 121.392  1.00  0.00     0.172 C 
BRANCH  23  24
HETATM   24  O8  UNL     1     -14.434  74.422 121.407  1.00  0.00    -0.391 OA
ATOM     25  H8  UNL     1     -14.541  73.570 121.814  1.00  0.00     0.210 HD
ENDBRANCH  23  24
BRANCH  23  26
HETATM   26  C21 UNL     1     -16.461  74.670 122.539  1.00  0.00     0.198 C 
BRANCH  26  27
HETATM   27  O9  UNL     1     -15.745  74.059 123.555  1.00  0.00    -0.398 OA
ATOM     28  H9  UNL     1     -16.055  73.190 123.779  1.00  0.00     0.209 HD
ENDBRANCH  26  27
ENDBRANCH  23  26
ENDBRANCH  20  23
ENDBRANCH  14  20
ENDBRANCH  13  14
ENDBRANCH   1  13
BRANCH   5  29
HETATM   29  O2  UNL     1     -10.457  77.305 116.564  1.00  0.00    -0.387 OA
ATOM     30  H2  UNL     1      -9.645  76.894 116.291  1.00  0.00     0.210 HD
ENDBRANCH   5  29
BRANCH  12  31
HETATM   31  O6  UNL     1      -8.344  76.397 117.879  1.00  0.00    -0.389 OA
ATOM     32  H6  UNL     1      -8.175  76.847 118.699  1.00  0.00     0.210 HD
ENDBRANCH  12  31
BRANCH  11  33
HETATM   33  O3  UNL     1      -8.663  75.432 120.185  1.00  0.00    -0.376 OA
ATOM     34  H3  UNL     1      -7.830  75.034 119.964  1.00  0.00     0.211 HD
ENDBRANCH  11  33
BRANCH  11  35
HETATM   35  C17 UNL     1      -9.055  73.602 118.843  1.00  0.00     0.212 C 
HETATM   36  O4  UNL     1      -8.644  73.309 117.686  1.00  0.00    -0.646 OA
HETATM   37  O5  UNL     1      -9.002  72.581 119.775  1.00  0.00    -0.646 OA
ENDBRANCH  11  35
TORSDOF 16
ENDMDL
