MODEL 1
REMARK VINA RESULT: -7.348652698      0.000      0.000
REMARK  15 active torsions:
REMARK  status: ('A' for Active; 'I' for Inactive)
REMARK    1  A    between atoms: C2_2  and  C3_3 
REMARK    2  A    between atoms: C3_3  and  C4_4 
REMARK    3  A    between atoms: C4_4  and  C5_5 
REMARK    4  A    between atoms: C5_5  and  C6_6 
REMARK    5  A    between atoms: C10_10  and  C11_11 
REMARK    6  A    between atoms: C11_11  and  C12_12 
REMARK    7  A    between atoms: C11_11  and  O2_15 
REMARK    8  A    between atoms: C12_12  and  O1_13 
REMARK    9  A    between atoms: O2_15  and  C13_16 
REMARK   10  A    between atoms: C15_19  and  O4_20 
REMARK   11  A    between atoms: C16_22  and  O5_23 
REMARK   12  A    between atoms: C17_25  and  O6_26 
REMARK   13  A    between atoms: C18_28  and  N1_29 
REMARK   14  A    between atoms: C19_33  and  O7_34 
REMARK   15  A    between atoms: C21_37  and  O8_38 
ROOT
HETATM    1  C6  UNL     1      -9.394  76.511 119.567  1.00  0.00     0.009 C 
HETATM    2  C7  UNL     1      -8.900  75.273 118.805  1.00  0.00    -0.012 C 
HETATM    3  C8  UNL     1      -9.725  74.249 118.665  1.00  0.00    -0.027 C 
HETATM    4  C9  UNL     1      -9.058  73.156 117.904  1.00  0.00     0.017 C 
HETATM    5  C10 UNL     1      -9.084  71.857 118.054  1.00  0.00    -0.016 C 
HETATM    6  C18 UNL     1      -9.807  71.061 119.079  1.00  0.00     0.243 C 
HETATM    7  C19 UNL     1     -10.351  72.029 120.147  1.00  0.00     0.156 C 
HETATM    8  C20 UNL     1     -11.492  72.822 119.617  1.00  0.00     0.077 C 
HETATM    9  C21 UNL     1     -11.106  74.220 119.173  1.00  0.00     0.087 C 
HETATM   10  C22 UNL     1     -11.426  75.235 120.232  1.00  0.00     0.043 C 
HETATM   11  C23 UNL     1     -10.244  76.031 120.685  1.00  0.00     0.012 C 
ENDROOT
BRANCH   5  12
HETATM   12  C11 UNL     1      -8.295  71.026 117.108  1.00  0.00     0.179 C 
BRANCH  12  13
HETATM   13  C12 UNL     1      -6.995  71.714 116.727  1.00  0.00     0.201 C 
BRANCH  13  14
HETATM   14  O1  UNL     1      -5.907  71.051 117.333  1.00  0.00    -0.398 OA
ATOM     15  H1  UNL     1      -5.492  70.471 116.704  1.00  0.00     0.209 HD
ENDBRANCH  13  14
ENDBRANCH  12  13
BRANCH  12  16
HETATM   16  O2  UNL     1      -9.052  70.755 115.942  1.00  0.00    -0.347 OA
BRANCH  16  17
HETATM   17  C13 UNL     1      -9.074  69.430 115.599  1.00  0.00     0.291 C 
HETATM   18  O3  UNL     1      -9.813  68.656 116.528  1.00  0.00    -0.356 OA
HETATM   19  C14 UNL     1      -9.375  67.347 116.351  1.00  0.00     0.205 C 
HETATM   20  C15 UNL     1      -9.657  66.792 114.996  1.00  0.00     0.173 C 
HETATM   21  C16 UNL     1      -9.313  67.739 113.869  1.00  0.00     0.182 C 
HETATM   22  C17 UNL     1      -9.745  69.144 114.271  1.00  0.00     0.204 C 
BRANCH  20  23
HETATM   23  O4  UNL     1      -8.908  65.604 114.868  1.00  0.00    -0.391 OA
ATOM     24  H4  UNL     1      -9.521  64.907 114.667  1.00  0.00     0.210 HD
ENDBRANCH  20  23
BRANCH  21  25
HETATM   25  O5  UNL     1      -9.992  67.295 112.740  1.00  0.00    -0.390 OA
ATOM     26  H5  UNL     1      -9.758  67.878 112.026  1.00  0.00     0.210 HD
ENDBRANCH  21  25
BRANCH  22  27
HETATM   27  O6  UNL     1     -11.133  69.079 114.515  1.00  0.00    -0.388 OA
ATOM     28  H6  UNL     1     -11.403  68.185 114.344  1.00  0.00     0.210 HD
ENDBRANCH  22  27
ENDBRANCH  16  17
ENDBRANCH  12  16
ENDBRANCH   5  12
BRANCH   6  29
HETATM   29  N1  UNL     1      -8.803  70.283 119.782  1.00  0.00    -0.069 N 
ATOM     30  H13 UNL     1      -7.870  70.696 119.740  1.00  0.00     0.275 HD
ATOM     31  H12 UNL     1      -8.907  70.310 120.796  1.00  0.00     0.275 HD
ATOM     32  H11 UNL     1      -8.845  69.340 119.396  1.00  0.00     0.275 HD
ENDBRANCH   6  29
BRANCH   7  33
HETATM   33  O7  UNL     1     -10.630  71.312 121.287  1.00  0.00    -0.393 OA
ATOM     34  H7  UNL     1     -10.917  71.916 121.962  1.00  0.00     0.210 HD
ENDBRANCH   7  33
BRANCH   9  35
HETATM   35  O8  UNL     1     -12.022  74.503 118.112  1.00  0.00    -0.385 OA
ATOM     36  H8  UNL     1     -12.517  73.722 117.895  1.00  0.00     0.211 HD
ENDBRANCH   9  35
BRANCH   1  37
HETATM   37  C5  UNL     1      -9.853  77.486 118.600  1.00  0.00     0.008 C 
BRANCH  37  38
HETATM   38  C4  UNL     1      -9.625  77.393 117.160  1.00  0.00     0.001 C 
BRANCH  38  39
HETATM   39  C3  UNL     1     -10.759  77.285 116.206  1.00  0.00    -0.000 C 
BRANCH  39  40
HETATM   40  C2  UNL     1     -10.302  77.616 114.776  1.00  0.00    -0.005 C 
HETATM   41  C1  UNL     1     -11.327  78.549 114.186  1.00  0.00     0.005 C 
ENDBRANCH  39  40
ENDBRANCH  38  39
ENDBRANCH  37  38
ENDBRANCH   1  37
TORSDOF 15
ENDMDL
MODEL 2
REMARK VINA RESULT: -7.258177221      1.213      1.719
REMARK  15 active torsions:
REMARK  status: ('A' for Active; 'I' for Inactive)
REMARK    1  A    between atoms: C2_2  and  C3_3 
REMARK    2  A    between atoms: C3_3  and  C4_4 
REMARK    3  A    between atoms: C4_4  and  C5_5 
REMARK    4  A    between atoms: C5_5  and  C6_6 
REMARK    5  A    between atoms: C10_10  and  C11_11 
REMARK    6  A    between atoms: C11_11  and  C12_12 
REMARK    7  A    between atoms: C11_11  and  O2_15 
REMARK    8  A    between atoms: C12_12  and  O1_13 
REMARK    9  A    between atoms: O2_15  and  C13_16 
REMARK   10  A    between atoms: C15_19  and  O4_20 
REMARK   11  A    between atoms: C16_22  and  O5_23 
REMARK   12  A    between atoms: C17_25  and  O6_26 
REMARK   13  A    between atoms: C18_28  and  N1_29 
REMARK   14  A    between atoms: C19_33  and  O7_34 
REMARK   15  A    between atoms: C21_37  and  O8_38 
ROOT
HETATM    1  C6  UNL     1      -9.458  76.368 119.766  1.00  0.00     0.009 C 
HETATM    2  C7  UNL     1      -8.948  75.166 118.960  1.00  0.00    -0.012 C 
HETATM    3  C8  UNL     1      -9.759  74.135 118.785  1.00  0.00    -0.027 C 
HETATM    4  C9  UNL     1      -9.079  73.079 117.985  1.00  0.00     0.017 C 
HETATM    5  C10 UNL     1      -9.087  71.775 118.089  1.00  0.00    -0.016 C 
HETATM    6  C18 UNL     1      -9.797  70.935 119.086  1.00  0.00     0.243 C 
HETATM    7  C19 UNL     1     -10.352  71.856 120.188  1.00  0.00     0.156 C 
HETATM    8  C20 UNL     1     -11.505  72.651 119.688  1.00  0.00     0.077 C 
HETATM    9  C21 UNL     1     -11.139  74.070 119.293  1.00  0.00     0.087 C 
HETATM   10  C22 UNL     1     -11.471  75.041 120.389  1.00  0.00     0.043 C 
HETATM   11  C23 UNL     1     -10.299  75.837 120.868  1.00  0.00     0.012 C 
ENDROOT
BRANCH   5  12
HETATM   12  C11 UNL     1      -8.288  70.990 117.113  1.00  0.00     0.179 C 
BRANCH  12  13
HETATM   13  C12 UNL     1      -7.011  71.721 116.735  1.00  0.00     0.201 C 
BRANCH  13  14
HETATM   14  O1  UNL     1      -5.898  71.065 117.302  1.00  0.00    -0.398 OA
ATOM     15  H1  UNL     1      -5.119  71.251 116.791  1.00  0.00     0.209 HD
ENDBRANCH  13  14
ENDBRANCH  12  13
BRANCH  12  16
HETATM   16  O2  UNL     1      -9.051  70.729 115.949  1.00  0.00    -0.347 OA
BRANCH  16  17
HETATM   17  C13 UNL     1      -9.078  69.407 115.596  1.00  0.00     0.291 C 
HETATM   18  O3  UNL     1      -9.824  68.629 116.515  1.00  0.00    -0.356 OA
HETATM   19  C14 UNL     1      -9.391  67.319 116.331  1.00  0.00     0.205 C 
HETATM   20  C15 UNL     1      -9.669  66.776 114.970  1.00  0.00     0.173 C 
HETATM   21  C16 UNL     1      -9.316  67.730 113.851  1.00  0.00     0.182 C 
HETATM   22  C17 UNL     1      -9.744  69.134 114.263  1.00  0.00     0.204 C 
BRANCH  20  23
HETATM   23  O4  UNL     1      -8.925  65.587 114.836  1.00  0.00    -0.391 OA
ATOM     24  H4  UNL     1      -9.019  65.297 113.936  1.00  0.00     0.210 HD
ENDBRANCH  20  23
BRANCH  21  25
HETATM   25  O5  UNL     1      -9.993  67.298 112.717  1.00  0.00    -0.390 OA
ATOM     26  H5  UNL     1     -10.412  68.060 112.334  1.00  0.00     0.210 HD
ENDBRANCH  21  25
BRANCH  22  27
HETATM   27  O6  UNL     1     -11.133  69.073 114.500  1.00  0.00    -0.388 OA
ATOM     28  H6  UNL     1     -11.555  68.957 113.657  1.00  0.00     0.210 HD
ENDBRANCH  22  27
ENDBRANCH  16  17
ENDBRANCH  12  16
ENDBRANCH   5  12
BRANCH   6  29
HETATM   29  N1  UNL     1      -8.780  70.146 119.759  1.00  0.00    -0.069 N 
ATOM     30  H13 UNL     1      -7.829  70.419 119.512  1.00  0.00     0.275 HD
ATOM     31  H12 UNL     1      -8.713  70.341 120.758  1.00  0.00     0.275 HD
ATOM     32  H11 UNL     1      -8.987  69.169 119.552  1.00  0.00     0.275 HD
ENDBRANCH   6  29
BRANCH   7  33
HETATM   33  O7  UNL     1     -10.619  71.095 121.302  1.00  0.00    -0.393 OA
ATOM     34  H7  UNL     1     -11.137  71.614 121.906  1.00  0.00     0.210 HD
ENDBRANCH   7  33
BRANCH   9  35
HETATM   35  O8  UNL     1     -12.060  74.378 118.244  1.00  0.00    -0.385 OA
ATOM     36  H8  UNL     1     -12.663  73.654 118.120  1.00  0.00     0.211 HD
ENDBRANCH   9  35
BRANCH   1  37
HETATM   37  C5  UNL     1      -9.932  77.370 118.835  1.00  0.00     0.008 C 
BRANCH  37  38
HETATM   38  C4  UNL     1     -10.992  78.332 119.125  1.00  0.00     0.001 C 
BRANCH  38  39
HETATM   39  C3  UNL     1     -12.318  78.242 118.460  1.00  0.00    -0.000 C 
BRANCH  39  40
HETATM   40  C2  UNL     1     -13.438  78.073 119.499  1.00  0.00    -0.005 C 
HETATM   41  C1  UNL     1     -12.868  78.468 120.836  1.00  0.00     0.005 C 
ENDBRANCH  39  40
ENDBRANCH  38  39
ENDBRANCH  37  38
ENDBRANCH   1  37
TORSDOF 15
ENDMDL
MODEL 3
REMARK VINA RESULT: -7.137282111      4.532      8.513
REMARK  15 active torsions:
REMARK  status: ('A' for Active; 'I' for Inactive)
REMARK    1  A    between atoms: C2_2  and  C3_3 
REMARK    2  A    between atoms: C3_3  and  C4_4 
REMARK    3  A    between atoms: C4_4  and  C5_5 
REMARK    4  A    between atoms: C5_5  and  C6_6 
REMARK    5  A    between atoms: C10_10  and  C11_11 
REMARK    6  A    between atoms: C11_11  and  C12_12 
REMARK    7  A    between atoms: C11_11  and  O2_15 
REMARK    8  A    between atoms: C12_12  and  O1_13 
REMARK    9  A    between atoms: O2_15  and  C13_16 
REMARK   10  A    between atoms: C15_19  and  O4_20 
REMARK   11  A    between atoms: C16_22  and  O5_23 
REMARK   12  A    between atoms: C17_25  and  O6_26 
REMARK   13  A    between atoms: C18_28  and  N1_29 
REMARK   14  A    between atoms: C19_33  and  O7_34 
REMARK   15  A    between atoms: C21_37  and  O8_38 
ROOT
HETATM    1  C6  UNL     1      -8.661  73.609 119.466  1.00  0.00     0.009 C 
HETATM    2  C7  UNL     1     -10.140  73.263 119.690  1.00  0.00    -0.012 C 
HETATM    3  C8  UNL     1     -11.059  74.088 119.215  1.00  0.00    -0.027 C 
HETATM    4  C9  UNL     1     -12.420  73.578 119.539  1.00  0.00     0.017 C 
HETATM    5  C10 UNL     1     -13.508  74.197 119.917  1.00  0.00    -0.016 C 
HETATM    6  C18 UNL     1     -13.708  75.649 120.154  1.00  0.00     0.243 C 
HETATM    7  C19 UNL     1     -12.329  76.336 120.135  1.00  0.00     0.156 C 
HETATM    8  C20 UNL     1     -11.781  76.397 118.754  1.00  0.00     0.077 C 
HETATM    9  C21 UNL     1     -10.761  75.314 118.457  1.00  0.00     0.087 C 
HETATM   10  C22 UNL     1      -9.360  75.835 118.595  1.00  0.00     0.043 C 
HETATM   11  C23 UNL     1      -8.529  75.082 119.585  1.00  0.00     0.012 C 
ENDROOT
BRANCH   5  12
HETATM   12  C11 UNL     1     -14.727  73.383 120.162  1.00  0.00     0.179 C 
BRANCH  12  13
HETATM   13  C12 UNL     1     -14.803  72.205 119.207  1.00  0.00     0.201 C 
BRANCH  13  14
HETATM   14  O1  UNL     1     -14.680  70.997 119.924  1.00  0.00    -0.398 OA
ATOM     15  H1  UNL     1     -15.495  70.510 119.878  1.00  0.00     0.209 HD
ENDBRANCH  13  14
ENDBRANCH  12  13
BRANCH  12  16
HETATM   16  O2  UNL     1     -15.888  74.183 120.029  1.00  0.00    -0.347 OA
BRANCH  16  17
HETATM   17  C13 UNL     1     -16.939  73.756 120.796  1.00  0.00     0.291 C 
HETATM   18  O3  UNL     1     -16.769  72.417 121.226  1.00  0.00    -0.356 OA
HETATM   19  C14 UNL     1     -18.045  71.969 121.558  1.00  0.00     0.205 C 
HETATM   20  C15 UNL     1     -18.673  72.716 122.687  1.00  0.00     0.173 C 
HETATM   21  C16 UNL     1     -18.531  74.217 122.575  1.00  0.00     0.182 C 
HETATM   22  C17 UNL     1     -17.123  74.532 122.084  1.00  0.00     0.204 C 
BRANCH  20  23
HETATM   23  O4  UNL     1     -20.038  72.365 122.708  1.00  0.00    -0.391 OA
ATOM     24  H4  UNL     1     -20.527  73.126 122.418  1.00  0.00     0.210 HD
ENDBRANCH  20  23
BRANCH  21  25
HETATM   25  O5  UNL     1     -18.765  74.745 123.839  1.00  0.00    -0.390 OA
ATOM     26  H5  UNL     1     -18.805  75.689 123.744  1.00  0.00     0.210 HD
ENDBRANCH  21  25
BRANCH  22  27
HETATM   27  O6  UNL     1     -16.237  73.976 123.031  1.00  0.00    -0.388 OA
ATOM     28  H6  UNL     1     -15.585  74.639 123.223  1.00  0.00     0.210 HD
ENDBRANCH  22  27
ENDBRANCH  16  17
ENDBRANCH  12  16
ENDBRANCH   5  12
BRANCH   6  29
HETATM   29  N1  UNL     1     -14.156  75.785 121.528  1.00  0.00    -0.069 N 
ATOM     30  H13 UNL     1     -14.916  75.149 121.769  1.00  0.00     0.275 HD
ATOM     31  H12 UNL     1     -13.480  75.439 122.209  1.00  0.00     0.275 HD
ATOM     32  H11 UNL     1     -14.394  76.768 121.659  1.00  0.00     0.275 HD
ENDBRANCH   6  29
BRANCH   7  33
HETATM   33  O7  UNL     1     -12.438  77.554 120.765  1.00  0.00    -0.393 OA
ATOM     34  H7  UNL     1     -11.564  77.877 120.952  1.00  0.00     0.210 HD
ENDBRANCH   7  33
BRANCH   9  35
HETATM   35  O8  UNL     1     -10.921  75.073 117.057  1.00  0.00    -0.385 OA
ATOM     36  H8  UNL     1     -10.760  75.873 116.570  1.00  0.00     0.211 HD
ENDBRANCH   9  35
BRANCH   1  37
HETATM   37  C5  UNL     1      -8.194  72.875 118.308  1.00  0.00     0.008 C 
BRANCH  37  38
HETATM   38  C4  UNL     1      -8.777  71.622 117.834  1.00  0.00     0.001 C 
BRANCH  38  39
HETATM   39  C3  UNL     1      -8.262  70.308 118.299  1.00  0.00    -0.000 C 
BRANCH  39  40
HETATM   40  C2  UNL     1      -9.345  69.542 119.075  1.00  0.00    -0.005 C 
HETATM   41  C1  UNL     1      -9.347  68.127 118.557  1.00  0.00     0.005 C 
ENDBRANCH  39  40
ENDBRANCH  38  39
ENDBRANCH  37  38
ENDBRANCH   1  37
TORSDOF 15
ENDMDL
MODEL 4
REMARK VINA RESULT: -7.013924005      4.097      8.756
REMARK  15 active torsions:
REMARK  status: ('A' for Active; 'I' for Inactive)
REMARK    1  A    between atoms: C2_2  and  C3_3 
REMARK    2  A    between atoms: C3_3  and  C4_4 
REMARK    3  A    between atoms: C4_4  and  C5_5 
REMARK    4  A    between atoms: C5_5  and  C6_6 
REMARK    5  A    between atoms: C10_10  and  C11_11 
REMARK    6  A    between atoms: C11_11  and  C12_12 
REMARK    7  A    between atoms: C11_11  and  O2_15 
REMARK    8  A    between atoms: C12_12  and  O1_13 
REMARK    9  A    between atoms: O2_15  and  C13_16 
REMARK   10  A    between atoms: C15_19  and  O4_20 
REMARK   11  A    between atoms: C16_22  and  O5_23 
REMARK   12  A    between atoms: C17_25  and  O6_26 
REMARK   13  A    between atoms: C18_28  and  N1_29 
REMARK   14  A    between atoms: C19_33  and  O7_34 
REMARK   15  A    between atoms: C21_37  and  O8_38 
ROOT
HETATM    1  C6  UNL     1      -9.944  71.380 119.890  1.00  0.00     0.009 C 
HETATM    2  C7  UNL     1     -11.172  72.299 119.933  1.00  0.00    -0.012 C 
HETATM    3  C8  UNL     1     -11.061  73.522 119.442  1.00  0.00    -0.027 C 
HETATM    4  C9  UNL     1     -12.354  74.248 119.581  1.00  0.00     0.017 C 
HETATM    5  C10 UNL     1     -12.619  75.489 119.899  1.00  0.00    -0.016 C 
HETATM    6  C18 UNL     1     -11.668  76.577 120.241  1.00  0.00     0.243 C 
HETATM    7  C19 UNL     1     -10.269  75.957 120.422  1.00  0.00     0.156 C 
HETATM    8  C20 UNL     1      -9.695  75.545 119.114  1.00  0.00     0.077 C 
HETATM    9  C21 UNL     1      -9.837  74.062 118.828  1.00  0.00     0.087 C 
HETATM   10  C22 UNL     1      -8.571  73.323 119.152  1.00  0.00     0.043 C 
HETATM   11  C23 UNL     1      -8.751  72.224 120.151  1.00  0.00     0.012 C 
ENDROOT
BRANCH   5  12
HETATM   12  C11 UNL     1     -14.043  75.910 119.949  1.00  0.00     0.179 C 
BRANCH  12  13
HETATM   13  C12 UNL     1     -14.216  77.324 119.424  1.00  0.00     0.201 C 
BRANCH  13  14
HETATM   14  O1  UNL     1     -14.746  78.151 120.437  1.00  0.00    -0.398 OA
ATOM     15  H1  UNL     1     -15.216  78.879 120.047  1.00  0.00     0.209 HD
ENDBRANCH  13  14
ENDBRANCH  12  13
BRANCH  12  16
HETATM   16  O2  UNL     1     -14.535  75.828 121.274  1.00  0.00    -0.347 OA
BRANCH  16  17
HETATM   17  C13 UNL     1     -15.703  75.122 121.383  1.00  0.00     0.291 C 
HETATM   18  O3  UNL     1     -15.514  73.743 121.116  1.00  0.00    -0.356 OA
HETATM   19  C14 UNL     1     -16.775  73.251 120.794  1.00  0.00     0.205 C 
HETATM   20  C15 UNL     1     -17.764  73.350 121.907  1.00  0.00     0.173 C 
HETATM   21  C16 UNL     1     -17.760  74.691 122.605  1.00  0.00     0.182 C 
HETATM   22  C17 UNL     1     -16.314  75.143 122.769  1.00  0.00     0.204 C 
BRANCH  20  23
HETATM   23  O4  UNL     1     -19.038  73.103 121.354  1.00  0.00    -0.391 OA
ATOM     24  H4  UNL     1     -19.319  73.906 120.930  1.00  0.00     0.210 HD
ENDBRANCH  20  23
BRANCH  21  25
HETATM   25  O5  UNL     1     -18.386  74.513 123.834  1.00  0.00    -0.390 OA
ATOM     26  H5  UNL     1     -19.041  75.197 123.914  1.00  0.00     0.210 HD
ENDBRANCH  21  25
BRANCH  22  27
HETATM   27  O6  UNL     1     -15.666  74.142 123.522  1.00  0.00    -0.388 OA
ATOM     28  H6  UNL     1     -15.732  74.394 124.435  1.00  0.00     0.210 HD
ENDBRANCH  22  27
ENDBRANCH  16  17
ENDBRANCH  12  16
ENDBRANCH   5  12
BRANCH   6  29
HETATM   29  N1  UNL     1     -12.028  77.038 121.570  1.00  0.00    -0.069 N 
ATOM     30  H13 UNL     1     -12.410  77.984 121.579  1.00  0.00     0.275 HD
ATOM     31  H12 UNL     1     -12.848  76.566 121.952  1.00  0.00     0.275 HD
ATOM     32  H11 UNL     1     -11.195  76.932 122.149  1.00  0.00     0.275 HD
ENDBRANCH   6  29
BRANCH   7  33
HETATM   33  O7  UNL     1      -9.491  76.834 121.141  1.00  0.00    -0.393 OA
ATOM     34  H7  UNL     1      -8.955  76.336 121.747  1.00  0.00     0.210 HD
ENDBRANCH   7  33
BRANCH   9  35
HETATM   35  O8  UNL     1      -9.938  74.000 117.403  1.00  0.00    -0.385 OA
ATOM     36  H8  UNL     1      -9.079  73.855 117.024  1.00  0.00     0.211 HD
ENDBRANCH   9  35
BRANCH   1  37
HETATM   37  C5  UNL     1     -10.057  70.526 118.726  1.00  0.00     0.008 C 
BRANCH  37  38
HETATM   38  C4  UNL     1      -9.058  69.539 118.326  1.00  0.00     0.001 C 
BRANCH  38  39
HETATM   39  C3  UNL     1      -9.354  68.083 118.366  1.00  0.00    -0.000 C 
BRANCH  39  40
HETATM   40  C2  UNL     1      -9.305  67.477 116.955  1.00  0.00    -0.005 C 
HETATM   41  C1  UNL     1      -8.881  68.575 116.014  1.00  0.00     0.005 C 
ENDBRANCH  39  40
ENDBRANCH  38  39
ENDBRANCH  37  38
ENDBRANCH   1  37
TORSDOF 15
ENDMDL
MODEL 5
REMARK VINA RESULT: -6.983217570      4.642      8.777
REMARK  15 active torsions:
REMARK  status: ('A' for Active; 'I' for Inactive)
REMARK    1  A    between atoms: C2_2  and  C3_3 
REMARK    2  A    between atoms: C3_3  and  C4_4 
REMARK    3  A    between atoms: C4_4  and  C5_5 
REMARK    4  A    between atoms: C5_5  and  C6_6 
REMARK    5  A    between atoms: C10_10  and  C11_11 
REMARK    6  A    between atoms: C11_11  and  C12_12 
REMARK    7  A    between atoms: C11_11  and  O2_15 
REMARK    8  A    between atoms: C12_12  and  O1_13 
REMARK    9  A    between atoms: O2_15  and  C13_16 
REMARK   10  A    between atoms: C15_19  and  O4_20 
REMARK   11  A    between atoms: C16_22  and  O5_23 
REMARK   12  A    between atoms: C17_25  and  O6_26 
REMARK   13  A    between atoms: C18_28  and  N1_29 
REMARK   14  A    between atoms: C19_33  and  O7_34 
REMARK   15  A    between atoms: C21_37  and  O8_38 
ROOT
HETATM    1  C6  UNL     1      -8.692  73.685 119.532  1.00  0.00     0.009 C 
HETATM    2  C7  UNL     1     -10.222  73.693 119.658  1.00  0.00    -0.012 C 
HETATM    3  C8  UNL     1     -10.877  74.790 119.315  1.00  0.00    -0.027 C 
HETATM    4  C9  UNL     1     -12.340  74.595 119.513  1.00  0.00     0.017 C 
HETATM    5  C10 UNL     1     -13.265  75.399 119.968  1.00  0.00    -0.016 C 
HETATM    6  C18 UNL     1     -13.117  76.795 120.452  1.00  0.00     0.243 C 
HETATM    7  C19 UNL     1     -11.614  77.104 120.586  1.00  0.00     0.156 C 
HETATM    8  C20 UNL     1     -10.978  77.250 119.250  1.00  0.00     0.077 C 
HETATM    9  C21 UNL     1     -10.238  76.008 118.791  1.00  0.00     0.087 C 
HETATM   10  C22 UNL     1      -8.764  76.127 119.051  1.00  0.00     0.043 C 
HETATM   11  C23 UNL     1      -8.211  75.036 119.911  1.00  0.00     0.012 C 
ENDROOT
BRANCH   5  12
HETATM   12  C11 UNL     1     -14.660  74.892 120.040  1.00  0.00     0.179 C 
BRANCH  12  13
HETATM   13  C12 UNL     1     -15.656  75.964 119.633  1.00  0.00     0.201 C 
BRANCH  13  14
HETATM   14  O1  UNL     1     -15.789  75.987 118.229  1.00  0.00    -0.398 OA
ATOM     15  H1  UNL     1     -15.492  76.824 117.889  1.00  0.00     0.209 HD
ENDBRANCH  13  14
ENDBRANCH  12  13
BRANCH  12  16
HETATM   16  O2  UNL     1     -14.953  74.440 121.349  1.00  0.00    -0.347 OA
BRANCH  16  17
HETATM   17  C13 UNL     1     -16.281  74.180 121.555  1.00  0.00     0.291 C 
HETATM   18  O3  UNL     1     -16.591  72.813 121.349  1.00  0.00    -0.356 OA
HETATM   19  C14 UNL     1     -17.963  72.774 121.120  1.00  0.00     0.205 C 
HETATM   20  C15 UNL     1     -18.784  73.240 122.276  1.00  0.00     0.173 C 
HETATM   21  C16 UNL     1     -18.276  74.518 122.904  1.00  0.00     0.182 C 
HETATM   22  C17 UNL     1     -16.755  74.452 122.968  1.00  0.00     0.204 C 
BRANCH  20  23
HETATM   23  O4  UNL     1     -20.099  73.429 121.804  1.00  0.00    -0.391 OA
ATOM     24  H4  UNL     1     -20.395  72.594 121.461  1.00  0.00     0.210 HD
ENDBRANCH  20  23
BRANCH  21  25
HETATM   25  O5  UNL     1     -18.842  74.604 124.170  1.00  0.00    -0.390 OA
ATOM     26  H5  UNL     1     -18.373  75.284 124.640  1.00  0.00     0.210 HD
ENDBRANCH  21  25
BRANCH  22  27
HETATM   27  O6  UNL     1     -16.438  73.313 123.737  1.00  0.00    -0.388 OA
ATOM     28  H6  UNL     1     -17.086  72.650 123.531  1.00  0.00     0.210 HD
ENDBRANCH  22  27
ENDBRANCH  16  17
ENDBRANCH  12  16
ENDBRANCH   5  12
BRANCH   6  29
HETATM   29  N1  UNL     1     -13.608  76.812 121.819  1.00  0.00    -0.069 N 
ATOM     30  H13 UNL     1     -14.627  76.817 121.882  1.00  0.00     0.275 HD
ATOM     31  H12 UNL     1     -13.455  75.934 122.314  1.00  0.00     0.275 HD
ATOM     32  H11 UNL     1     -13.171  77.614 122.273  1.00  0.00     0.275 HD
ENDBRANCH   6  29
BRANCH   7  33
HETATM   33  O7  UNL     1     -11.462  78.189 121.417  1.00  0.00    -0.393 OA
ATOM     34  H7  UNL     1     -11.564  77.898 122.316  1.00  0.00     0.210 HD
ENDBRANCH   7  33
BRANCH   9  35
HETATM   35  O8  UNL     1     -10.359  76.049 117.367  1.00  0.00    -0.385 OA
ATOM     36  H8  UNL     1     -10.478  75.169 117.027  1.00  0.00     0.211 HD
ENDBRANCH   9  35
BRANCH   1  37
HETATM   37  C5  UNL     1      -8.344  73.057 118.275  1.00  0.00     0.008 C 
BRANCH  37  38
HETATM   38  C4  UNL     1      -8.896  71.790 117.803  1.00  0.00     0.001 C 
BRANCH  38  39
HETATM   39  C3  UNL     1      -8.362  70.489 118.285  1.00  0.00    -0.000 C 
BRANCH  39  40
HETATM   40  C2  UNL     1      -9.387  69.778 119.183  1.00  0.00    -0.005 C 
HETATM   41  C1  UNL     1      -9.062  70.148 120.607  1.00  0.00     0.005 C 
ENDBRANCH  39  40
ENDBRANCH  38  39
ENDBRANCH  37  38
ENDBRANCH   1  37
TORSDOF 15
ENDMDL
