MODEL 1
REMARK VINA RESULT: -7.505442886      0.000      0.000
REMARK  7 active torsions:
REMARK  status: ('A' for Active; 'I' for Inactive)
REMARK    1  A    between atoms: C2_2  and  N1_3 
REMARK    2  A    between atoms: C2_2  and  C3_8 
REMARK    3  A    between atoms: N1_3  and  N2_5 
REMARK       I    between atoms: C3_8  and  N3_10 
REMARK    4  A    between atoms: N3_10  and  C4_12 
REMARK    5  A    between atoms: C6_15  and  N5_16 
REMARK    6  A    between atoms: N5_16  and  N6_18 
REMARK    7  A    between atoms: N6_18  and  C7_20 
ROOT
HETATM    1  C4  UNL     1      28.199  46.465   5.627  1.00  0.00     0.094 A 
HETATM    2  C5  UNL     1      28.798  47.571   6.227  1.00  0.00     0.128 A 
HETATM    3  N4  UNL     1      29.967  48.155   5.674  1.00  0.00    -0.095 NA
HETATM    4  C6  UNL     1      28.189  48.047   7.367  1.00  0.00     0.193 A 
HETATM    5  O3  UNL     1      27.110  47.490   7.858  1.00  0.00    -0.253 OA
HETATM    6  C8  UNL     1      26.523  46.462   7.330  1.00  0.00     0.316 A 
HETATM    7  O4  UNL     1      25.478  45.919   7.800  1.00  0.00    -0.257 OA
HETATM    8  C9  UNL     1      27.053  45.906   6.182  1.00  0.00     0.150 A 
HETATM    9  N7  UNL     1      26.464  44.779   5.549  1.00  0.00    -0.093 NA
ENDROOT
BRANCH   1  10
HETATM   10  N3  UNL     1      28.767  45.925   4.457  1.00  0.00    -0.322 N 
HETATM   11  C3  UNL     1      29.886  45.033   4.530  1.00  0.00     0.246 C 
HETATM   12  O1  UNL     1      30.354  44.742   5.657  1.00  0.00    -0.271 OA
ATOM     13  H3  UNL     1      28.377  46.171   3.547  1.00  0.00     0.169 HD
BRANCH  11  14
HETATM   14  C2  UNL     1      30.504  44.451   3.337  1.00  0.00     0.186 C 
HETATM   15  C1  UNL     1      29.500  43.819   2.402  1.00  0.00     0.044 C 
BRANCH  14  16
HETATM   16  N1  UNL     1      31.329  45.415   2.689  1.00  0.00    -0.329 N 
ATOM     17  H1  UNL     1      31.525  45.379   1.689  1.00  0.00     0.180 HD
BRANCH  16  18
HETATM   18  N2  UNL     1      31.842  46.398   3.502  1.00  0.00    -0.349 N 
ATOM     19  H22 UNL     1      32.358  46.168   4.350  1.00  0.00     0.176 HD
ATOM     20  H21 UNL     1      31.671  47.356   3.195  1.00  0.00     0.176 HD
ENDBRANCH  16  18
ENDBRANCH  14  16
ENDBRANCH  11  14
ENDBRANCH   1  10
BRANCH   4  21
HETATM   21  N5  UNL     1      28.765  49.186   8.028  1.00  0.00    -0.276 N 
ATOM     22  H5  UNL     1      29.238  49.900   7.473  1.00  0.00     0.189 HD
BRANCH  21  23
HETATM   23  N6  UNL     1      28.689  49.333   9.398  1.00  0.00    -0.275 N 
ATOM     24  H6  UNL     1      27.783  49.329   9.868  1.00  0.00     0.189 HD
BRANCH  23  25
HETATM   25  C7  UNL     1      29.755  49.474  10.065  1.00  0.00     0.368 C 
HETATM   26  O2  UNL     1      30.674  49.574  10.891  1.00  0.00    -0.282 OA
ENDBRANCH  23  25
ENDBRANCH  21  23
ENDBRANCH   4  21
TORSDOF 7
ENDMDL
MODEL 2
REMARK VINA RESULT: -7.434882992      2.424      5.578
REMARK  7 active torsions:
REMARK  status: ('A' for Active; 'I' for Inactive)
REMARK    1  A    between atoms: C2_2  and  N1_3 
REMARK    2  A    between atoms: C2_2  and  C3_8 
REMARK    3  A    between atoms: N1_3  and  N2_5 
REMARK       I    between atoms: C3_8  and  N3_10 
REMARK    4  A    between atoms: N3_10  and  C4_12 
REMARK    5  A    between atoms: C6_15  and  N5_16 
REMARK    6  A    between atoms: N5_16  and  N6_18 
REMARK    7  A    between atoms: N6_18  and  C7_20 
ROOT
HETATM    1  C4  UNL     1      28.371  46.582   7.721  1.00  0.00     0.094 A 
HETATM    2  C5  UNL     1      29.453  46.952   6.925  1.00  0.00     0.128 A 
HETATM    3  N4  UNL     1      30.771  46.968   7.452  1.00  0.00    -0.095 NA
HETATM    4  C6  UNL     1      29.161  47.293   5.624  1.00  0.00     0.193 A 
HETATM    5  O3  UNL     1      27.935  47.270   5.162  1.00  0.00    -0.253 OA
HETATM    6  C8  UNL     1      26.902  46.933   5.868  1.00  0.00     0.316 A 
HETATM    7  O4  UNL     1      25.714  46.909   5.427  1.00  0.00    -0.257 OA
HETATM    8  C9  UNL     1      27.085  46.572   7.189  1.00  0.00     0.150 A 
HETATM    9  N7  UNL     1      26.000  46.191   8.023  1.00  0.00    -0.093 NA
ENDROOT
BRANCH   1  10
HETATM   10  N3  UNL     1      28.594  46.221   9.064  1.00  0.00    -0.322 N 
HETATM   11  C3  UNL     1      28.728  47.222  10.080  1.00  0.00     0.246 C 
HETATM   12  O1  UNL     1      28.644  48.430   9.752  1.00  0.00    -0.271 OA
ATOM     13  H3  UNL     1      28.661  45.234   9.316  1.00  0.00     0.169 HD
BRANCH  11  14
HETATM   14  C2  UNL     1      28.961  46.886  11.486  1.00  0.00     0.186 C 
HETATM   15  C1  UNL     1      28.695  45.433  11.797  1.00  0.00     0.044 C 
BRANCH  14  16
HETATM   16  N1  UNL     1      30.265  47.305  11.882  1.00  0.00    -0.329 N 
ATOM     17  H1  UNL     1      30.474  47.603  12.835  1.00  0.00     0.180 HD
BRANCH  16  18
HETATM   18  N2  UNL     1      31.222  47.279  10.896  1.00  0.00    -0.349 N 
ATOM     19  H22 UNL     1      31.595  48.140  10.497  1.00  0.00     0.176 HD
ATOM     20  H21 UNL     1      31.524  46.351  10.599  1.00  0.00     0.176 HD
ENDBRANCH  16  18
ENDBRANCH  14  16
ENDBRANCH  11  14
ENDBRANCH   1  10
BRANCH   4  21
HETATM   21  N5  UNL     1      30.240  47.683   4.758  1.00  0.00    -0.276 N 
ATOM     22  H5  UNL     1      30.372  48.670   4.537  1.00  0.00     0.189 HD
BRANCH  21  23
HETATM   23  N6  UNL     1      31.101  46.747   4.221  1.00  0.00    -0.275 N 
ATOM     24  H6  UNL     1      32.015  47.029   3.869  1.00  0.00     0.189 HD
BRANCH  23  25
HETATM   25  C7  UNL     1      30.742  45.534   4.170  1.00  0.00     0.368 C 
HETATM   26  O2  UNL     1      30.530  44.318   4.283  1.00  0.00    -0.282 OA
ENDBRANCH  23  25
ENDBRANCH  21  23
ENDBRANCH   4  21
TORSDOF 7
ENDMDL
MODEL 3
REMARK VINA RESULT: -7.317052131      2.467      3.396
REMARK  7 active torsions:
REMARK  status: ('A' for Active; 'I' for Inactive)
REMARK    1  A    between atoms: C2_2  and  N1_3 
REMARK    2  A    between atoms: C2_2  and  C3_8 
REMARK    3  A    between atoms: N1_3  and  N2_5 
REMARK       I    between atoms: C3_8  and  N3_10 
REMARK    4  A    between atoms: N3_10  and  C4_12 
REMARK    5  A    between atoms: C6_15  and  N5_16 
REMARK    6  A    between atoms: N5_16  and  N6_18 
REMARK    7  A    between atoms: N6_18  and  C7_20 
ROOT
HETATM    1  C4  UNL     1      28.626  46.300   5.709  1.00  0.00     0.094 A 
HETATM    2  C5  UNL     1      27.779  46.024   6.781  1.00  0.00     0.128 A 
HETATM    3  N4  UNL     1      26.559  45.325   6.582  1.00  0.00    -0.095 NA
HETATM    4  C6  UNL     1      28.198  46.465   8.015  1.00  0.00     0.193 A 
HETATM    5  O3  UNL     1      29.329  47.108   8.172  1.00  0.00    -0.253 OA
HETATM    6  C8  UNL     1      30.144  47.385   7.203  1.00  0.00     0.316 A 
HETATM    7  O4  UNL     1      31.239  48.006   7.349  1.00  0.00    -0.257 OA
HETATM    8  C9  UNL     1      29.818  46.986   5.922  1.00  0.00     0.150 A 
HETATM    9  N7  UNL     1      30.662  47.254   4.811  1.00  0.00    -0.093 NA
ENDROOT
BRANCH   1  10
HETATM   10  N3  UNL     1      28.262  45.878   4.416  1.00  0.00    -0.322 N 
HETATM   11  C3  UNL     1      28.618  44.573   3.944  1.00  0.00     0.246 C 
HETATM   12  O1  UNL     1      29.263  43.811   4.704  1.00  0.00    -0.271 OA
ATOM     13  H3  UNL     1      27.739  46.509   3.808  1.00  0.00     0.169 HD
BRANCH  11  14
HETATM   14  C2  UNL     1      28.259  44.098   2.606  1.00  0.00     0.186 C 
HETATM   15  C1  UNL     1      27.764  42.671   2.601  1.00  0.00     0.044 C 
BRANCH  14  16
HETATM   16  N1  UNL     1      27.344  45.001   1.992  1.00  0.00    -0.329 N 
ATOM     17  H1  UNL     1      26.496  45.319   2.462  1.00  0.00     0.180 HD
BRANCH  16  18
HETATM   18  N2  UNL     1      27.679  45.416   0.725  1.00  0.00    -0.349 N 
ATOM     19  H22 UNL     1      26.964  45.609   0.024  1.00  0.00     0.176 HD
ATOM     20  H21 UNL     1      28.678  45.514   0.544  1.00  0.00     0.176 HD
ENDBRANCH  16  18
ENDBRANCH  14  16
ENDBRANCH  11  14
ENDBRANCH   1  10
BRANCH   4  21
HETATM   21  N5  UNL     1      27.363  46.207   9.156  1.00  0.00    -0.276 N 
ATOM     22  H5  UNL     1      26.452  45.768   9.021  1.00  0.00     0.189 HD
BRANCH  21  23
HETATM   23  N6  UNL     1      27.769  46.543  10.432  1.00  0.00    -0.275 N 
ATOM     24  H6  UNL     1      27.299  47.290  10.944  1.00  0.00     0.189 HD
BRANCH  23  25
HETATM   25  C7  UNL     1      28.732  45.913  10.960  1.00  0.00     0.368 C 
HETATM   26  O2  UNL     1      29.776  45.332  11.289  1.00  0.00    -0.282 OA
ENDBRANCH  23  25
ENDBRANCH  21  23
ENDBRANCH   4  21
TORSDOF 7
ENDMDL
MODEL 4
REMARK VINA RESULT: -7.261260051      2.299      3.514
REMARK  7 active torsions:
REMARK  status: ('A' for Active; 'I' for Inactive)
REMARK    1  A    between atoms: C2_2  and  N1_3 
REMARK    2  A    between atoms: C2_2  and  C3_8 
REMARK    3  A    between atoms: N1_3  and  N2_5 
REMARK       I    between atoms: C3_8  and  N3_10 
REMARK    4  A    between atoms: N3_10  and  C4_12 
REMARK    5  A    between atoms: C6_15  and  N5_16 
REMARK    6  A    between atoms: N5_16  and  N6_18 
REMARK    7  A    between atoms: N6_18  and  C7_20 
ROOT
HETATM    1  C4  UNL     1      29.201  45.969   5.389  1.00  0.00     0.094 A 
HETATM    2  C5  UNL     1      28.446  45.738   6.537  1.00  0.00     0.128 A 
HETATM    3  N4  UNL     1      27.156  45.152   6.453  1.00  0.00    -0.095 NA
HETATM    4  C6  UNL     1      29.025  46.110   7.729  1.00  0.00     0.193 A 
HETATM    5  O3  UNL     1      30.217  46.650   7.781  1.00  0.00    -0.253 OA
HETATM    6  C8  UNL     1      30.951  46.881   6.738  1.00  0.00     0.316 A 
HETATM    7  O4  UNL     1      32.105  47.403   6.781  1.00  0.00    -0.257 OA
HETATM    8  C9  UNL     1      30.464  46.545   5.490  1.00  0.00     0.150 A 
HETATM    9  N7  UNL     1      31.212  46.769   4.303  1.00  0.00    -0.093 NA
ENDROOT
BRANCH   1  10
HETATM   10  N3  UNL     1      28.673  45.614   4.133  1.00  0.00    -0.322 N 
HETATM   11  C3  UNL     1      28.806  44.278   3.634  1.00  0.00     0.246 C 
HETATM   12  O1  UNL     1      29.404  43.428   4.336  1.00  0.00    -0.271 OA
ATOM     13  H3  UNL     1      28.190  46.316   3.572  1.00  0.00     0.169 HD
BRANCH  11  14
HETATM   14  C2  UNL     1      28.271  43.869   2.333  1.00  0.00     0.186 C 
HETATM   15  C1  UNL     1      27.702  42.471   2.343  1.00  0.00     0.044 C 
BRANCH  14  16
HETATM   16  N1  UNL     1      27.342  44.839   1.856  1.00  0.00    -0.329 N 
ATOM     17  H1  UNL     1      26.480  45.057   2.356  1.00  0.00     0.180 HD
BRANCH  16  18
HETATM   18  N2  UNL     1      27.684  45.461   0.679  1.00  0.00    -0.349 N 
ATOM     19  H22 UNL     1      28.021  44.929  -0.123  1.00  0.00     0.176 HD
ATOM     20  H21 UNL     1      27.577  46.475   0.670  1.00  0.00     0.176 HD
ENDBRANCH  16  18
ENDBRANCH  14  16
ENDBRANCH  11  14
ENDBRANCH   1  10
BRANCH   4  21
HETATM   21  N5  UNL     1      28.289  45.894   8.946  1.00  0.00    -0.276 N 
ATOM     22  H5  UNL     1      28.478  45.061   9.503  1.00  0.00     0.189 HD
BRANCH  21  23
HETATM   23  N6  UNL     1      27.333  46.793   9.374  1.00  0.00    -0.275 N 
ATOM     24  H6  UNL     1      26.505  46.467   9.872  1.00  0.00     0.189 HD
BRANCH  23  25
HETATM   25  C7  UNL     1      27.497  48.027   9.141  1.00  0.00     0.368 C 
HETATM   26  O2  UNL     1      27.868  49.189   8.923  1.00  0.00    -0.282 OA
ENDBRANCH  23  25
ENDBRANCH  21  23
ENDBRANCH   4  21
TORSDOF 7
ENDMDL
MODEL 5
REMARK VINA RESULT: -7.236585953      2.463      4.098
REMARK  7 active torsions:
REMARK  status: ('A' for Active; 'I' for Inactive)
REMARK    1  A    between atoms: C2_2  and  N1_3 
REMARK    2  A    between atoms: C2_2  and  C3_8 
REMARK    3  A    between atoms: N1_3  and  N2_5 
REMARK       I    between atoms: C3_8  and  N3_10 
REMARK    4  A    between atoms: N3_10  and  C4_12 
REMARK    5  A    between atoms: C6_15  and  N5_16 
REMARK    6  A    between atoms: N5_16  and  N6_18 
REMARK    7  A    between atoms: N6_18  and  C7_20 
ROOT
HETATM    1  C4  UNL     1      28.902  44.907   4.718  1.00  0.00     0.094 A 
HETATM    2  C5  UNL     1      28.062  45.147   5.803  1.00  0.00     0.128 A 
HETATM    3  N4  UNL     1      26.682  44.822   5.741  1.00  0.00    -0.095 NA
HETATM    4  C6  UNL     1      28.651  45.708   6.914  1.00  0.00     0.193 A 
HETATM    5  O3  UNL     1      29.928  45.999   6.947  1.00  0.00    -0.253 OA
HETATM    6  C8  UNL     1      30.742  45.792   5.960  1.00  0.00     0.316 A 
HETATM    7  O4  UNL     1      31.978  46.071   5.986  1.00  0.00    -0.257 OA
HETATM    8  C9  UNL     1      30.253  45.231   4.797  1.00  0.00     0.150 A 
HETATM    9  N7  UNL     1      31.086  44.976   3.675  1.00  0.00    -0.093 NA
ENDROOT
BRANCH   1  10
HETATM   10  N3  UNL     1      28.369  44.334   3.547  1.00  0.00    -0.322 N 
HETATM   11  C3  UNL     1      28.472  42.925   3.308  1.00  0.00     0.246 C 
HETATM   12  O1  UNL     1      29.047  42.208   4.162  1.00  0.00    -0.271 OA
ATOM     13  H3  UNL     1      27.904  44.929   2.861  1.00  0.00     0.169 HD
BRANCH  11  14
HETATM   14  C2  UNL     1      27.931  42.292   2.103  1.00  0.00     0.186 C 
HETATM   15  C1  UNL     1      28.765  41.127   1.626  1.00  0.00     0.044 C 
BRANCH  14  16
HETATM   16  N1  UNL     1      26.563  41.946   2.301  1.00  0.00    -0.329 N 
ATOM     17  H1  UNL     1      26.044  42.236   3.130  1.00  0.00     0.180 HD
BRANCH  16  18
HETATM   18  N2  UNL     1      25.990  41.197   1.301  1.00  0.00    -0.349 N 
ATOM     19  H22 UNL     1      26.460  40.378   0.916  1.00  0.00     0.176 HD
ATOM     20  H21 UNL     1      25.076  41.517   0.980  1.00  0.00     0.176 HD
ENDBRANCH  16  18
ENDBRANCH  14  16
ENDBRANCH  11  14
ENDBRANCH   1  10
BRANCH   4  21
HETATM   21  N5  UNL     1      27.830  45.977   8.063  1.00  0.00    -0.276 N 
ATOM     22  H5  UNL     1      27.823  45.315   8.839  1.00  0.00     0.189 HD
BRANCH  21  23
HETATM   23  N6  UNL     1      27.053  47.115   8.137  1.00  0.00    -0.275 N 
ATOM     24  H6  UNL     1      26.067  47.085   7.876  1.00  0.00     0.189 HD
BRANCH  23  25
HETATM   25  C7  UNL     1      27.577  48.197   8.534  1.00  0.00     0.368 C 
HETATM   26  O2  UNL     1      28.256  49.201   8.793  1.00  0.00    -0.282 OA
ENDBRANCH  23  25
ENDBRANCH  21  23
ENDBRANCH   4  21
TORSDOF 7
ENDMDL
