MODEL 1
REMARK VINA RESULT: -7.861769317      0.000      0.000
REMARK  7 active torsions:
REMARK  status: ('A' for Active; 'I' for Inactive)
REMARK    1  A    between atoms: N1_1  and  C1_4 
REMARK    2  A    between atoms: C2_7  and  N3_8 
REMARK    3  A    between atoms: N3_8  and  N4_10 
REMARK    4  A    between atoms: C3_13  and  N5_14 
REMARK    5  A    between atoms: C4_16  and  S1_17 
REMARK    6  A    between atoms: S1_17  and  C5_18 
REMARK    7  A    between atoms: C5_18  and  C6_19 
ROOT
HETATM    1  C1  UNL     1      28.046  48.314   8.222  1.00  0.00     0.680 A 
HETATM    2  N2  UNL     1      28.969  48.462   7.259  1.00  0.00    -0.173 N 
ATOM      3  H2  UNL     1      29.764  49.089   7.392  1.00  0.00     0.186 HD
HETATM    4  C2  UNL     1      28.824  47.763   6.106  1.00  0.00     0.167 A 
HETATM    5  C3  UNL     1      27.749  46.900   5.903  1.00  0.00     0.148 A 
HETATM    6  C7  UNL     1      26.835  46.780   6.908  1.00  0.00     0.290 A 
HETATM    7  O1  UNL     1      25.865  46.018   6.755  1.00  0.00    -0.265 OA
HETATM    8  N10 UNL     1      27.003  47.488   8.046  1.00  0.00    -0.154 N 
ATOM      9  H10 UNL     1      26.316  47.392   8.794  1.00  0.00     0.187 HD
ENDROOT
BRANCH   5  10
HETATM   10  N5  UNL     1      27.697  46.223   4.672  1.00  0.00    -0.353 N 
HETATM   11  C4  UNL     1      28.083  45.026   4.476  1.00  0.00     0.134 C 
ATOM     12  H5  UNL     1      27.320  46.732   3.871  1.00  0.00     0.166 HD
BRANCH  11  13
HETATM   13  S1  UNL     1      28.018  44.179   2.935  1.00  0.00    -0.117 SA
BRANCH  13  14
HETATM   14  C5  UNL     1      28.363  42.406   3.074  1.00  0.00     0.159 C 
BRANCH  14  15
HETATM   15  C6  UNL     1      27.255  41.564   2.570  1.00  0.00     0.122 A 
HETATM   16  N6  UNL     1      26.444  41.703   1.513  1.00  0.00    -0.272 N 
HETATM   17  N7  UNL     1      25.612  40.683   1.487  1.00  0.00    -0.227 N 
ATOM     18  H6  UNL     1      26.466  42.470   0.842  1.00  0.00     0.190 HD
HETATM   19  N8  UNL     1      25.856  39.875   2.502  1.00  0.00    -0.227 N 
ATOM     20  H7  UNL     1      24.885  40.537   0.786  1.00  0.00     0.210 HD
HETATM   21  N9  UNL     1      26.855  40.404   3.165  1.00  0.00    -0.272 N 
ATOM     22  H8  UNL     1      25.365  39.010   2.726  1.00  0.00     0.210 HD
ATOM     23  H9  UNL     1      27.273  40.006   4.006  1.00  0.00     0.190 HD
ENDBRANCH  14  15
ENDBRANCH  13  14
ENDBRANCH  11  13
ENDBRANCH   5  10
BRANCH   4  24
HETATM   24  N3  UNL     1      29.802  47.921   5.086  1.00  0.00    -0.290 N 
ATOM     25  H3  UNL     1      29.643  48.593   4.336  1.00  0.00     0.188 HD
BRANCH  24  26
HETATM   26  N4  UNL     1      30.979  47.168   5.099  1.00  0.00    -0.344 N 
ATOM     27  H42 UNL     1      31.699  47.399   5.784  1.00  0.00     0.176 HD
ATOM     28  H41 UNL     1      31.117  46.403   4.438  1.00  0.00     0.176 HD
ENDBRANCH  24  26
ENDBRANCH   4  24
BRANCH   1  29
HETATM   29  N1  UNL     1      28.129  48.951   9.338  1.00  0.00    -0.234 N 
ATOM     30  H12 UNL     1      29.049  49.039   9.770  1.00  0.00     0.174 HD
ATOM     31  H11 UNL     1      27.306  49.359   9.782  1.00  0.00     0.174 HD
ENDBRANCH   1  29
TORSDOF 7
ENDMDL
MODEL 2
REMARK VINA RESULT: -7.763539221      2.640      7.662
REMARK  7 active torsions:
REMARK  status: ('A' for Active; 'I' for Inactive)
REMARK    1  A    between atoms: N1_1  and  C1_4 
REMARK    2  A    between atoms: C2_7  and  N3_8 
REMARK    3  A    between atoms: N3_8  and  N4_10 
REMARK    4  A    between atoms: C3_13  and  N5_14 
REMARK    5  A    between atoms: C4_16  and  S1_17 
REMARK    6  A    between atoms: S1_17  and  C5_18 
REMARK    7  A    between atoms: C5_18  and  C6_19 
ROOT
HETATM    1  C1  UNL     1      28.690  42.119   1.466  1.00  0.00     0.680 A 
HETATM    2  N2  UNL     1      28.007  43.193   1.042  1.00  0.00    -0.173 N 
ATOM      3  H2  UNL     1      27.618  43.224   0.099  1.00  0.00     0.186 HD
HETATM    4  C2  UNL     1      27.843  44.238   1.893  1.00  0.00     0.167 A 
HETATM    5  C3  UNL     1      28.363  44.217   3.185  1.00  0.00     0.148 A 
HETATM    6  C7  UNL     1      29.050  43.106   3.574  1.00  0.00     0.290 A 
HETATM    7  O1  UNL     1      29.526  43.059   4.722  1.00  0.00    -0.265 OA
HETATM    8  N10 UNL     1      29.199  42.080   2.707  1.00  0.00    -0.154 N 
ATOM      9  H10 UNL     1      29.713  41.252   3.006  1.00  0.00     0.187 HD
ENDROOT
BRANCH   5  10
HETATM   10  N5  UNL     1      28.133  45.352   3.984  1.00  0.00    -0.353 N 
HETATM   11  C4  UNL     1      27.238  45.446   4.885  1.00  0.00     0.134 C 
ATOM     12  H5  UNL     1      28.731  46.164   3.829  1.00  0.00     0.166 HD
BRANCH  11  13
HETATM   13  S1  UNL     1      26.951  46.866   5.883  1.00  0.00    -0.117 SA
BRANCH  13  14
HETATM   14  C5  UNL     1      26.467  46.463   7.583  1.00  0.00     0.159 C 
BRANCH  14  15
HETATM   15  C6  UNL     1      27.172  47.285   8.590  1.00  0.00     0.122 A 
HETATM   16  N6  UNL     1      27.517  47.033   9.860  1.00  0.00    -0.272 N 
HETATM   17  N7  UNL     1      28.136  48.090  10.344  1.00  0.00    -0.227 N 
ATOM     18  H6  UNL     1      27.331  46.168  10.367  1.00  0.00     0.190 HD
HETATM   19  N8  UNL     1      28.207  49.032   9.423  1.00  0.00    -0.227 N 
ATOM     20  H7  UNL     1      28.507  48.168  11.291  1.00  0.00     0.210 HD
HETATM   21  N9  UNL     1      27.624  48.550   8.352  1.00  0.00    -0.272 N 
ATOM     22  H8  UNL     1      28.633  49.953   9.524  1.00  0.00     0.210 HD
ATOM     23  H9  UNL     1      27.522  49.050   7.469  1.00  0.00     0.190 HD
ENDBRANCH  14  15
ENDBRANCH  13  14
ENDBRANCH  11  13
ENDBRANCH   5  10
BRANCH   4  24
HETATM   24  N3  UNL     1      27.119  45.376   1.442  1.00  0.00    -0.290 N 
ATOM     25  H3  UNL     1      26.305  45.696   1.967  1.00  0.00     0.188 HD
BRANCH  24  26
HETATM   26  N4  UNL     1      27.509  46.061   0.289  1.00  0.00    -0.344 N 
ATOM     27  H42 UNL     1      27.894  45.527  -0.490  1.00  0.00     0.176 HD
ATOM     28  H41 UNL     1      27.411  47.075   0.225  1.00  0.00     0.176 HD
ENDBRANCH  24  26
ENDBRANCH   4  24
BRANCH   1  29
HETATM   29  N1  UNL     1      28.878  41.098   0.705  1.00  0.00    -0.234 N 
ATOM     30  H12 UNL     1      28.994  41.262  -0.295  1.00  0.00     0.174 HD
ATOM     31  H11 UNL     1      28.913  40.151   1.082  1.00  0.00     0.174 HD
ENDBRANCH   1  29
TORSDOF 7
ENDMDL
MODEL 3
REMARK VINA RESULT: -7.446506075      3.026      3.725
REMARK  7 active torsions:
REMARK  status: ('A' for Active; 'I' for Inactive)
REMARK    1  A    between atoms: N1_1  and  C1_4 
REMARK    2  A    between atoms: C2_7  and  N3_8 
REMARK    3  A    between atoms: N3_8  and  N4_10 
REMARK    4  A    between atoms: C3_13  and  N5_14 
REMARK    5  A    between atoms: C4_16  and  S1_17 
REMARK    6  A    between atoms: S1_17  and  C5_18 
REMARK    7  A    between atoms: C5_18  and  C6_19 
ROOT
HETATM    1  C1  UNL     1      28.680  48.475   8.106  1.00  0.00     0.680 A 
HETATM    2  N2  UNL     1      27.901  47.990   7.127  1.00  0.00    -0.173 N 
ATOM      3  H2  UNL     1      26.885  47.985   7.224  1.00  0.00     0.186 HD
HETATM    4  C2  UNL     1      28.492  47.505   6.005  1.00  0.00     0.167 A 
HETATM    5  C3  UNL     1      29.876  47.504   5.850  1.00  0.00     0.148 A 
HETATM    6  C7  UNL     1      30.629  48.006   6.869  1.00  0.00     0.290 A 
HETATM    7  O1  UNL     1      31.867  48.018   6.759  1.00  0.00    -0.265 OA
HETATM    8  N10 UNL     1      30.016  48.482   7.976  1.00  0.00    -0.154 N 
ATOM      9  H10 UNL     1      30.586  48.857   8.733  1.00  0.00     0.187 HD
ENDROOT
BRANCH   5  10
HETATM   10  N5  UNL     1      30.383  46.980   4.647  1.00  0.00    -0.353 N 
HETATM   11  C4  UNL     1      30.705  45.763   4.454  1.00  0.00     0.134 C 
ATOM     12  H5  UNL     1      30.502  47.627   3.866  1.00  0.00     0.166 HD
BRANCH  11  13
HETATM   13  S1  UNL     1      31.339  45.109   2.949  1.00  0.00    -0.117 SA
BRANCH  13  14
HETATM   14  C5  UNL     1      30.180  44.004   2.102  1.00  0.00     0.159 C 
BRANCH  14  15
HETATM   15  C6  UNL     1      28.951  44.696   1.653  1.00  0.00     0.122 A 
HETATM   16  N6  UNL     1      27.737  44.801   2.209  1.00  0.00    -0.272 N 
HETATM   17  N7  UNL     1      26.976  45.529   1.418  1.00  0.00    -0.227 N 
ATOM     18  H6  UNL     1      27.450  44.388   3.096  1.00  0.00     0.190 HD
HETATM   19  N8  UNL     1      27.660  45.905   0.354  1.00  0.00    -0.227 N 
ATOM     20  H7  UNL     1      26.001  45.767   1.600  1.00  0.00     0.210 HD
HETATM   21  N9  UNL     1      28.864  45.403   0.490  1.00  0.00    -0.272 N 
ATOM     22  H8  UNL     1      27.320  46.473  -0.421  1.00  0.00     0.210 HD
ATOM     23  H9  UNL     1      29.624  45.523  -0.179  1.00  0.00     0.190 HD
ENDBRANCH  14  15
ENDBRANCH  13  14
ENDBRANCH  11  13
ENDBRANCH   5  10
BRANCH   4  24
HETATM   24  N3  UNL     1      27.666  46.991   4.969  1.00  0.00    -0.290 N 
ATOM     25  H3  UNL     1      27.865  47.232   3.998  1.00  0.00     0.188 HD
BRANCH  24  26
HETATM   26  N4  UNL     1      26.583  46.159   5.264  1.00  0.00    -0.344 N 
ATOM     27  H42 UNL     1      25.908  45.955   4.526  1.00  0.00     0.176 HD
ATOM     28  H41 UNL     1      26.467  45.762   6.196  1.00  0.00     0.176 HD
ENDBRANCH  24  26
ENDBRANCH   4  24
BRANCH   1  29
HETATM   29  N1  UNL     1      28.178  48.948   9.193  1.00  0.00    -0.234 N 
ATOM     30  H12 UNL     1      27.238  48.650   9.454  1.00  0.00     0.174 HD
ATOM     31  H11 UNL     1      28.698  49.599   9.782  1.00  0.00     0.174 HD
ENDBRANCH   1  29
TORSDOF 7
ENDMDL
MODEL 4
REMARK VINA RESULT: -7.421580117      2.694      3.125
REMARK  7 active torsions:
REMARK  status: ('A' for Active; 'I' for Inactive)
REMARK    1  A    between atoms: N1_1  and  C1_4 
REMARK    2  A    between atoms: C2_7  and  N3_8 
REMARK    3  A    between atoms: N3_8  and  N4_10 
REMARK    4  A    between atoms: C3_13  and  N5_14 
REMARK    5  A    between atoms: C4_16  and  S1_17 
REMARK    6  A    between atoms: S1_17  and  C5_18 
REMARK    7  A    between atoms: C5_18  and  C6_19 
ROOT
HETATM    1  C1  UNL     1      28.333  48.343   7.949  1.00  0.00     0.680 A 
HETATM    2  N2  UNL     1      29.663  48.305   7.776  1.00  0.00    -0.173 N 
ATOM      3  H2  UNL     1      30.292  48.685   8.484  1.00  0.00     0.186 HD
HETATM    4  C2  UNL     1      30.155  47.750   6.639  1.00  0.00     0.167 A 
HETATM    5  C3  UNL     1      29.316  47.223   5.660  1.00  0.00     0.148 A 
HETATM    6  C7  UNL     1      27.972  47.283   5.877  1.00  0.00     0.290 A 
HETATM    7  O1  UNL     1      27.199  46.821   5.021  1.00  0.00    -0.265 OA
HETATM    8  N10 UNL     1      27.508  47.841   7.017  1.00  0.00    -0.154 N 
ATOM      9  H10 UNL     1      26.501  47.881   7.174  1.00  0.00     0.187 HD
ENDROOT
BRANCH   5  10
HETATM   10  N5  UNL     1      29.932  46.670   4.522  1.00  0.00    -0.353 N 
HETATM   11  C4  UNL     1      30.333  45.466   4.417  1.00  0.00     0.134 C 
ATOM     12  H5  UNL     1      30.068  47.283   3.717  1.00  0.00     0.166 HD
BRANCH  11  13
HETATM   13  S1  UNL     1      31.103  44.776   2.993  1.00  0.00    -0.117 SA
BRANCH  13  14
HETATM   14  C5  UNL     1      29.952  43.879   1.919  1.00  0.00     0.159 C 
BRANCH  14  15
HETATM   15  C6  UNL     1      28.746  44.668   1.584  1.00  0.00     0.122 A 
HETATM   16  N6  UNL     1      27.604  44.873   2.254  1.00  0.00    -0.272 N 
HETATM   17  N7  UNL     1      26.831  45.659   1.533  1.00  0.00    -0.227 N 
ATOM     18  H6  UNL     1      27.372  44.487   3.169  1.00  0.00     0.190 HD
HETATM   19  N8  UNL     1      27.437  45.975   0.404  1.00  0.00    -0.227 N 
ATOM     20  H7  UNL     1      25.901  45.977   1.807  1.00  0.00     0.210 HD
HETATM   21  N9  UNL     1      28.603  45.377   0.427  1.00  0.00    -0.272 N 
ATOM     22  H8  UNL     1      27.070  46.568  -0.340  1.00  0.00     0.210 HD
ATOM     23  H9  UNL     1      29.302  45.433  -0.313  1.00  0.00     0.190 HD
ENDBRANCH  14  15
ENDBRANCH  13  14
ENDBRANCH  11  13
ENDBRANCH   5  10
BRANCH   4  24
HETATM   24  N3  UNL     1      31.565  47.710   6.456  1.00  0.00    -0.290 N 
ATOM     25  H3  UNL     1      31.962  47.119   5.726  1.00  0.00     0.188 HD
BRANCH  24  26
HETATM   26  N4  UNL     1      32.413  48.471   7.264  1.00  0.00    -0.344 N 
ATOM     27  H42 UNL     1      31.999  49.079   7.971  1.00  0.00     0.176 HD
ATOM     28  H41 UNL     1      33.426  48.422   7.151  1.00  0.00     0.176 HD
ENDBRANCH  24  26
ENDBRANCH   4  24
BRANCH   1  29
HETATM   29  N1  UNL     1      27.807  48.857   9.007  1.00  0.00    -0.234 N 
ATOM     30  H12 UNL     1      28.149  48.539   9.913  1.00  0.00     0.174 HD
ATOM     31  H11 UNL     1      27.071  49.561   8.948  1.00  0.00     0.174 HD
ENDBRANCH   1  29
TORSDOF 7
ENDMDL
MODEL 5
REMARK VINA RESULT: -7.319737186      2.186      2.653
REMARK  7 active torsions:
REMARK  status: ('A' for Active; 'I' for Inactive)
REMARK    1  A    between atoms: N1_1  and  C1_4 
REMARK    2  A    between atoms: C2_7  and  N3_8 
REMARK    3  A    between atoms: N3_8  and  N4_10 
REMARK    4  A    between atoms: C3_13  and  N5_14 
REMARK    5  A    between atoms: C4_16  and  S1_17 
REMARK    6  A    between atoms: S1_17  and  C5_18 
REMARK    7  A    between atoms: C5_18  and  C6_19 
ROOT
HETATM    1  C1  UNL     1      28.376  48.484   8.292  1.00  0.00     0.680 A 
HETATM    2  N2  UNL     1      29.609  48.320   7.790  1.00  0.00    -0.173 N 
ATOM      3  H2  UNL     1      30.425  48.684   8.284  1.00  0.00     0.186 HD
HETATM    4  C2  UNL     1      29.750  47.660   6.613  1.00  0.00     0.167 A 
HETATM    5  C3  UNL     1      28.652  47.152   5.923  1.00  0.00     0.148 A 
HETATM    6  C7  UNL     1      27.418  47.342   6.469  1.00  0.00     0.290 A 
HETATM    7  O1  UNL     1      26.418  46.901   5.875  1.00  0.00    -0.265 OA
HETATM    8  N10 UNL     1      27.304  48.003   7.642  1.00  0.00    -0.154 N 
ATOM      9  H10 UNL     1      26.378  48.140   8.044  1.00  0.00     0.187 HD
ENDROOT
BRANCH   5  10
HETATM   10  N5  UNL     1      28.912  46.483   4.713  1.00  0.00    -0.353 N 
HETATM   11  C4  UNL     1      28.996  45.220   4.577  1.00  0.00     0.134 C 
ATOM     12  H5  UNL     1      29.043  47.056   3.879  1.00  0.00     0.166 HD
BRANCH  11  13
HETATM   13  S1  UNL     1      29.321  44.384   3.063  1.00  0.00    -0.117 SA
BRANCH  13  14
HETATM   14  C5  UNL     1      28.719  42.675   3.043  1.00  0.00     0.159 C 
BRANCH  14  15
HETATM   15  C6  UNL     1      29.812  41.680   3.118  1.00  0.00     0.122 A 
HETATM   16  N6  UNL     1      29.882  40.479   3.707  1.00  0.00    -0.272 N 
HETATM   17  N7  UNL     1      31.079  39.975   3.488  1.00  0.00    -0.227 N 
ATOM     18  H6  UNL     1      29.135  40.031   4.236  1.00  0.00     0.190 HD
HETATM   19  N8  UNL     1      31.799  40.816   2.769  1.00  0.00    -0.227 N 
ATOM     20  H7  UNL     1      31.403  39.068   3.824  1.00  0.00     0.210 HD
HETATM   21  N9  UNL     1      31.035  41.856   2.539  1.00  0.00    -0.272 N 
ATOM     22  H8  UNL     1      32.759  40.682   2.454  1.00  0.00     0.210 HD
ATOM     23  H9  UNL     1      31.315  42.678   2.004  1.00  0.00     0.190 HD
ENDBRANCH  14  15
ENDBRANCH  13  14
ENDBRANCH  11  13
ENDBRANCH   5  10
BRANCH   4  24
HETATM   24  N3  UNL     1      31.058  47.487   6.082  1.00  0.00    -0.290 N 
ATOM     25  H3  UNL     1      31.175  47.263   5.094  1.00  0.00     0.188 HD
BRANCH  24  26
HETATM   26  N4  UNL     1      32.185  47.619   6.898  1.00  0.00    -0.344 N 
ATOM     27  H42 UNL     1      33.108  47.521   6.474  1.00  0.00     0.176 HD
ATOM     28  H41 UNL     1      32.089  47.810   7.895  1.00  0.00     0.176 HD
ENDBRANCH  24  26
ENDBRANCH   4  24
BRANCH   1  29
HETATM   29  N1  UNL     1      28.178  49.102   9.404  1.00  0.00    -0.234 N 
ATOM     30  H12 UNL     1      28.324  48.584  10.270  1.00  0.00     0.174 HD
ATOM     31  H11 UNL     1      27.886  50.079   9.427  1.00  0.00     0.174 HD
ENDBRANCH   1  29
TORSDOF 7
ENDMDL
