MODEL 1
REMARK VINA RESULT: -6.804036364      0.000      0.000
REMARK  8 active torsions:
REMARK  status: ('A' for Active; 'I' for Inactive)
REMARK    1  A    between atoms: N1_1  and  C1_4 
REMARK    2  A    between atoms: C2_7  and  N3_8 
REMARK    3  A    between atoms: N3_8  and  O1_9 
REMARK    4  A    between atoms: N3_8  and  O2_11 
REMARK    5  A    between atoms: O2_11  and  N4_12 
REMARK    6  A    between atoms: N4_12  and  N5_13 
REMARK    7  A    between atoms: N4_12  and  N6_16 
REMARK    8  A    between atoms: C3_19  and  S1_20 
ROOT
HETATM    1  C1  UNL     1      30.586  46.940   4.847  1.00  0.00     0.680 A 
HETATM    2  N2  UNL     1      29.354  46.462   4.641  1.00  0.00    -0.171 N 
ATOM      3  H2  UNL     1      29.155  45.986   3.761  1.00  0.00     0.186 HD
HETATM    4  C2  UNL     1      28.354  46.584   5.555  1.00  0.00     0.198 A 
HETATM    5  C3  UNL     1      28.676  47.235   6.725  1.00  0.00     0.129 A 
HETATM    6  C4  UNL     1      29.939  47.724   6.934  1.00  0.00     0.281 A 
HETATM    7  O3  UNL     1      30.176  48.310   8.022  1.00  0.00    -0.266 OA
HETATM    8  N7  UNL     1      30.873  47.568   5.992  1.00  0.00    -0.155 N 
ATOM      9  H7  UNL     1      31.813  47.931   6.148  1.00  0.00     0.187 HD
ENDROOT
BRANCH   4  10
HETATM   10  N3  UNL     1      27.064  46.060   5.288  1.00  0.00    -0.085 N 
BRANCH  10  11
HETATM   11  O1  UNL     1      26.090  46.829   5.277  1.00  0.00    -0.260 OA
ATOM     12  H1  UNL     1      25.275  46.549   5.677  1.00  0.00     0.247 HD
ENDBRANCH  10  11
BRANCH  10  13
HETATM   13  O2  UNL     1      26.856  44.733   5.044  1.00  0.00    -0.112 OA
BRANCH  13  14
HETATM   14  N4  UNL     1      27.362  44.039   3.993  1.00  0.00     0.011 NA
BRANCH  14  15
HETATM   15  N5  UNL     1      26.682  42.814   3.776  1.00  0.00    -0.320 NA
ATOM     16  H52 UNL     1      27.351  42.234   3.269  1.00  0.00     0.175 HD
ATOM     17  H51 UNL     1      25.855  42.926   3.190  1.00  0.00     0.175 HD
ENDBRANCH  14  15
BRANCH  14  18
HETATM   18  N6  UNL     1      27.126  44.795   2.814  1.00  0.00    -0.320 NA
ATOM     19  H62 UNL     1      28.057  45.048   2.480  1.00  0.00     0.175 HD
ATOM     20  H61 UNL     1      26.624  44.201   2.155  1.00  0.00     0.175 HD
ENDBRANCH  14  18
ENDBRANCH  13  14
ENDBRANCH  10  13
ENDBRANCH   4  10
BRANCH   5  21
HETATM   21  S1  UNL     1      27.369  47.403   7.939  1.00  0.00    -0.036 SA
HETATM   22  S2  UNL     1      28.007  46.366   9.683  1.00  0.00    -0.007 SA
ENDBRANCH   5  21
BRANCH   1  23
HETATM   23  N1  UNL     1      31.487  46.782   3.921  1.00  0.00    -0.234 N 
ATOM     24  H12 UNL     1      31.225  46.545   2.964  1.00  0.00     0.174 HD
ATOM     25  H11 UNL     1      32.471  46.899   4.162  1.00  0.00     0.174 HD
ENDBRANCH   1  23
TORSDOF 8
ENDMDL
MODEL 2
REMARK VINA RESULT: -6.785168764      3.478      4.413
REMARK  8 active torsions:
REMARK  status: ('A' for Active; 'I' for Inactive)
REMARK    1  A    between atoms: N1_1  and  C1_4 
REMARK    2  A    between atoms: C2_7  and  N3_8 
REMARK    3  A    between atoms: N3_8  and  O1_9 
REMARK    4  A    between atoms: N3_8  and  O2_11 
REMARK    5  A    between atoms: O2_11  and  N4_12 
REMARK    6  A    between atoms: N4_12  and  N5_13 
REMARK    7  A    between atoms: N4_12  and  N6_16 
REMARK    8  A    between atoms: C3_19  and  S1_20 
ROOT
HETATM    1  C1  UNL     1      29.057  45.757  11.054  1.00  0.00     0.680 A 
HETATM    2  N2  UNL     1      28.327  45.613   9.942  1.00  0.00    -0.171 N 
ATOM      3  H2  UNL     1      27.507  45.008   9.972  1.00  0.00     0.186 HD
HETATM    4  C2  UNL     1      28.630  46.240   8.775  1.00  0.00     0.198 A 
HETATM    5  C3  UNL     1      29.747  47.046   8.791  1.00  0.00     0.129 A 
HETATM    6  C4  UNL     1      30.494  47.193   9.930  1.00  0.00     0.281 A 
HETATM    7  O3  UNL     1      31.504  47.941   9.885  1.00  0.00    -0.266 OA
HETATM    8  N7  UNL     1      30.136  46.546  11.042  1.00  0.00    -0.155 N 
ATOM      9  H7  UNL     1      30.692  46.655  11.891  1.00  0.00     0.187 HD
ENDROOT
BRANCH   4  10
HETATM   10  N3  UNL     1      27.824  46.054   7.624  1.00  0.00    -0.085 N 
BRANCH  10  11
HETATM   11  O1  UNL     1      27.975  45.031   6.939  1.00  0.00    -0.260 OA
ATOM     12  H1  UNL     1      27.337  44.825   6.266  1.00  0.00     0.247 HD
ENDBRANCH  10  11
BRANCH  10  13
HETATM   13  O2  UNL     1      26.884  46.967   7.241  1.00  0.00    -0.112 OA
BRANCH  13  14
HETATM   14  N4  UNL     1      26.199  46.945   6.070  1.00  0.00     0.011 NA
BRANCH  14  15
HETATM   15  N5  UNL     1      27.055  46.843   4.944  1.00  0.00    -0.320 NA
ATOM     16  H52 UNL     1      27.837  47.463   5.158  1.00  0.00     0.175 HD
ATOM     17  H51 UNL     1      26.613  47.176   4.087  1.00  0.00     0.175 HD
ENDBRANCH  14  15
BRANCH  14  18
HETATM   18  N6  UNL     1      25.422  45.756   6.040  1.00  0.00    -0.320 NA
ATOM     19  H62 UNL     1      24.902  45.765   6.917  1.00  0.00     0.175 HD
ATOM     20  H61 UNL     1      24.810  45.801   5.224  1.00  0.00     0.175 HD
ENDBRANCH  14  18
ENDBRANCH  13  14
ENDBRANCH  10  13
ENDBRANCH   4  10
BRANCH   5  21
HETATM   21  S1  UNL     1      30.160  47.879   7.259  1.00  0.00    -0.036 SA
HETATM   22  S2  UNL     1      31.217  46.477   6.057  1.00  0.00    -0.007 SA
ENDBRANCH   5  21
BRANCH   1  23
HETATM   23  N1  UNL     1      28.698  45.121  12.132  1.00  0.00    -0.234 N 
ATOM     24  H12 UNL     1      27.928  45.455  12.711  1.00  0.00     0.174 HD
ATOM     25  H11 UNL     1      29.200  44.273  12.397  1.00  0.00     0.174 HD
ENDBRANCH   1  23
TORSDOF 8
ENDMDL
MODEL 3
REMARK VINA RESULT: -6.757862574      2.374      3.040
REMARK  8 active torsions:
REMARK  status: ('A' for Active; 'I' for Inactive)
REMARK    1  A    between atoms: N1_1  and  C1_4 
REMARK    2  A    between atoms: C2_7  and  N3_8 
REMARK    3  A    between atoms: N3_8  and  O1_9 
REMARK    4  A    between atoms: N3_8  and  O2_11 
REMARK    5  A    between atoms: O2_11  and  N4_12 
REMARK    6  A    between atoms: N4_12  and  N5_13 
REMARK    7  A    between atoms: N4_12  and  N6_16 
REMARK    8  A    between atoms: C3_19  and  S1_20 
ROOT
HETATM    1  C1  UNL     1      29.141  45.046   3.208  1.00  0.00     0.680 A 
HETATM    2  N2  UNL     1      27.959  45.390   3.731  1.00  0.00    -0.171 N 
ATOM      3  H2  UNL     1      27.150  45.451   3.113  1.00  0.00     0.186 HD
HETATM    4  C2  UNL     1      27.790  45.663   5.052  1.00  0.00     0.198 A 
HETATM    5  C3  UNL     1      28.915  45.565   5.841  1.00  0.00     0.129 A 
HETATM    6  C4  UNL     1      30.124  45.212   5.304  1.00  0.00     0.281 A 
HETATM    7  O3  UNL     1      31.117  45.139   6.073  1.00  0.00    -0.266 OA
HETATM    8  N7  UNL     1      30.217  44.957   3.996  1.00  0.00    -0.155 N 
ATOM      9  H7  UNL     1      31.117  44.694   3.595  1.00  0.00     0.187 HD
ENDROOT
BRANCH   4  10
HETATM   10  N3  UNL     1      26.516  46.025   5.558  1.00  0.00    -0.085 N 
BRANCH  10  11
HETATM   11  O1  UNL     1      26.219  47.226   5.643  1.00  0.00    -0.260 OA
ATOM     12  H1  UNL     1      25.393  47.525   5.281  1.00  0.00     0.247 HD
ENDBRANCH  10  11
BRANCH  10  13
HETATM   13  O2  UNL     1      25.602  45.092   5.957  1.00  0.00    -0.112 OA
BRANCH  13  14
HETATM   14  N4  UNL     1      24.346  45.361   6.395  1.00  0.00     0.011 NA
BRANCH  14  15
HETATM   15  N5  UNL     1      23.493  44.231   6.318  1.00  0.00    -0.320 NA
ATOM     16  H52 UNL     1      23.580  43.780   7.229  1.00  0.00     0.175 HD
ATOM     17  H51 UNL     1      23.792  43.564   5.607  1.00  0.00     0.175 HD
ENDBRANCH  14  15
BRANCH  14  18
HETATM   18  N6  UNL     1      24.420  45.663   7.781  1.00  0.00    -0.320 NA
ATOM     19  H62 UNL     1      25.415  45.795   7.964  1.00  0.00     0.175 HD
ATOM     20  H61 UNL     1      23.878  46.511   7.948  1.00  0.00     0.175 HD
ENDBRANCH  14  18
ENDBRANCH  13  14
ENDBRANCH  10  13
ENDBRANCH   4  10
BRANCH   5  21
HETATM   21  S1  UNL     1      28.707  45.922   7.586  1.00  0.00    -0.036 SA
HETATM   22  S2  UNL     1      29.114  47.994   7.846  1.00  0.00    -0.007 SA
ENDBRANCH   5  21
BRANCH   1  23
HETATM   23  N1  UNL     1      29.218  44.800   1.931  1.00  0.00    -0.234 N 
ATOM     24  H12 UNL     1      29.206  45.556   1.246  1.00  0.00     0.174 HD
ATOM     25  H11 UNL     1      29.293  43.833   1.617  1.00  0.00     0.174 HD
ENDBRANCH   1  23
TORSDOF 8
ENDMDL
MODEL 4
REMARK VINA RESULT: -6.744045453      3.922      4.786
REMARK  8 active torsions:
REMARK  status: ('A' for Active; 'I' for Inactive)
REMARK    1  A    between atoms: N1_1  and  C1_4 
REMARK    2  A    between atoms: C2_7  and  N3_8 
REMARK    3  A    between atoms: N3_8  and  O1_9 
REMARK    4  A    between atoms: N3_8  and  O2_11 
REMARK    5  A    between atoms: O2_11  and  N4_12 
REMARK    6  A    between atoms: N4_12  and  N5_13 
REMARK    7  A    between atoms: N4_12  and  N6_16 
REMARK    8  A    between atoms: C3_19  and  S1_20 
ROOT
HETATM    1  C1  UNL     1      28.986  45.846  11.285  1.00  0.00     0.680 A 
HETATM    2  N2  UNL     1      28.263  46.259  10.239  1.00  0.00    -0.171 N 
ATOM      3  H2  UNL     1      27.326  45.877  10.110  1.00  0.00     0.186 HD
HETATM    4  C2  UNL     1      28.723  47.168   9.338  1.00  0.00     0.198 A 
HETATM    5  C3  UNL     1      29.993  47.652   9.559  1.00  0.00     0.129 A 
HETATM    6  C4  UNL     1      30.733  47.228  10.632  1.00  0.00     0.281 A 
HETATM    7  O3  UNL     1      31.887  47.705  10.782  1.00  0.00    -0.266 OA
HETATM    8  N7  UNL     1      30.217  46.333  11.477  1.00  0.00    -0.155 N 
ATOM      9  H7  UNL     1      30.766  46.017  12.276  1.00  0.00     0.187 HD
ENDROOT
BRANCH   4  10
HETATM   10  N3  UNL     1      27.917  47.574   8.245  1.00  0.00    -0.085 N 
BRANCH  10  11
HETATM   11  O1  UNL     1      27.356  48.679   8.285  1.00  0.00    -0.260 OA
ATOM     12  H1  UNL     1      26.666  48.825   8.922  1.00  0.00     0.247 HD
ENDBRANCH  10  11
BRANCH  10  13
HETATM   13  O2  UNL     1      27.736  46.784   7.145  1.00  0.00    -0.112 OA
BRANCH  13  14
HETATM   14  N4  UNL     1      26.595  46.119   6.835  1.00  0.00     0.011 NA
BRANCH  14  15
HETATM   15  N5  UNL     1      26.842  44.790   6.410  1.00  0.00    -0.320 NA
ATOM     16  H52 UNL     1      27.238  44.888   5.475  1.00  0.00     0.175 HD
ATOM     17  H51 UNL     1      25.986  44.239   6.333  1.00  0.00     0.175 HD
ENDBRANCH  14  15
BRANCH  14  18
HETATM   18  N6  UNL     1      25.832  45.980   8.026  1.00  0.00    -0.320 NA
ATOM     19  H62 UNL     1      24.899  45.722   7.705  1.00  0.00     0.175 HD
ATOM     20  H61 UNL     1      26.265  45.251   8.593  1.00  0.00     0.175 HD
ENDBRANCH  14  18
ENDBRANCH  13  14
ENDBRANCH  10  13
ENDBRANCH   4  10
BRANCH   5  21
HETATM   21  S1  UNL     1      30.613  48.852   8.380  1.00  0.00    -0.036 SA
HETATM   22  S2  UNL     1      32.089  47.863   7.210  1.00  0.00    -0.007 SA
ENDBRANCH   5  21
BRANCH   1  23
HETATM   23  N1  UNL     1      28.472  44.972  12.102  1.00  0.00    -0.234 N 
ATOM     24  H12 UNL     1      27.969  44.155  11.754  1.00  0.00     0.174 HD
ATOM     25  H11 UNL     1      28.578  45.111  13.107  1.00  0.00     0.174 HD
ENDBRANCH   1  23
TORSDOF 8
ENDMDL
MODEL 5
REMARK VINA RESULT: -6.704120529      3.816      4.568
REMARK  8 active torsions:
REMARK  status: ('A' for Active; 'I' for Inactive)
REMARK    1  A    between atoms: N1_1  and  C1_4 
REMARK    2  A    between atoms: C2_7  and  N3_8 
REMARK    3  A    between atoms: N3_8  and  O1_9 
REMARK    4  A    between atoms: N3_8  and  O2_11 
REMARK    5  A    between atoms: O2_11  and  N4_12 
REMARK    6  A    between atoms: N4_12  and  N5_13 
REMARK    7  A    between atoms: N4_12  and  N6_16 
REMARK    8  A    between atoms: C3_19  and  S1_20 
ROOT
HETATM    1  C1  UNL     1      28.710  45.779  11.665  1.00  0.00     0.680 A 
HETATM    2  N2  UNL     1      28.002  45.559  10.551  1.00  0.00    -0.171 N 
ATOM      3  H2  UNL     1      27.384  44.748  10.517  1.00  0.00     0.186 HD
HETATM    4  C2  UNL     1      28.071  46.370   9.462  1.00  0.00     0.198 A 
HETATM    5  C3  UNL     1      28.919  47.450   9.562  1.00  0.00     0.129 A 
HETATM    6  C4  UNL     1      29.643  47.675  10.704  1.00  0.00     0.281 A 
HETATM    7  O3  UNL     1      30.403  48.677  10.737  1.00  0.00    -0.266 OA
HETATM    8  N7  UNL     1      29.526  46.836  11.736  1.00  0.00    -0.155 N 
ATOM      9  H7  UNL     1      30.064  47.002  12.586  1.00  0.00     0.187 HD
ENDROOT
BRANCH   4  10
HETATM   10  N3  UNL     1      27.300  46.093   8.305  1.00  0.00    -0.085 N 
BRANCH  10  11
HETATM   11  O1  UNL     1      26.063  46.096   8.388  1.00  0.00    -0.260 OA
ATOM     12  H1  UNL     1      25.552  46.462   7.675  1.00  0.00     0.247 HD
ENDBRANCH  10  11
BRANCH  10  13
HETATM   13  O2  UNL     1      27.877  45.820   7.098  1.00  0.00    -0.112 OA
BRANCH  13  14
HETATM   14  N4  UNL     1      27.227  45.784   5.908  1.00  0.00     0.011 NA
BRANCH  14  15
HETATM   15  N5  UNL     1      26.247  44.760   5.857  1.00  0.00    -0.320 NA
ATOM     16  H52 UNL     1      25.659  45.004   5.060  1.00  0.00     0.175 HD
ATOM     17  H51 UNL     1      25.658  44.742   6.690  1.00  0.00     0.175 HD
ENDBRANCH  14  15
BRANCH  14  18
HETATM   18  N6  UNL     1      26.491  46.991   5.773  1.00  0.00    -0.320 NA
ATOM     19  H62 UNL     1      27.102  47.710   6.163  1.00  0.00     0.175 HD
ATOM     20  H61 UNL     1      26.303  47.137   4.781  1.00  0.00     0.175 HD
ENDBRANCH  14  18
ENDBRANCH  13  14
ENDBRANCH  10  13
ENDBRANCH   4  10
BRANCH   5  21
HETATM   21  S1  UNL     1      29.020  48.529   8.134  1.00  0.00    -0.036 SA
HETATM   22  S2  UNL     1      30.780  47.985   7.071  1.00  0.00    -0.007 SA
ENDBRANCH   5  21
BRANCH   1  23
HETATM   23  N1  UNL     1      28.587  44.954  12.664  1.00  0.00    -0.234 N 
ATOM     24  H12 UNL     1      27.669  44.658  12.995  1.00  0.00     0.174 HD
ATOM     25  H11 UNL     1      29.428  44.599  13.120  1.00  0.00     0.174 HD
ENDBRANCH   1  23
TORSDOF 8
ENDMDL
