MODEL 1
REMARK VINA RESULT: -7.672142941      0.000      0.000
REMARK  8 active torsions:
REMARK  status: ('A' for Active; 'I' for Inactive)
REMARK    1  A    between atoms: N1_2  and  C2_3 
REMARK    2  A    between atoms: N1_2  and  O1_9 
REMARK    3  A    between atoms: C2_3  and  C3_4 
REMARK    4  A    between atoms: C3_4  and  N2_5 
REMARK    5  A    between atoms: O1_9  and  C4_10 
REMARK    6  A    between atoms: C4_10  and  N3_11 
REMARK    7  A    between atoms: C4_10  and  C5_15 
REMARK    8  A    between atoms: N3_11  and  N4_12 
ROOT
HETATM    1  C5  UNL     1      28.331  45.133   4.364  1.00  0.00     0.103 A 
HETATM    2  C6  UNL     1      27.716  45.368   5.560  1.00  0.00     0.090 A 
HETATM    3  N5  UNL     1      26.390  44.955   5.792  1.00  0.00    -0.100 NA
HETATM    4  C7  UNL     1      28.372  46.013   6.583  1.00  0.00     0.111 A 
HETATM    5  C8  UNL     1      27.705  46.261   7.849  1.00  0.00     0.105 C 
HETATM    6  N6  UNL     1      27.190  46.446   8.860  1.00  0.00    -0.191 NA
HETATM    7  C9  UNL     1      29.671  46.440   6.436  1.00  0.00     0.140 A 
HETATM    8  N7  UNL     1      30.337  47.112   7.511  1.00  0.00    -0.081 NA
HETATM    9  N8  UNL     1      30.285  46.209   5.255  1.00  0.00    -0.329 N 
ATOM     10  H8  UNL     1      31.249  46.515   5.121  1.00  0.00     0.168 HD
HETATM   11  C10 UNL     1      29.653  45.586   4.263  1.00  0.00     0.118 A 
HETATM   12  N9  UNL     1      30.265  45.382   3.169  1.00  0.00    -0.385 N 
ATOM     13  H91 UNL     1      31.227  45.712   3.095  1.00  0.00     0.157 HD
ATOM     14  H92 UNL     1      29.780  44.905   2.409  1.00  0.00     0.157 HD
ENDROOT
BRANCH   1  15
HETATM   15  C4  UNL     1      27.668  44.456   3.222  1.00  0.00     0.279 C 
BRANCH  15  16
HETATM   16  O1  UNL     1      27.285  43.123   3.457  1.00  0.00    -0.201 OA
BRANCH  16  17
HETATM   17  N1  UNL     1      27.952  42.134   2.900  1.00  0.00    -0.267 N 
HETATM   18  C1  UNL     1      27.364  41.299   1.932  1.00  0.00     0.184 C 
BRANCH  17  19
HETATM   19  C2  UNL     1      29.182  41.736   3.456  1.00  0.00     0.117 C 
BRANCH  19  20
HETATM   20  C3  UNL     1      29.806  40.517   2.833  1.00  0.00     0.276 C 
BRANCH  20  21
HETATM   21  N2  UNL     1      30.983  40.041   3.486  1.00  0.00    -0.075 N 
ATOM     22  H23 UNL     1      31.756  40.690   3.337  1.00  0.00     0.274 HD
ATOM     23  H22 UNL     1      30.879  40.118   4.498  1.00  0.00     0.274 HD
ATOM     24  H21 UNL     1      31.264  39.094   3.231  1.00  0.00     0.274 HD
ENDBRANCH  20  21
ENDBRANCH  19  20
ENDBRANCH  17  19
ENDBRANCH  16  17
ENDBRANCH  15  16
BRANCH  15  25
HETATM   25  N3  UNL     1      27.462  44.958   2.185  1.00  0.00    -0.304 NA
BRANCH  25  26
HETATM   26  N4  UNL     1      27.235  45.513   1.034  1.00  0.00    -0.278 N 
ATOM     27  H42 UNL     1      27.409  44.984   1.888  1.00  0.00     0.191 HD
ATOM     28  H41 UNL     1      27.056  45.952   0.130  1.00  0.00     0.191 HD
ENDBRANCH  25  26
ENDBRANCH  15  25
ENDBRANCH   1  15
TORSDOF 8
ENDMDL
MODEL 2
REMARK VINA RESULT: -7.593259647      1.630      2.153
REMARK  8 active torsions:
REMARK  status: ('A' for Active; 'I' for Inactive)
REMARK    1  A    between atoms: N1_2  and  C2_3 
REMARK    2  A    between atoms: N1_2  and  O1_9 
REMARK    3  A    between atoms: C2_3  and  C3_4 
REMARK    4  A    between atoms: C3_4  and  N2_5 
REMARK    5  A    between atoms: O1_9  and  C4_10 
REMARK    6  A    between atoms: C4_10  and  N3_11 
REMARK    7  A    between atoms: C4_10  and  C5_15 
REMARK    8  A    between atoms: N3_11  and  N4_12 
ROOT
HETATM    1  C5  UNL     1      29.433  45.649   4.342  1.00  0.00     0.103 A 
HETATM    2  C6  UNL     1      28.259  45.529   5.030  1.00  0.00     0.090 A 
HETATM    3  N5  UNL     1      27.291  44.578   4.657  1.00  0.00    -0.100 NA
HETATM    4  C7  UNL     1      27.984  46.328   6.115  1.00  0.00     0.111 A 
HETATM    5  C8  UNL     1      26.730  46.193   6.834  1.00  0.00     0.105 C 
HETATM    6  N6  UNL     1      25.747  46.080   7.420  1.00  0.00    -0.191 NA
HETATM    7  C9  UNL     1      28.883  47.276   6.545  1.00  0.00     0.140 A 
HETATM    8  N7  UNL     1      28.578  48.102   7.674  1.00  0.00    -0.081 NA
HETATM    9  N8  UNL     1      30.047  47.399   5.869  1.00  0.00    -0.329 N 
ATOM     10  H8  UNL     1      30.731  48.094   6.169  1.00  0.00     0.168 HD
HETATM   11  C10 UNL     1      30.316  46.627   4.819  1.00  0.00     0.118 A 
HETATM   12  N9  UNL     1      31.423  46.769   4.213  1.00  0.00    -0.385 N 
ATOM     13  H91 UNL     1      32.066  47.481   4.559  1.00  0.00     0.157 HD
ATOM     14  H92 UNL     1      31.628  46.177   3.408  1.00  0.00     0.157 HD
ENDROOT
BRANCH   1  15
HETATM   15  C4  UNL     1      29.776  44.825   3.158  1.00  0.00     0.279 C 
BRANCH  15  16
HETATM   16  O1  UNL     1      30.671  43.767   3.404  1.00  0.00    -0.201 OA
BRANCH  16  17
HETATM   17  N1  UNL     1      30.393  42.552   2.976  1.00  0.00    -0.267 N 
HETATM   18  C1  UNL     1      31.009  42.014   1.831  1.00  0.00     0.184 C 
BRANCH  17  19
HETATM   19  C2  UNL     1      29.282  41.873   3.509  1.00  0.00     0.117 C 
BRANCH  19  20
HETATM   20  C3  UNL     1      28.213  41.508   2.515  1.00  0.00     0.276 C 
BRANCH  20  21
HETATM   21  N2  UNL     1      27.205  42.499   2.322  1.00  0.00    -0.075 N 
ATOM     22  H23 UNL     1      27.633  43.414   2.183  1.00  0.00     0.274 HD
ATOM     23  H22 UNL     1      26.756  42.373   1.415  1.00  0.00     0.274 HD
ATOM     24  H21 UNL     1      26.502  42.548   3.059  1.00  0.00     0.274 HD
ENDBRANCH  20  21
ENDBRANCH  19  20
ENDBRANCH  17  19
ENDBRANCH  16  17
ENDBRANCH  15  16
BRANCH  15  25
HETATM   25  N3  UNL     1      29.357  45.007   2.080  1.00  0.00    -0.304 NA
BRANCH  25  26
HETATM   26  N4  UNL     1      28.895  45.210   0.885  1.00  0.00    -0.278 N 
ATOM     27  H42 UNL     1      29.342  45.107   1.796  1.00  0.00     0.191 HD
ATOM     28  H41 UNL     1      28.529  45.367  -0.055  1.00  0.00     0.191 HD
ENDBRANCH  25  26
ENDBRANCH  15  25
ENDBRANCH   1  15
TORSDOF 8
ENDMDL
MODEL 3
REMARK VINA RESULT: -7.522725072      0.948      1.576
REMARK  8 active torsions:
REMARK  status: ('A' for Active; 'I' for Inactive)
REMARK    1  A    between atoms: N1_2  and  C2_3 
REMARK    2  A    between atoms: N1_2  and  O1_9 
REMARK    3  A    between atoms: C2_3  and  C3_4 
REMARK    4  A    between atoms: C3_4  and  N2_5 
REMARK    5  A    between atoms: O1_9  and  C4_10 
REMARK    6  A    between atoms: C4_10  and  N3_11 
REMARK    7  A    between atoms: C4_10  and  C5_15 
REMARK    8  A    between atoms: N3_11  and  N4_12 
ROOT
HETATM    1  C5  UNL     1      28.308  45.135   4.367  1.00  0.00     0.103 A 
HETATM    2  C6  UNL     1      27.706  45.375   5.570  1.00  0.00     0.090 A 
HETATM    3  N5  UNL     1      26.384  44.961   5.818  1.00  0.00    -0.100 NA
HETATM    4  C7  UNL     1      28.373  46.023   6.583  1.00  0.00     0.111 A 
HETATM    5  C8  UNL     1      27.721  46.275   7.855  1.00  0.00     0.105 C 
HETATM    6  N6  UNL     1      27.218  46.463   8.872  1.00  0.00    -0.191 NA
HETATM    7  C9  UNL     1      29.671  46.451   6.419  1.00  0.00     0.140 A 
HETATM    8  N7  UNL     1      30.349  47.127   7.483  1.00  0.00    -0.081 NA
HETATM    9  N8  UNL     1      30.271  46.215   5.231  1.00  0.00    -0.329 N 
ATOM     10  H8  UNL     1      31.233  46.522   5.085  1.00  0.00     0.168 HD
HETATM   11  C10 UNL     1      29.627  45.589   4.249  1.00  0.00     0.118 A 
HETATM   12  N9  UNL     1      30.227  45.381   3.148  1.00  0.00    -0.385 N 
ATOM     13  H91 UNL     1      31.188  45.712   3.062  1.00  0.00     0.157 HD
ATOM     14  H92 UNL     1      29.733  44.901   2.396  1.00  0.00     0.157 HD
ENDROOT
BRANCH   1  15
HETATM   15  C4  UNL     1      27.632  44.454   3.236  1.00  0.00     0.279 C 
BRANCH  15  16
HETATM   16  O1  UNL     1      27.149  43.162   3.516  1.00  0.00    -0.201 OA
BRANCH  16  17
HETATM   17  N1  UNL     1      27.752  42.106   3.009  1.00  0.00    -0.267 N 
HETATM   18  C1  UNL     1      29.150  41.957   3.062  1.00  0.00     0.184 C 
BRANCH  17  19
HETATM   19  C2  UNL     1      27.025  41.235   2.176  1.00  0.00     0.117 C 
BRANCH  19  20
HETATM   20  C3  UNL     1      26.976  39.802   2.629  1.00  0.00     0.276 C 
BRANCH  20  21
HETATM   21  N2  UNL     1      25.675  39.214   2.628  1.00  0.00    -0.075 N 
ATOM     22  H23 UNL     1      25.038  39.767   3.200  1.00  0.00     0.274 HD
ATOM     23  H22 UNL     1      25.238  39.328   1.714  1.00  0.00     0.274 HD
ATOM     24  H21 UNL     1      25.645  38.235   2.913  1.00  0.00     0.274 HD
ENDBRANCH  20  21
ENDBRANCH  19  20
ENDBRANCH  17  19
ENDBRANCH  16  17
ENDBRANCH  15  16
BRANCH  15  25
HETATM   25  N3  UNL     1      27.490  44.921   2.171  1.00  0.00    -0.304 NA
BRANCH  25  26
HETATM   26  N4  UNL     1      27.330  45.438   0.992  1.00  0.00    -0.278 N 
ATOM     27  H42 UNL     1      27.534  44.975   1.877  1.00  0.00     0.191 HD
ATOM     28  H41 UNL     1      27.202  45.846   0.065  1.00  0.00     0.191 HD
ENDBRANCH  25  26
ENDBRANCH  15  25
ENDBRANCH   1  15
TORSDOF 8
ENDMDL
MODEL 4
REMARK VINA RESULT: -7.378285545      1.115      1.753
REMARK  8 active torsions:
REMARK  status: ('A' for Active; 'I' for Inactive)
REMARK    1  A    between atoms: N1_2  and  C2_3 
REMARK    2  A    between atoms: N1_2  and  O1_9 
REMARK    3  A    between atoms: C2_3  and  C3_4 
REMARK    4  A    between atoms: C3_4  and  N2_5 
REMARK    5  A    between atoms: O1_9  and  C4_10 
REMARK    6  A    between atoms: C4_10  and  N3_11 
REMARK    7  A    between atoms: C4_10  and  C5_15 
REMARK    8  A    between atoms: N3_11  and  N4_12 
ROOT
HETATM    1  C5  UNL     1      28.999  45.101   3.972  1.00  0.00     0.103 A 
HETATM    2  C6  UNL     1      28.068  45.232   4.963  1.00  0.00     0.090 A 
HETATM    3  N5  UNL     1      26.760  44.736   4.804  1.00  0.00    -0.100 NA
HETATM    4  C7  UNL     1      28.377  45.847   6.154  1.00  0.00     0.111 A 
HETATM    5  C8  UNL     1      27.377  45.983   7.197  1.00  0.00     0.105 C 
HETATM    6  N6  UNL     1      26.596  46.080   8.036  1.00  0.00    -0.191 NA
HETATM    7  C9  UNL     1      29.636  46.350   6.387  1.00  0.00     0.140 A 
HETATM    8  N7  UNL     1      29.939  46.991   7.631  1.00  0.00    -0.081 NA
HETATM    9  N8  UNL     1      30.562  46.222   5.410  1.00  0.00    -0.329 N 
ATOM     10  H8  UNL     1      31.503  46.587   5.559  1.00  0.00     0.168 HD
HETATM   11  C10 UNL     1      30.265  45.628   4.257  1.00  0.00     0.118 A 
HETATM   12  N9  UNL     1      31.163  45.522   3.365  1.00  0.00    -0.385 N 
ATOM     13  H91 UNL     1      32.084  45.906   3.572  1.00  0.00     0.157 HD
ATOM     14  H92 UNL     1      30.935  45.067   2.482  1.00  0.00     0.157 HD
ENDROOT
BRANCH   1  15
HETATM   15  C4  UNL     1      28.717  44.460   2.664  1.00  0.00     0.279 C 
BRANCH  15  16
HETATM   16  O1  UNL     1      29.255  43.170   2.501  1.00  0.00    -0.201 OA
BRANCH  16  17
HETATM   17  N1  UNL     1      28.692  42.137   3.094  1.00  0.00    -0.267 N 
HETATM   18  C1  UNL     1      29.459  41.121   3.693  1.00  0.00     0.184 C 
BRANCH  17  19
HETATM   19  C2  UNL     1      27.317  41.905   2.908  1.00  0.00     0.117 C 
BRANCH  19  20
HETATM   20  C3  UNL     1      26.945  41.250   1.606  1.00  0.00     0.276 C 
BRANCH  20  21
HETATM   21  N2  UNL     1      27.293  41.991   0.437  1.00  0.00    -0.075 N 
ATOM     22  H23 UNL     1      26.867  42.917   0.467  1.00  0.00     0.274 HD
ATOM     23  H22 UNL     1      28.279  42.249   0.465  1.00  0.00     0.274 HD
ATOM     24  H21 UNL     1      27.074  41.530  -0.446  1.00  0.00     0.274 HD
ENDBRANCH  20  21
ENDBRANCH  19  20
ENDBRANCH  17  19
ENDBRANCH  16  17
ENDBRANCH  15  16
BRANCH  15  25
HETATM   25  N3  UNL     1      28.097  44.956   1.804  1.00  0.00    -0.304 NA
BRANCH  25  26
HETATM   26  N4  UNL     1      27.410  45.504   0.849  1.00  0.00    -0.278 N 
ATOM     27  H42 UNL     1      27.878  44.997   1.601  1.00  0.00     0.191 HD
ATOM     28  H41 UNL     1      26.872  45.937   0.098  1.00  0.00     0.191 HD
ENDBRANCH  25  26
ENDBRANCH  15  25
ENDBRANCH   1  15
TORSDOF 8
ENDMDL
MODEL 5
REMARK VINA RESULT: -7.360019151      3.131      6.939
REMARK  8 active torsions:
REMARK  status: ('A' for Active; 'I' for Inactive)
REMARK    1  A    between atoms: N1_2  and  C2_3 
REMARK    2  A    between atoms: N1_2  and  O1_9 
REMARK    3  A    between atoms: C2_3  and  C3_4 
REMARK    4  A    between atoms: C3_4  and  N2_5 
REMARK    5  A    between atoms: O1_9  and  C4_10 
REMARK    6  A    between atoms: C4_10  and  N3_11 
REMARK    7  A    between atoms: C4_10  and  C5_15 
REMARK    8  A    between atoms: N3_11  and  N4_12 
ROOT
HETATM    1  C5  UNL     1      29.222  40.983   1.776  1.00  0.00     0.103 A 
HETATM    2  C6  UNL     1      29.122  41.299   0.451  1.00  0.00     0.090 A 
HETATM    3  N5  UNL     1      27.930  41.821  -0.086  1.00  0.00    -0.100 NA
HETATM    4  C7  UNL     1      30.184  41.123  -0.405  1.00  0.00     0.111 A 
HETATM    5  C8  UNL     1      30.063  41.459  -1.812  1.00  0.00     0.105 C 
HETATM    6  N6  UNL     1      29.982  41.738  -2.925  1.00  0.00    -0.191 NA
HETATM    7  C9  UNL     1      31.385  40.625   0.046  1.00  0.00     0.140 A 
HETATM    8  N7  UNL     1      32.479  40.445  -0.860  1.00  0.00    -0.081 NA
HETATM    9  N8  UNL     1      31.490  40.312   1.357  1.00  0.00    -0.329 N 
ATOM     10  H8  UNL     1      32.370  39.941   1.716  1.00  0.00     0.168 HD
HETATM   11  C10 UNL     1      30.463  40.480   2.187  1.00  0.00     0.118 A 
HETATM   12  N9  UNL     1      30.602  40.180   3.413  1.00  0.00    -0.385 N 
ATOM     13  H91 UNL     1      31.505  39.813   3.712  1.00  0.00     0.157 HD
ATOM     14  H92 UNL     1      29.815  40.309   4.049  1.00  0.00     0.157 HD
ENDROOT
BRANCH   1  15
HETATM   15  C4  UNL     1      28.106  41.139   2.741  1.00  0.00     0.279 C 
BRANCH  15  16
HETATM   16  O1  UNL     1      28.274  42.161   3.692  1.00  0.00    -0.201 OA
BRANCH  16  17
HETATM   17  N1  UNL     1      28.698  43.351   3.318  1.00  0.00    -0.267 N 
HETATM   18  C1  UNL     1      29.903  43.892   3.803  1.00  0.00     0.184 C 
BRANCH  17  19
HETATM   19  C2  UNL     1      27.820  44.207   2.628  1.00  0.00     0.117 C 
BRANCH  19  20
HETATM   20  C3  UNL     1      28.368  44.807   1.362  1.00  0.00     0.276 C 
BRANCH  20  21
HETATM   21  N2  UNL     1      27.475  45.682   0.673  1.00  0.00    -0.075 N 
ATOM     22  H23 UNL     1      27.998  46.324   0.080  1.00  0.00     0.274 HD
ATOM     23  H22 UNL     1      26.956  45.166  -0.037  1.00  0.00     0.274 HD
ATOM     24  H21 UNL     1      26.832  46.199   1.273  1.00  0.00     0.274 HD
ENDBRANCH  20  21
ENDBRANCH  19  20
ENDBRANCH  17  19
ENDBRANCH  16  17
ENDBRANCH  15  16
BRANCH  15  25
HETATM   25  N3  UNL     1      27.138  40.479   2.745  1.00  0.00    -0.304 NA
BRANCH  25  26
HETATM   26  N4  UNL     1      26.068  39.746   2.749  1.00  0.00    -0.278 N 
ATOM     27  H42 UNL     1      26.898  40.329   2.850  1.00  0.00     0.191 HD
ATOM     28  H41 UNL     1      25.226  39.170   2.750  1.00  0.00     0.191 HD
ENDBRANCH  25  26
ENDBRANCH  15  25
ENDBRANCH   1  15
TORSDOF 8
ENDMDL
