MODEL 1
REMARK VINA RESULT: -7.706143077      0.000      0.000
REMARK  8 active torsions:
REMARK  status: ('A' for Active; 'I' for Inactive)
REMARK    1  A    between atoms: C2_2  and  N1_3 
REMARK    2  A    between atoms: C2_2  and  C3_7 
REMARK       I    between atoms: C3_7  and  N2_9 
REMARK    3  A    between atoms: N2_9  and  C4_10 
REMARK    4  A    between atoms: C6_13  and  N4_14 
REMARK       I    between atoms: N4_14  and  C7_16 
REMARK    5  A    between atoms: C9_21  and  C10_22 
REMARK    6  A    between atoms: C10_22  and  O4_24 
REMARK    7  A    between atoms: O4_24  and  N7_25 
REMARK    8  A    between atoms: C11_28  and  O5_29 
ROOT
HETATM    1  C4  UNL     1      30.287  47.215   9.232  1.00  0.00     0.171 A 
HETATM    2  C5  UNL     1      29.070  46.629   8.916  1.00  0.00     0.118 A 
HETATM    3  N3  UNL     1      28.064  46.625   9.913  1.00  0.00    -0.096 NA
HETATM    4  C6  UNL     1      28.850  46.070   7.674  1.00  0.00     0.089 A 
HETATM    5  C8  UNL     1      29.859  46.101   6.737  1.00  0.00     0.094 A 
HETATM    6  N6  UNL     1      29.686  45.550   5.445  1.00  0.00    -0.099 NA
HETATM    7  C9  UNL     1      31.113  46.681   7.001  1.00  0.00     0.104 A 
HETATM    8  C11 UNL     1      31.320  47.229   8.233  1.00  0.00     0.127 A 
ENDROOT
BRANCH   1   9
HETATM    9  N2  UNL     1      30.489  47.782  10.422  1.00  0.00    -0.364 NA
HETATM   10  C3  UNL     1      30.696  48.361  11.639  1.00  0.00     0.322 C 
HETATM   11  O1  UNL     1      30.697  47.868  12.806  1.00  0.00    -0.255 OA
BRANCH  10  12
HETATM   12  C2  UNL     1      30.977  49.863  11.661  1.00  0.00     0.285 C 
HETATM   13  C1  UNL     1      30.992  50.421  10.275  1.00  0.00     0.051 C 
BRANCH  12  14
HETATM   14  N1  UNL     1      29.965  50.518  12.441  1.00  0.00    -0.066 N 
ATOM     15  H13 UNL     1      29.401  51.156  11.879  1.00  0.00     0.275 HD
ATOM     16  H12 UNL     1      29.224  49.876  12.723  1.00  0.00     0.275 HD
ATOM     17  H11 UNL     1      30.391  50.986  13.241  1.00  0.00     0.275 HD
ENDBRANCH  12  14
ENDBRANCH  10  12
ENDBRANCH   1   9
BRANCH   8  18
HETATM   18  O5  UNL     1      32.494  47.809   8.578  1.00  0.00    -0.356 OA
ATOM     19  H5  UNL     1      32.957  48.277   7.893  1.00  0.00     0.218 HD
ENDBRANCH   8  18
BRANCH   4  20
HETATM   20  N4  UNL     1      27.593  45.480   7.413  1.00  0.00    -0.308 N 
HETATM   21  C7  UNL     1      26.520  46.163   6.784  1.00  0.00     0.333 C 
HETATM   22  N5  UNL     1      25.262  45.583   6.514  1.00  0.00    -0.040 NA
HETATM   23  O2  UNL     1      26.658  47.384   6.422  1.00  0.00    -0.251 OA
ATOM     24  H4  UNL     1      27.449  44.510   7.692  1.00  0.00     0.170 HD
ENDBRANCH   4  20
BRANCH   7  25
HETATM   25  C10 UNL     1      32.126  46.671   5.965  1.00  0.00     0.319 C 
HETATM   26  O3  UNL     1      33.095  45.920   5.962  1.00  0.00    -0.257 OA
BRANCH  25  27
HETATM   27  O4  UNL     1      32.024  47.562   4.883  1.00  0.00    -0.202 OA
BRANCH  27  28
HETATM   28  N7  UNL     1      31.721  47.078   3.617  1.00  0.00    -0.302 N 
ATOM     29  H72 UNL     1      30.950  46.418   3.509  1.00  0.00     0.184 HD
ATOM     30  H71 UNL     1      32.268  47.385   2.813  1.00  0.00     0.184 HD
ENDBRANCH  27  28
ENDBRANCH  25  27
ENDBRANCH   7  25
TORSDOF 8
ENDMDL
MODEL 2
REMARK VINA RESULT: -7.571716488      4.036      5.510
REMARK  8 active torsions:
REMARK  status: ('A' for Active; 'I' for Inactive)
REMARK    1  A    between atoms: C2_2  and  N1_3 
REMARK    2  A    between atoms: C2_2  and  C3_7 
REMARK       I    between atoms: C3_7  and  N2_9 
REMARK    3  A    between atoms: N2_9  and  C4_10 
REMARK    4  A    between atoms: C6_13  and  N4_14 
REMARK       I    between atoms: N4_14  and  C7_16 
REMARK    5  A    between atoms: C9_21  and  C10_22 
REMARK    6  A    between atoms: C10_22  and  O4_24 
REMARK    7  A    between atoms: O4_24  and  N7_25 
REMARK    8  A    between atoms: C11_28  and  O5_29 
ROOT
HETATM    1  C4  UNL     1      30.619  45.536   4.328  1.00  0.00     0.171 A 
HETATM    2  C5  UNL     1      29.705  45.505   5.370  1.00  0.00     0.118 A 
HETATM    3  N3  UNL     1      30.131  45.988   6.632  1.00  0.00    -0.096 NA
HETATM    4  C6  UNL     1      28.427  45.022   5.183  1.00  0.00     0.089 A 
HETATM    5  C8  UNL     1      28.059  44.565   3.936  1.00  0.00     0.094 A 
HETATM    6  N6  UNL     1      26.759  44.065   3.685  1.00  0.00    -0.099 NA
HETATM    7  C9  UNL     1      28.943  44.571   2.842  1.00  0.00     0.104 A 
HETATM    8  C11 UNL     1      30.205  45.051   3.040  1.00  0.00     0.127 A 
ENDROOT
BRANCH   1   9
HETATM    9  N2  UNL     1      31.845  46.032   4.502  1.00  0.00    -0.364 NA
HETATM   10  C3  UNL     1      33.097  46.540   4.678  1.00  0.00     0.322 C 
HETATM   11  O1  UNL     1      33.978  46.893   3.839  1.00  0.00    -0.255 OA
BRANCH  10  12
HETATM   12  C2  UNL     1      33.575  46.739   6.116  1.00  0.00     0.285 C 
HETATM   13  C1  UNL     1      35.034  47.061   6.152  1.00  0.00     0.051 C 
BRANCH  12  14
HETATM   14  N1  UNL     1      32.824  47.806   6.716  1.00  0.00    -0.066 N 
ATOM     15  H13 UNL     1      33.419  48.594   6.976  1.00  0.00     0.275 HD
ATOM     16  H12 UNL     1      32.232  48.286   6.037  1.00  0.00     0.275 HD
ATOM     17  H11 UNL     1      32.289  47.452   7.508  1.00  0.00     0.275 HD
ENDBRANCH  12  14
ENDBRANCH  10  12
ENDBRANCH   1   9
BRANCH   8  18
HETATM   18  O5  UNL     1      31.124  45.095   2.046  1.00  0.00    -0.356 OA
ATOM     19  H5  UNL     1      31.432  45.955   1.786  1.00  0.00     0.218 HD
ENDBRANCH   8  18
BRANCH   4  20
HETATM   20  N4  UNL     1      27.542  45.008   6.285  1.00  0.00    -0.308 N 
HETATM   21  C7  UNL     1      26.563  46.007   6.518  1.00  0.00     0.333 C 
HETATM   22  N5  UNL     1      25.670  46.002   7.612  1.00  0.00    -0.040 NA
HETATM   23  O2  UNL     1      26.445  46.994   5.710  1.00  0.00    -0.251 OA
ATOM     24  H4  UNL     1      27.612  44.238   6.949  1.00  0.00     0.170 HD
ENDBRANCH   4  20
BRANCH   7  25
HETATM   25  C10 UNL     1      28.484  44.071   1.563  1.00  0.00     0.319 C 
HETATM   26  O3  UNL     1      28.486  42.885   1.249  1.00  0.00    -0.257 OA
BRANCH  25  27
HETATM   27  O4  UNL     1      27.999  44.969   0.597  1.00  0.00    -0.202 OA
BRANCH  27  28
HETATM   28  N7  UNL     1      27.190  46.029   0.986  1.00  0.00    -0.302 N 
ATOM     29  H72 UNL     1      27.594  46.964   1.055  1.00  0.00     0.184 HD
ATOM     30  H71 UNL     1      26.206  45.864   1.199  1.00  0.00     0.184 HD
ENDBRANCH  27  28
ENDBRANCH  25  27
ENDBRANCH   7  25
TORSDOF 8
ENDMDL
MODEL 3
REMARK VINA RESULT: -7.547587416      3.205      7.428
REMARK  8 active torsions:
REMARK  status: ('A' for Active; 'I' for Inactive)
REMARK    1  A    between atoms: C2_2  and  N1_3 
REMARK    2  A    between atoms: C2_2  and  C3_7 
REMARK       I    between atoms: C3_7  and  N2_9 
REMARK    3  A    between atoms: N2_9  and  C4_10 
REMARK    4  A    between atoms: C6_13  and  N4_14 
REMARK       I    between atoms: N4_14  and  C7_16 
REMARK    5  A    between atoms: C9_21  and  C10_22 
REMARK    6  A    between atoms: C10_22  and  O4_24 
REMARK    7  A    between atoms: O4_24  and  N7_25 
REMARK    8  A    between atoms: C11_28  and  O5_29 
ROOT
HETATM    1  C4  UNL     1      29.441  44.891   5.112  1.00  0.00     0.171 A 
HETATM    2  C5  UNL     1      30.469  45.820   5.198  1.00  0.00     0.118 A 
HETATM    3  N3  UNL     1      31.633  45.583   4.426  1.00  0.00    -0.096 NA
HETATM    4  C6  UNL     1      30.358  46.932   6.005  1.00  0.00     0.089 A 
HETATM    5  C8  UNL     1      29.204  47.120   6.734  1.00  0.00     0.094 A 
HETATM    6  N6  UNL     1      29.034  48.247   7.574  1.00  0.00    -0.099 NA
HETATM    7  C9  UNL     1      28.131  46.213   6.688  1.00  0.00     0.104 A 
HETATM    8  C11 UNL     1      28.252  45.114   5.887  1.00  0.00     0.127 A 
ENDROOT
BRANCH   1   9
HETATM    9  N2  UNL     1      29.536  43.832   4.307  1.00  0.00    -0.364 NA
HETATM   10  C3  UNL     1      29.633  42.749   3.486  1.00  0.00     0.322 C 
HETATM   11  O1  UNL     1      30.430  41.763   3.499  1.00  0.00    -0.255 OA
BRANCH  10  12
HETATM   12  C2  UNL     1      28.637  42.654   2.331  1.00  0.00     0.285 C 
HETATM   13  C1  UNL     1      28.681  41.301   1.700  1.00  0.00     0.051 C 
BRANCH  12  14
HETATM   14  N1  UNL     1      27.316  42.918   2.830  1.00  0.00    -0.066 N 
ATOM     15  H13 UNL     1      26.731  43.386   2.137  1.00  0.00     0.275 HD
ATOM     16  H12 UNL     1      26.768  42.064   2.935  1.00  0.00     0.275 HD
ATOM     17  H11 UNL     1      27.373  43.446   3.702  1.00  0.00     0.275 HD
ENDBRANCH  12  14
ENDBRANCH  10  12
ENDBRANCH   1   9
BRANCH   8  18
HETATM   18  O5  UNL     1      27.271  44.187   5.779  1.00  0.00    -0.356 OA
ATOM     19  H5  UNL     1      27.351  43.415   6.326  1.00  0.00     0.218 HD
ENDBRANCH   8  18
BRANCH   4  20
HETATM   20  N4  UNL     1      31.441  47.839   6.057  1.00  0.00    -0.308 N 
HETATM   21  C7  UNL     1      32.372  47.889   7.126  1.00  0.00     0.333 C 
HETATM   22  N5  UNL     1      33.461  48.786   7.186  1.00  0.00    -0.040 NA
HETATM   23  O2  UNL     1      32.257  47.088   8.118  1.00  0.00    -0.251 OA
ATOM     24  H4  UNL     1      31.560  48.492   5.283  1.00  0.00     0.170 HD
ENDBRANCH   4  20
BRANCH   7  25
HETATM   25  C10 UNL     1      26.952  46.476   7.487  1.00  0.00     0.319 C 
HETATM   26  O3  UNL     1      25.819  46.573   7.027  1.00  0.00    -0.257 OA
BRANCH  25  27
HETATM   27  O4  UNL     1      27.074  46.634   8.878  1.00  0.00    -0.202 OA
BRANCH  27  28
HETATM   28  N7  UNL     1      27.923  45.801   9.595  1.00  0.00    -0.302 N 
ATOM     29  H72 UNL     1      28.840  45.575   9.209  1.00  0.00     0.184 HD
ATOM     30  H71 UNL     1      27.623  45.425  10.495  1.00  0.00     0.184 HD
ENDBRANCH  27  28
ENDBRANCH  25  27
ENDBRANCH   7  25
TORSDOF 8
ENDMDL
MODEL 4
REMARK VINA RESULT: -7.497979898      2.562      5.069
REMARK  8 active torsions:
REMARK  status: ('A' for Active; 'I' for Inactive)
REMARK    1  A    between atoms: C2_2  and  N1_3 
REMARK    2  A    between atoms: C2_2  and  C3_7 
REMARK       I    between atoms: C3_7  and  N2_9 
REMARK    3  A    between atoms: N2_9  and  C4_10 
REMARK    4  A    between atoms: C6_13  and  N4_14 
REMARK       I    between atoms: N4_14  and  C7_16 
REMARK    5  A    between atoms: C9_21  and  C10_22 
REMARK    6  A    between atoms: C10_22  and  O4_24 
REMARK    7  A    between atoms: O4_24  and  N7_25 
REMARK    8  A    between atoms: C11_28  and  O5_29 
ROOT
HETATM    1  C4  UNL     1      30.515  46.719   5.967  1.00  0.00     0.171 A 
HETATM    2  C5  UNL     1      30.709  45.913   4.854  1.00  0.00     0.118 A 
HETATM    3  N3  UNL     1      32.035  45.759   4.378  1.00  0.00    -0.096 NA
HETATM    4  C6  UNL     1      29.649  45.285   4.236  1.00  0.00     0.089 A 
HETATM    5  C8  UNL     1      28.378  45.465   4.738  1.00  0.00     0.094 A 
HETATM    6  N6  UNL     1      27.254  44.839   4.148  1.00  0.00    -0.099 NA
HETATM    7  C9  UNL     1      28.121  46.270   5.861  1.00  0.00     0.104 A 
HETATM    8  C11 UNL     1      29.178  46.887   6.465  1.00  0.00     0.127 A 
ENDROOT
BRANCH   1   9
HETATM    9  N2  UNL     1      31.545  47.301   6.583  1.00  0.00    -0.364 NA
HETATM   10  C3  UNL     1      32.598  47.896   7.212  1.00  0.00     0.322 C 
HETATM   11  O1  UNL     1      33.815  48.006   6.874  1.00  0.00    -0.255 OA
BRANCH  10  12
HETATM   12  C2  UNL     1      32.324  48.559   8.561  1.00  0.00     0.285 C 
HETATM   13  C1  UNL     1      31.665  49.887   8.377  1.00  0.00     0.051 C 
BRANCH  12  14
HETATM   14  N1  UNL     1      31.480  47.698   9.342  1.00  0.00    -0.066 N 
ATOM     15  H13 UNL     1      31.538  47.908  10.339  1.00  0.00     0.275 HD
ATOM     16  H12 UNL     1      30.491  47.904   9.204  1.00  0.00     0.275 HD
ATOM     17  H11 UNL     1      31.700  46.722   9.143  1.00  0.00     0.275 HD
ENDBRANCH  12  14
ENDBRANCH  10  12
ENDBRANCH   1   9
BRANCH   8  18
HETATM   18  O5  UNL     1      29.027  47.682   7.551  1.00  0.00    -0.356 OA
ATOM     19  H5  UNL     1      28.137  47.910   7.793  1.00  0.00     0.218 HD
ENDBRANCH   8  18
BRANCH   4  20
HETATM   20  N4  UNL     1      29.907  44.483   3.102  1.00  0.00    -0.308 N 
HETATM   21  C7  UNL     1      30.006  43.069   3.146  1.00  0.00     0.333 C 
HETATM   22  N5  UNL     1      30.259  42.257   2.019  1.00  0.00    -0.040 NA
HETATM   23  O2  UNL     1      29.862  42.448   4.257  1.00  0.00    -0.251 OA
ATOM     24  H4  UNL     1      30.030  44.947   2.202  1.00  0.00     0.170 HD
ENDBRANCH   4  20
BRANCH   7  25
HETATM   25  C10 UNL     1      26.757  46.414   6.328  1.00  0.00     0.319 C 
HETATM   26  O3  UNL     1      25.938  47.178   5.828  1.00  0.00    -0.257 OA
BRANCH  25  27
HETATM   27  O4  UNL     1      26.310  45.647   7.418  1.00  0.00    -0.202 OA
BRANCH  27  28
HETATM   28  N7  UNL     1      26.716  45.975   8.705  1.00  0.00    -0.302 N 
ATOM     29  H72 UNL     1      26.194  46.680   9.226  1.00  0.00     0.184 HD
ATOM     30  H71 UNL     1      27.527  45.511   9.114  1.00  0.00     0.184 HD
ENDBRANCH  27  28
ENDBRANCH  25  27
ENDBRANCH   7  25
TORSDOF 8
ENDMDL
MODEL 5
REMARK VINA RESULT: -7.481269662      3.829      7.212
REMARK  8 active torsions:
REMARK  status: ('A' for Active; 'I' for Inactive)
REMARK    1  A    between atoms: C2_2  and  N1_3 
REMARK    2  A    between atoms: C2_2  and  C3_7 
REMARK       I    between atoms: C3_7  and  N2_9 
REMARK    3  A    between atoms: N2_9  and  C4_10 
REMARK    4  A    between atoms: C6_13  and  N4_14 
REMARK       I    between atoms: N4_14  and  C7_16 
REMARK    5  A    between atoms: C9_21  and  C10_22 
REMARK    6  A    between atoms: C10_22  and  O4_24 
REMARK    7  A    between atoms: O4_24  and  N7_25 
REMARK    8  A    between atoms: C11_28  and  O5_29 
ROOT
HETATM    1  C4  UNL     1      29.457  44.370   3.324  1.00  0.00     0.171 A 
HETATM    2  C5  UNL     1      28.376  44.352   4.193  1.00  0.00     0.118 A 
HETATM    3  N3  UNL     1      27.225  43.628   3.794  1.00  0.00    -0.096 NA
HETATM    4  C6  UNL     1      28.422  45.015   5.401  1.00  0.00     0.089 A 
HETATM    5  C8  UNL     1      29.565  45.703   5.745  1.00  0.00     0.094 A 
HETATM    6  N6  UNL     1      29.670  46.395   6.975  1.00  0.00    -0.099 NA
HETATM    7  C9  UNL     1      30.691  45.757   4.905  1.00  0.00     0.104 A 
HETATM    8  C11 UNL     1      30.634  45.098   3.711  1.00  0.00     0.127 A 
ENDROOT
BRANCH   1   9
HETATM    9  N2  UNL     1      29.424  43.703   2.169  1.00  0.00    -0.364 NA
HETATM   10  C3  UNL     1      29.391  43.021   0.989  1.00  0.00     0.322 C 
HETATM   11  O1  UNL     1      29.893  43.292  -0.142  1.00  0.00    -0.255 OA
BRANCH  10  12
HETATM   12  C2  UNL     1      28.629  41.697   0.967  1.00  0.00     0.285 C 
HETATM   13  C1  UNL     1      29.150  40.767   2.014  1.00  0.00     0.051 C 
BRANCH  12  14
HETATM   14  N1  UNL     1      27.235  41.955   1.193  1.00  0.00    -0.066 N 
ATOM     15  H13 UNL     1      26.867  41.413   1.975  1.00  0.00     0.275 HD
ATOM     16  H12 UNL     1      27.074  42.889   1.571  1.00  0.00     0.275 HD
ATOM     17  H11 UNL     1      26.708  41.794   0.334  1.00  0.00     0.275 HD
ENDBRANCH  12  14
ENDBRANCH  10  12
ENDBRANCH   1   9
BRANCH   8  18
HETATM   18  O5  UNL     1      31.669  45.095   2.838  1.00  0.00    -0.356 OA
ATOM     19  H5  UNL     1      31.964  45.941   2.521  1.00  0.00     0.218 HD
ENDBRANCH   8  18
BRANCH   4  20
HETATM   20  N4  UNL     1      27.287  44.967   6.241  1.00  0.00    -0.308 N 
HETATM   21  C7  UNL     1      26.297  45.982   6.282  1.00  0.00     0.333 C 
HETATM   22  N5  UNL     1      25.156  45.943   7.113  1.00  0.00    -0.040 NA
HETATM   23  O2  UNL     1      26.404  47.016   5.535  1.00  0.00    -0.251 OA
ATOM     24  H4  UNL     1      27.173  44.158   6.851  1.00  0.00     0.170 HD
ENDBRANCH   4  20
BRANCH   7  25
HETATM   25  C10 UNL     1      31.855  46.505   5.334  1.00  0.00     0.319 C 
HETATM   26  O3  UNL     1      32.970  46.014   5.481  1.00  0.00    -0.257 OA
BRANCH  25  27
HETATM   27  O4  UNL     1      31.739  47.878   5.608  1.00  0.00    -0.202 OA
BRANCH  27  28
HETATM   28  N7  UNL     1      32.133  48.371   6.846  1.00  0.00    -0.302 N 
ATOM     29  H72 UNL     1      31.527  48.225   7.654  1.00  0.00     0.184 HD
ATOM     30  H71 UNL     1      33.018  48.870   6.934  1.00  0.00     0.184 HD
ENDBRANCH  27  28
ENDBRANCH  25  27
ENDBRANCH   7  25
TORSDOF 8
ENDMDL
