MODEL 1
REMARK VINA RESULT: -7.375770011      0.000      0.000
REMARK  9 active torsions:
REMARK  status: ('A' for Active; 'I' for Inactive)
REMARK       I    between atoms: C2_2  and  N1_4 
REMARK    1  A    between atoms: N1_4  and  N2_6 
REMARK    2  A    between atoms: N2_6  and  C3_8 
REMARK    3  A    between atoms: C3_8  and  N3_10 
REMARK    4  A    between atoms: N3_10  and  N4_12 
REMARK       I    between atoms: N4_12  and  C4_14 
REMARK    5  A    between atoms: C4_14  and  C5_16 
REMARK    6  A    between atoms: C6_18  and  N5_19 
REMARK    7  A    between atoms: N6_22  and  C7_23 
REMARK    8  A    between atoms: C7_23  and  C8_24 
REMARK    9  A    between atoms: C8_24  and  N7_25 
ROOT
HETATM    1  C5  UNL     1      28.497  45.685   6.032  1.00  0.00     0.119 A 
HETATM    2  S2  UNL     1      29.953  46.058   5.235  1.00  0.00    -0.045 SA
HETATM    3  C6  UNL     1      29.605  45.334   3.727  1.00  0.00     0.146 A 
HETATM    4  N6  UNL     1      28.387  44.840   3.906  1.00  0.00    -0.313 N 
HETATM    5  C9  UNL     1      27.797  45.003   5.071  1.00  0.00     0.143 A 
HETATM    6  N8  UNL     1      26.478  44.517   5.410  1.00  0.00    -0.081 NA
ENDROOT
BRANCH   1   7
HETATM    7  C4  UNL     1      28.122  46.032   7.403  1.00  0.00     0.280 C 
HETATM    8  N4  UNL     1      28.548  45.301   8.518  1.00  0.00    -0.263 N 
ATOM      9  H4  UNL     1      29.144  44.483   8.396  1.00  0.00     0.190 HD
HETATM   10  O2  UNL     1      27.375  47.043   7.601  1.00  0.00    -0.265 OA
BRANCH   8  11
HETATM   11  N3  UNL     1      28.157  45.695   9.799  1.00  0.00    -0.272 N 
ATOM     12  H3  UNL     1      27.200  46.015   9.951  1.00  0.00     0.189 HD
BRANCH  11  13
HETATM   13  C3  UNL     1      29.060  45.662  10.895  1.00  0.00     0.205 C 
HETATM   14  S1  UNL     1      30.313  46.734  10.977  1.00  0.00    -0.038 SA
BRANCH  13  15
HETATM   15  N2  UNL     1      28.906  44.735  11.926  1.00  0.00    -0.273 N 
ATOM     16  H2  UNL     1      29.055  43.751  11.703  1.00  0.00     0.189 HD
BRANCH  15  17
HETATM   17  N1  UNL     1      28.564  45.052  13.233  1.00  0.00    -0.268 N 
HETATM   18  C2  UNL     1      27.955  44.076  14.081  1.00  0.00     0.232 C 
HETATM   19  C1  UNL     1      27.584  44.387  15.472  1.00  0.00     0.119 C 
HETATM   20  O1  UNL     1      27.750  42.928  13.571  1.00  0.00    -0.272 OA
ATOM     21  H1  UNL     1      28.749  45.988  13.592  1.00  0.00     0.190 HD
ENDBRANCH  15  17
ENDBRANCH  13  15
ENDBRANCH  11  13
ENDBRANCH   8  11
ENDBRANCH   1   7
BRANCH   3  22
HETATM   22  N5  UNL     1      30.373  45.296   2.675  1.00  0.00    -0.379 N 
ATOM     23  H52 UNL     1      31.206  45.843   2.457  1.00  0.00     0.158 HD
ATOM     24  H51 UNL     1      30.272  44.691   1.860  1.00  0.00     0.158 HD
ENDBRANCH   3  22
BRANCH   4  25
HETATM   25  C7  UNL     1      27.719  44.135   2.794  1.00  0.00     0.159 C 
BRANCH  25  26
HETATM   26  C8  UNL     1      28.065  42.683   2.735  1.00  0.00     0.249 C 
BRANCH  26  27
HETATM   27  N7  UNL     1      27.300  42.086   1.629  1.00  0.00    -0.078 N 
ATOM     28  H73 UNL     1      26.979  41.140   1.833  1.00  0.00     0.274 HD
ATOM     29  H72 UNL     1      26.383  42.515   1.504  1.00  0.00     0.274 HD
ATOM     30  H71 UNL     1      27.880  42.136   0.791  1.00  0.00     0.274 HD
ENDBRANCH  26  27
ENDBRANCH  25  26
ENDBRANCH   4  25
TORSDOF 9
ENDMDL
MODEL 2
REMARK VINA RESULT: -7.333403370      3.908      4.422
REMARK  9 active torsions:
REMARK  status: ('A' for Active; 'I' for Inactive)
REMARK       I    between atoms: C2_2  and  N1_4 
REMARK    1  A    between atoms: N1_4  and  N2_6 
REMARK    2  A    between atoms: N2_6  and  C3_8 
REMARK    3  A    between atoms: C3_8  and  N3_10 
REMARK    4  A    between atoms: N3_10  and  N4_12 
REMARK       I    between atoms: N4_12  and  C4_14 
REMARK    5  A    between atoms: C4_14  and  C5_16 
REMARK    6  A    between atoms: C6_18  and  N5_19 
REMARK    7  A    between atoms: N6_22  and  C7_23 
REMARK    8  A    between atoms: C7_23  and  C8_24 
REMARK    9  A    between atoms: C8_24  and  N7_25 
ROOT
HETATM    1  C5  UNL     1      27.973  44.940   4.173  1.00  0.00     0.119 A 
HETATM    2  S2  UNL     1      26.845  44.171   3.158  1.00  0.00    -0.045 SA
HETATM    3  C6  UNL     1      27.835  42.890   2.611  1.00  0.00     0.146 A 
HETATM    4  N6  UNL     1      28.985  43.112   3.234  1.00  0.00    -0.313 N 
HETATM    5  C9  UNL     1      29.085  44.151   4.036  1.00  0.00     0.143 A 
HETATM    6  N8  UNL     1      30.273  44.519   4.774  1.00  0.00    -0.081 NA
ENDROOT
BRANCH   1   7
HETATM    7  C4  UNL     1      27.765  46.141   4.981  1.00  0.00     0.280 C 
HETATM    8  N4  UNL     1      28.779  46.734   5.742  1.00  0.00    -0.263 N 
ATOM      9  H4  UNL     1      29.713  46.326   5.755  1.00  0.00     0.190 HD
HETATM   10  O2  UNL     1      26.612  46.681   4.998  1.00  0.00    -0.265 OA
BRANCH   8  11
HETATM   11  N3  UNL     1      28.510  47.886   6.484  1.00  0.00    -0.272 N 
ATOM     12  H3  UNL     1      28.486  48.789   6.011  1.00  0.00     0.189 HD
BRANCH  11  13
HETATM   13  C3  UNL     1      28.269  47.829   7.883  1.00  0.00     0.205 C 
HETATM   14  S1  UNL     1      28.168  46.371   8.654  1.00  0.00    -0.038 SA
BRANCH  13  15
HETATM   15  N2  UNL     1      28.120  48.993   8.636  1.00  0.00    -0.273 N 
ATOM     16  H2  UNL     1      27.663  49.789   8.190  1.00  0.00     0.189 HD
BRANCH  15  17
HETATM   17  N1  UNL     1      28.547  49.151   9.947  1.00  0.00    -0.268 N 
HETATM   18  C2  UNL     1      29.867  49.622  10.228  1.00  0.00     0.232 C 
HETATM   19  C1  UNL     1      30.344  49.799  11.610  1.00  0.00     0.119 C 
HETATM   20  O1  UNL     1      30.606  49.879   9.224  1.00  0.00    -0.272 OA
ATOM     21  H1  UNL     1      27.915  48.929  10.715  1.00  0.00     0.190 HD
ENDBRANCH  15  17
ENDBRANCH  13  15
ENDBRANCH  11  13
ENDBRANCH   8  11
ENDBRANCH   1   7
BRANCH   3  22
HETATM   22  N5  UNL     1      27.506  41.939   1.783  1.00  0.00    -0.379 N 
ATOM     23  H52 UNL     1      26.693  41.858   1.173  1.00  0.00     0.158 HD
ATOM     24  H51 UNL     1      28.024  41.080   1.594  1.00  0.00     0.158 HD
ENDBRANCH   3  22
BRANCH   4  25
HETATM   25  C7  UNL     1      30.115  42.186   3.024  1.00  0.00     0.159 C 
BRANCH  25  26
HETATM   26  C8  UNL     1      29.837  40.807   3.526  1.00  0.00     0.249 C 
BRANCH  26  27
HETATM   27  N7  UNL     1      31.092  40.042   3.446  1.00  0.00    -0.078 N 
ATOM     28  H73 UNL     1      30.939  39.036   3.372  1.00  0.00     0.274 HD
ATOM     29  H72 UNL     1      31.578  40.169   2.559  1.00  0.00     0.274 HD
ATOM     30  H71 UNL     1      31.662  40.299   4.252  1.00  0.00     0.274 HD
ENDBRANCH  26  27
ENDBRANCH  25  26
ENDBRANCH   4  25
TORSDOF 9
ENDMDL
MODEL 3
REMARK VINA RESULT: -7.235370296      2.604      3.076
REMARK  9 active torsions:
REMARK  status: ('A' for Active; 'I' for Inactive)
REMARK       I    between atoms: C2_2  and  N1_4 
REMARK    1  A    between atoms: N1_4  and  N2_6 
REMARK    2  A    between atoms: N2_6  and  C3_8 
REMARK    3  A    between atoms: C3_8  and  N3_10 
REMARK    4  A    between atoms: N3_10  and  N4_12 
REMARK       I    between atoms: N4_12  and  C4_14 
REMARK    5  A    between atoms: C4_14  and  C5_16 
REMARK    6  A    between atoms: C6_18  and  N5_19 
REMARK    7  A    between atoms: N6_22  and  C7_23 
REMARK    8  A    between atoms: C7_23  and  C8_24 
REMARK    9  A    between atoms: C8_24  and  N7_25 
ROOT
HETATM    1  C5  UNL     1      28.657  46.335   6.133  1.00  0.00     0.119 A 
HETATM    2  S2  UNL     1      29.912  45.199   5.966  1.00  0.00    -0.045 SA
HETATM    3  C6  UNL     1      29.300  44.347   4.617  1.00  0.00     0.146 A 
HETATM    4  N6  UNL     1      28.161  44.976   4.358  1.00  0.00    -0.313 N 
HETATM    5  C9  UNL     1      27.806  45.993   5.115  1.00  0.00     0.143 A 
HETATM    6  N8  UNL     1      26.595  46.765   4.955  1.00  0.00    -0.081 NA
ENDROOT
BRANCH   1   7
HETATM    7  C4  UNL     1      28.554  47.403   7.128  1.00  0.00     0.280 C 
HETATM    8  N4  UNL     1      29.341  48.560   7.090  1.00  0.00    -0.263 N 
ATOM      9  H4  UNL     1      30.029  48.685   6.348  1.00  0.00     0.190 HD
HETATM   10  O2  UNL     1      27.712  47.284   8.074  1.00  0.00    -0.265 OA
BRANCH   8  11
HETATM   11  N3  UNL     1      29.183  49.542   8.069  1.00  0.00    -0.272 N 
ATOM     12  H3  UNL     1      28.628  50.371   7.858  1.00  0.00     0.189 HD
BRANCH  11  13
HETATM   13  C3  UNL     1      29.778  49.413   9.353  1.00  0.00     0.205 C 
HETATM   14  S1  UNL     1      31.397  49.673   9.554  1.00  0.00    -0.038 SA
BRANCH  13  15
HETATM   15  N2  UNL     1      29.013  49.074  10.469  1.00  0.00    -0.273 N 
ATOM     16  H2  UNL     1      28.723  49.830  11.090  1.00  0.00     0.189 HD
BRANCH  15  17
HETATM   17  N1  UNL     1      28.618  47.785  10.799  1.00  0.00    -0.268 N 
HETATM   18  C2  UNL     1      29.324  47.043  11.796  1.00  0.00     0.232 C 
HETATM   19  C1  UNL     1      28.924  45.674  12.165  1.00  0.00     0.119 C 
HETATM   20  O1  UNL     1      30.315  47.625  12.344  1.00  0.00    -0.272 OA
ATOM     21  H1  UNL     1      27.818  47.365  10.327  1.00  0.00     0.190 HD
ENDBRANCH  15  17
ENDBRANCH  13  15
ENDBRANCH  11  13
ENDBRANCH   8  11
ENDBRANCH   1   7
BRANCH   3  22
HETATM   22  N5  UNL     1      29.847  43.332   4.012  1.00  0.00    -0.379 N 
ATOM     23  H52 UNL     1      30.759  42.899   4.159  1.00  0.00     0.158 HD
ATOM     24  H51 UNL     1      29.444  42.771   3.260  1.00  0.00     0.158 HD
ENDBRANCH   3  22
BRANCH   4  25
HETATM   25  C7  UNL     1      27.327  44.531   3.223  1.00  0.00     0.159 C 
BRANCH  25  26
HETATM   26  C8  UNL     1      27.758  45.119   1.920  1.00  0.00     0.249 C 
BRANCH  26  27
HETATM   27  N7  UNL     1      26.821  46.204   1.589  1.00  0.00    -0.078 N 
ATOM     28  H73 UNL     1      25.848  45.956   1.765  1.00  0.00     0.274 HD
ATOM     29  H72 UNL     1      26.878  46.989   2.237  1.00  0.00     0.274 HD
ATOM     30  H71 UNL     1      26.992  46.476   0.620  1.00  0.00     0.274 HD
ENDBRANCH  26  27
ENDBRANCH  25  26
ENDBRANCH   4  25
TORSDOF 9
ENDMDL
MODEL 4
REMARK VINA RESULT: -7.108700323      1.377      2.004
REMARK  9 active torsions:
REMARK  status: ('A' for Active; 'I' for Inactive)
REMARK       I    between atoms: C2_2  and  N1_4 
REMARK    1  A    between atoms: N1_4  and  N2_6 
REMARK    2  A    between atoms: N2_6  and  C3_8 
REMARK    3  A    between atoms: C3_8  and  N3_10 
REMARK    4  A    between atoms: N3_10  and  N4_12 
REMARK       I    between atoms: N4_12  and  C4_14 
REMARK    5  A    between atoms: C4_14  and  C5_16 
REMARK    6  A    between atoms: C6_18  and  N5_19 
REMARK    7  A    between atoms: N6_22  and  C7_23 
REMARK    8  A    between atoms: C7_23  and  C8_24 
REMARK    9  A    between atoms: C8_24  and  N7_25 
ROOT
HETATM    1  C5  UNL     1      28.345  45.586   6.354  1.00  0.00     0.119 A 
HETATM    2  S2  UNL     1      26.952  45.393   5.396  1.00  0.00    -0.045 SA
HETATM    3  C6  UNL     1      27.673  44.601   4.065  1.00  0.00     0.146 A 
HETATM    4  N6  UNL     1      28.949  44.521   4.418  1.00  0.00    -0.313 N 
HETATM    5  C9  UNL     1      29.322  45.016   5.580  1.00  0.00     0.143 A 
HETATM    6  N8  UNL     1      30.673  45.005   6.092  1.00  0.00    -0.081 NA
ENDROOT
BRANCH   1   7
HETATM    7  C4  UNL     1      28.434  46.207   7.676  1.00  0.00     0.280 C 
HETATM    8  N4  UNL     1      27.940  45.601   8.838  1.00  0.00    -0.263 N 
ATOM      9  H4  UNL     1      27.489  44.688   8.785  1.00  0.00     0.190 HD
HETATM   10  O2  UNL     1      28.985  47.348   7.785  1.00  0.00    -0.265 OA
BRANCH   8  11
HETATM   11  N3  UNL     1      28.066  46.249  10.068  1.00  0.00    -0.272 N 
ATOM     12  H3  UNL     1      27.429  47.012  10.296  1.00  0.00     0.189 HD
BRANCH  11  13
HETATM   13  C3  UNL     1      29.061  45.871  11.008  1.00  0.00     0.205 C 
HETATM   14  S1  UNL     1      30.551  46.583  10.979  1.00  0.00    -0.038 SA
BRANCH  13  15
HETATM   15  N2  UNL     1      28.803  44.902  11.978  1.00  0.00    -0.273 N 
ATOM     16  H2  UNL     1      28.888  43.924  11.703  1.00  0.00     0.189 HD
BRANCH  15  17
HETATM   17  N1  UNL     1      28.440  45.170  13.290  1.00  0.00    -0.268 N 
HETATM   18  C2  UNL     1      27.910  44.136  14.122  1.00  0.00     0.232 C 
HETATM   19  C1  UNL     1      27.518  44.395  15.518  1.00  0.00     0.119 C 
HETATM   20  O1  UNL     1      27.793  42.984  13.593  1.00  0.00    -0.272 OA
ATOM     21  H1  UNL     1      28.553  46.112  13.664  1.00  0.00     0.190 HD
ENDBRANCH  15  17
ENDBRANCH  13  15
ENDBRANCH  11  13
ENDBRANCH   8  11
ENDBRANCH   1   7
BRANCH   3  22
HETATM   22  N5  UNL     1      27.081  44.186   2.981  1.00  0.00    -0.379 N 
ATOM     23  H52 UNL     1      26.806  44.707   2.148  1.00  0.00     0.158 HD
ATOM     24  H51 UNL     1      26.782  43.234   2.767  1.00  0.00     0.158 HD
ENDBRANCH   3  22
BRANCH   4  25
HETATM   25  C7  UNL     1      29.915  43.871   3.511  1.00  0.00     0.159 C 
BRANCH  25  26
HETATM   26  C8  UNL     1      30.684  44.848   2.683  1.00  0.00     0.249 C 
BRANCH  26  27
HETATM   27  N7  UNL     1      30.064  44.889   1.350  1.00  0.00    -0.078 N 
ATOM     28  H73 UNL     1      30.437  44.183   0.716  1.00  0.00     0.274 HD
ATOM     29  H72 UNL     1      29.096  44.567   1.353  1.00  0.00     0.274 HD
ATOM     30  H71 UNL     1      30.165  45.838   0.991  1.00  0.00     0.274 HD
ENDBRANCH  26  27
ENDBRANCH  25  26
ENDBRANCH   4  25
TORSDOF 9
ENDMDL
MODEL 5
REMARK VINA RESULT: -7.067472167      3.748      3.971
REMARK  9 active torsions:
REMARK  status: ('A' for Active; 'I' for Inactive)
REMARK       I    between atoms: C2_2  and  N1_4 
REMARK    1  A    between atoms: N1_4  and  N2_6 
REMARK    2  A    between atoms: N2_6  and  C3_8 
REMARK    3  A    between atoms: C3_8  and  N3_10 
REMARK    4  A    between atoms: N3_10  and  N4_12 
REMARK       I    between atoms: N4_12  and  C4_14 
REMARK    5  A    between atoms: C4_14  and  C5_16 
REMARK    6  A    between atoms: C6_18  and  N5_19 
REMARK    7  A    between atoms: N6_22  and  C7_23 
REMARK    8  A    between atoms: C7_23  and  C8_24 
REMARK    9  A    between atoms: C8_24  and  N7_25 
ROOT
HETATM    1  C5  UNL     1      28.582  45.095   4.348  1.00  0.00     0.119 A 
HETATM    2  S2  UNL     1      30.273  45.093   4.160  1.00  0.00    -0.045 SA
HETATM    3  C6  UNL     1      30.357  44.259   2.671  1.00  0.00     0.146 A 
HETATM    4  N6  UNL     1      29.083  44.022   2.388  1.00  0.00    -0.313 N 
HETATM    5  C9  UNL     1      28.155  44.435   3.225  1.00  0.00     0.143 A 
HETATM    6  N8  UNL     1      26.733  44.243   3.050  1.00  0.00    -0.081 NA
ENDROOT
BRANCH   1   7
HETATM    7  C4  UNL     1      27.812  45.675   5.449  1.00  0.00     0.280 C 
HETATM    8  N4  UNL     1      27.897  47.025   5.811  1.00  0.00    -0.263 N 
ATOM      9  H4  UNL     1      28.520  47.651   5.302  1.00  0.00     0.190 HD
HETATM   10  O2  UNL     1      27.026  44.927   6.113  1.00  0.00    -0.265 OA
BRANCH   8  11
HETATM   11  N3  UNL     1      27.127  47.511   6.868  1.00  0.00    -0.272 N 
ATOM     12  H3  UNL     1      26.144  47.732   6.709  1.00  0.00     0.189 HD
BRANCH  11  13
HETATM   13  C3  UNL     1      27.680  47.707   8.162  1.00  0.00     0.205 C 
HETATM   14  S1  UNL     1      28.020  46.411   9.129  1.00  0.00    -0.038 SA
BRANCH  13  15
HETATM   15  N2  UNL     1      27.956  48.987   8.641  1.00  0.00    -0.273 N 
ATOM     16  H2  UNL     1      27.741  49.776   8.031  1.00  0.00     0.189 HD
BRANCH  15  17
HETATM   17  N1  UNL     1      28.503  49.268   9.885  1.00  0.00    -0.268 N 
HETATM   18  C2  UNL     1      29.877  49.642  10.007  1.00  0.00     0.232 C 
HETATM   19  C1  UNL     1      30.480  49.947  11.315  1.00  0.00     0.119 C 
HETATM   20  O1  UNL     1      30.549  49.696   8.927  1.00  0.00    -0.272 OA
ATOM     21  H1  UNL     1      27.919  49.208  10.719  1.00  0.00     0.190 HD
ENDBRANCH  15  17
ENDBRANCH  13  15
ENDBRANCH  11  13
ENDBRANCH   8  11
ENDBRANCH   1   7
BRANCH   3  22
HETATM   22  N5  UNL     1      31.431  43.950   2.001  1.00  0.00    -0.379 N 
ATOM     23  H52 UNL     1      32.399  43.885   2.315  1.00  0.00     0.158 HD
ATOM     24  H51 UNL     1      31.492  43.709   1.011  1.00  0.00     0.158 HD
ENDBRANCH   3  22
BRANCH   4  25
HETATM   25  C7  UNL     1      28.736  43.314   1.139  1.00  0.00     0.159 C 
BRANCH  25  26
HETATM   26  C8  UNL     1      28.404  41.875   1.360  1.00  0.00     0.249 C 
BRANCH  26  27
HETATM   27  N7  UNL     1      27.011  41.668   0.934  1.00  0.00    -0.078 N 
ATOM     28  H73 UNL     1      26.440  42.508   1.023  1.00  0.00     0.274 HD
ATOM     29  H72 UNL     1      26.918  41.549  -0.075  1.00  0.00     0.274 HD
ATOM     30  H71 UNL     1      26.641  40.878   1.462  1.00  0.00     0.274 HD
ENDBRANCH  26  27
ENDBRANCH  25  26
ENDBRANCH   4  25
TORSDOF 9
ENDMDL
