MODEL 1
REMARK VINA RESULT: -9.943212311      0.000      0.000
REMARK  9 active torsions:
REMARK  status: ('A' for Active; 'I' for Inactive)
REMARK    1  A    between atoms: N1_1  and  C1_4 
REMARK    2  A    between atoms: C2_7  and  C3_8 
REMARK    3  A    between atoms: C3_8  and  N3_9 
REMARK    4  A    between atoms: C3_8  and  C9_20 
REMARK       I    between atoms: N3_9  and  C4_11 
REMARK    5  A    between atoms: C4_11  and  C5_13 
REMARK    6  A    between atoms: C9_20  and  O3_25 
REMARK    7  A    between atoms: N5_21  and  O2_23 
REMARK    8  A    between atoms: O3_25  and  C10_26 
REMARK    9  A    between atoms: C13_29  and  C14_30 
ROOT
HETATM    1  C3  UNL     1      28.159  45.925   5.831  1.00  0.00     0.231 C 
ENDROOT
BRANCH   1   2
HETATM    2  C2  UNL     1      29.354  46.651   5.374  1.00  0.00     0.143 A 
HETATM    3  N2  UNL     1      30.612  46.145   5.504  1.00  0.00    -0.176 N 
HETATM    4  C1  UNL     1      31.492  47.014   4.994  1.00  0.00     0.692 A 
ATOM      5  H2  UNL     1      30.847  45.245   5.923  1.00  0.00     0.185 HD
HETATM    6  N7  UNL     1      30.779  48.059   4.551  1.00  0.00    -0.131 N 
HETATM    7  N6  UNL     1      29.495  47.841   4.779  1.00  0.00    -0.272 N 
ATOM      8  H7  UNL     1      31.165  48.892   4.107  1.00  0.00     0.205 HD
ATOM      9  H6  UNL     1      28.735  48.477   4.541  1.00  0.00     0.189 HD
BRANCH   4  10
HETATM   10  N1  UNL     1      32.770  46.960   4.910  1.00  0.00    -0.233 N 
ATOM     11  H12 UNL     1      33.259  46.217   4.410  1.00  0.00     0.174 HD
ATOM     12  H11 UNL     1      33.489  47.584   5.276  1.00  0.00     0.174 HD
ENDBRANCH   4  10
ENDBRANCH   1   2
BRANCH   1  13
HETATM   13  N3  UNL     1      28.221  44.570   5.308  1.00  0.00    -0.341 N 
HETATM   14  C4  UNL     1      27.650  44.178   4.094  1.00  0.00     0.249 C 
HETATM   15  O1  UNL     1      27.052  45.006   3.375  1.00  0.00    -0.271 OA
ATOM     16  H3  UNL     1      28.710  43.865   5.859  1.00  0.00     0.163 HD
BRANCH  14  17
HETATM   17  C5  UNL     1      27.753  42.775   3.647  1.00  0.00     0.277 C 
HETATM   18  C6  UNL     1      28.636  42.705   2.375  1.00  0.00     0.044 C 
HETATM   19  C7  UNL     1      28.956  41.232   2.321  1.00  0.00     0.030 C 
HETATM   20  C8  UNL     1      28.714  40.755   3.737  1.00  0.00     0.233 C 
HETATM   21  N4  UNL     1      28.580  41.972   4.529  1.00  0.00    -0.062 N 
ATOM     22  H42 UNL     1      29.455  42.403   4.827  1.00  0.00     0.278 HD
ATOM     23  H41 UNL     1      28.222  41.845   5.476  1.00  0.00     0.278 HD
ENDBRANCH  14  17
ENDBRANCH   1  13
BRANCH   1  24
HETATM   24  C9  UNL     1      27.927  45.986   7.269  1.00  0.00     0.169 C 
HETATM   25  N5  UNL     1      26.689  45.971   7.709  1.00  0.00    -0.249 N 
ATOM     26  H5  UNL     1      26.518  46.012   8.714  1.00  0.00     0.196 HD
BRANCH  25  27
HETATM   27  O2  UNL     1      25.617  45.899   6.851  1.00  0.00    -0.288 OA
ATOM     28  H2  UNL     1      24.814  45.451   7.090  1.00  0.00     0.244 HD
ENDBRANCH  25  27
BRANCH  24  29
HETATM   29  O3  UNL     1      28.840  46.060   8.273  1.00  0.00    -0.330 OA
BRANCH  29  30
HETATM   30  C10 UNL     1      29.326  47.208   8.841  1.00  0.00     0.139 C 
HETATM   31  C11 UNL     1      28.772  48.505   8.425  1.00  0.00     0.034 C 
HETATM   32  C12 UNL     1      29.115  49.548   9.475  1.00  0.00     0.018 C 
HETATM   33  C13 UNL     1      30.408  49.238  10.166  1.00  0.00     0.087 C 
HETATM   34  C15 UNL     1      30.298  47.955  10.951  1.00  0.00     0.027 C 
HETATM   35  C16 UNL     1      29.285  47.004  10.366  1.00  0.00    -0.013 C 
HETATM   36  C17 UNL     1      27.922  47.162  10.916  1.00  0.00     0.012 C 
HETATM   37  C20 UNL     1      29.691  45.580  10.623  1.00  0.00     0.012 C 
HETATM   38  C18 UNL     1      27.400  45.810  11.329  1.00  0.00     0.001 C 
HETATM   39  C19 UNL     1      28.657  45.006  11.567  1.00  0.00     0.001 C 
BRANCH  33  40
HETATM   40  C14 UNL     1      30.730  50.355  11.075  1.00  0.00     0.177 C 
HETATM   41  O4  UNL     1      30.173  50.383  12.203  1.00  0.00    -0.648 OA
HETATM   42  O5  UNL     1      31.600  51.381  10.786  1.00  0.00    -0.648 OA
ENDBRANCH  33  40
ENDBRANCH  29  30
ENDBRANCH  24  29
ENDBRANCH   1  24
TORSDOF 9
ENDMDL
MODEL 2
REMARK VINA RESULT: -9.569462223      1.738      3.179
REMARK  9 active torsions:
REMARK  status: ('A' for Active; 'I' for Inactive)
REMARK    1  A    between atoms: N1_1  and  C1_4 
REMARK    2  A    between atoms: C2_7  and  C3_8 
REMARK    3  A    between atoms: C3_8  and  N3_9 
REMARK    4  A    between atoms: C3_8  and  C9_20 
REMARK       I    between atoms: N3_9  and  C4_11 
REMARK    5  A    between atoms: C4_11  and  C5_13 
REMARK    6  A    between atoms: C9_20  and  O3_25 
REMARK    7  A    between atoms: N5_21  and  O2_23 
REMARK    8  A    between atoms: O3_25  and  C10_26 
REMARK    9  A    between atoms: C13_29  and  C14_30 
ROOT
HETATM    1  C3  UNL     1      29.277  46.707   5.390  1.00  0.00     0.231 C 
ENDROOT
BRANCH   1   2
HETATM    2  C2  UNL     1      30.728  46.927   5.277  1.00  0.00     0.143 A 
HETATM    3  N2  UNL     1      31.611  46.492   6.219  1.00  0.00    -0.176 N 
HETATM    4  C1  UNL     1      32.852  46.823   5.847  1.00  0.00     0.692 A 
ATOM      5  H2  UNL     1      31.364  45.992   7.073  1.00  0.00     0.185 HD
HETATM    6  N7  UNL     1      32.738  47.465   4.675  1.00  0.00    -0.131 N 
HETATM    7  N6  UNL     1      31.462  47.527   4.334  1.00  0.00    -0.272 N 
ATOM      8  H7  UNL     1      33.513  47.846   4.132  1.00  0.00     0.205 HD
ATOM      9  H6  UNL     1      31.097  47.963   3.487  1.00  0.00     0.189 HD
BRANCH   4  10
HETATM   10  N1  UNL     1      33.979  46.626   6.423  1.00  0.00    -0.233 N 
ATOM     11  H12 UNL     1      34.256  47.110   7.277  1.00  0.00     0.174 HD
ATOM     12  H11 UNL     1      34.751  46.003   6.182  1.00  0.00     0.174 HD
ENDBRANCH   4  10
ENDBRANCH   1   2
BRANCH   1  13
HETATM   13  N3  UNL     1      29.011  45.299   5.149  1.00  0.00    -0.341 N 
HETATM   14  C4  UNL     1      28.165  44.827   4.141  1.00  0.00     0.249 C 
HETATM   15  O1  UNL     1      27.591  45.624   3.369  1.00  0.00    -0.271 OA
ATOM     16  H3  UNL     1      29.469  44.613   5.752  1.00  0.00     0.163 HD
BRANCH  14  17
HETATM   17  C5  UNL     1      27.944  43.377   3.979  1.00  0.00     0.277 C 
HETATM   18  C6  UNL     1      28.202  42.982   2.502  1.00  0.00     0.044 C 
HETATM   19  C7  UNL     1      28.335  41.484   2.620  1.00  0.00     0.030 C 
HETATM   20  C8  UNL     1      28.667  41.261   4.079  1.00  0.00     0.233 C 
HETATM   21  N4  UNL     1      28.989  42.584   4.601  1.00  0.00    -0.062 N 
ATOM     22  H42 UNL     1      29.942  42.904   4.436  1.00  0.00     0.278 HD
ATOM     23  H41 UNL     1      29.050  42.654   5.617  1.00  0.00     0.278 HD
ENDBRANCH  14  17
ENDBRANCH   1  13
BRANCH   1  24
HETATM   24  C9  UNL     1      28.683  47.212   6.621  1.00  0.00     0.169 C 
HETATM   25  N5  UNL     1      27.439  47.632   6.595  1.00  0.00    -0.249 N 
ATOM     26  H5  UNL     1      27.016  47.987   7.453  1.00  0.00     0.196 HD
BRANCH  25  27
HETATM   27  O2  UNL     1      26.692  47.606   5.441  1.00  0.00    -0.288 OA
ATOM     28  H2  UNL     1      25.742  47.621   5.461  1.00  0.00     0.244 HD
ENDBRANCH  25  27
BRANCH  24  29
HETATM   29  O3  UNL     1      29.248  47.320   7.854  1.00  0.00    -0.330 OA
BRANCH  29  30
HETATM   30  C10 UNL     1      28.943  46.561   8.953  1.00  0.00     0.139 C 
HETATM   31  C11 UNL     1      29.679  45.310   9.187  1.00  0.00     0.034 C 
HETATM   32  C12 UNL     1      29.504  44.900  10.640  1.00  0.00     0.018 C 
HETATM   33  C13 UNL     1      28.185  45.351  11.191  1.00  0.00     0.087 C 
HETATM   34  C15 UNL     1      28.111  46.857  11.227  1.00  0.00     0.027 C 
HETATM   35  C16 UNL     1      28.967  47.504  10.167  1.00  0.00    -0.013 C 
HETATM   36  C17 UNL     1      30.343  47.813  10.611  1.00  0.00     0.012 C 
HETATM   37  C20 UNL     1      28.357  48.802   9.720  1.00  0.00     0.012 C 
HETATM   38  C18 UNL     1      30.663  49.243  10.257  1.00  0.00     0.001 C 
HETATM   39  C19 UNL     1      29.303  49.895  10.169  1.00  0.00     0.001 C 
BRANCH  33  40
HETATM   40  C14 UNL     1      28.040  44.809  12.556  1.00  0.00     0.177 C 
HETATM   41  O4  UNL     1      28.625  45.406  13.497  1.00  0.00    -0.648 OA
HETATM   42  O5  UNL     1      27.309  43.692  12.887  1.00  0.00    -0.648 OA
ENDBRANCH  33  40
ENDBRANCH  29  30
ENDBRANCH  24  29
ENDBRANCH   1  24
TORSDOF 9
ENDMDL
MODEL 3
REMARK VINA RESULT: -9.286543442      2.046      3.531
REMARK  9 active torsions:
REMARK  status: ('A' for Active; 'I' for Inactive)
REMARK    1  A    between atoms: N1_1  and  C1_4 
REMARK    2  A    between atoms: C2_7  and  C3_8 
REMARK    3  A    between atoms: C3_8  and  N3_9 
REMARK    4  A    between atoms: C3_8  and  C9_20 
REMARK       I    between atoms: N3_9  and  C4_11 
REMARK    5  A    between atoms: C4_11  and  C5_13 
REMARK    6  A    between atoms: C9_20  and  O3_25 
REMARK    7  A    between atoms: N5_21  and  O2_23 
REMARK    8  A    between atoms: O3_25  and  C10_26 
REMARK    9  A    between atoms: C13_29  and  C14_30 
ROOT
HETATM    1  C3  UNL     1      30.161  47.118   5.518  1.00  0.00     0.231 C 
ENDROOT
BRANCH   1   2
HETATM    2  C2  UNL     1      31.530  47.620   5.724  1.00  0.00     0.143 A 
HETATM    3  N2  UNL     1      31.830  48.564   6.660  1.00  0.00    -0.176 N 
HETATM    4  C1  UNL     1      33.142  48.816   6.627  1.00  0.00     0.692 A 
ATOM      5  H2  UNL     1      31.159  49.008   7.287  1.00  0.00     0.185 HD
HETATM    6  N7  UNL     1      33.656  48.030   5.669  1.00  0.00    -0.131 N 
HETATM    7  N6  UNL     1      32.686  47.313   5.127  1.00  0.00    -0.272 N 
ATOM      8  H7  UNL     1      34.639  47.991   5.400  1.00  0.00     0.205 HD
ATOM      9  H6  UNL     1      32.802  46.634   4.375  1.00  0.00     0.189 HD
BRANCH   4  10
HETATM   10  N1  UNL     1      33.857  49.628   7.314  1.00  0.00    -0.233 N 
ATOM     11  H12 UNL     1      33.582  49.958   8.239  1.00  0.00     0.174 HD
ATOM     12  H11 UNL     1      34.757  50.062   7.109  1.00  0.00     0.174 HD
ENDBRANCH   4  10
ENDBRANCH   1   2
BRANCH   1  13
HETATM   13  N3  UNL     1      30.222  45.671   5.391  1.00  0.00    -0.341 N 
HETATM   14  C4  UNL     1      29.593  44.952   4.371  1.00  0.00     0.249 C 
HETATM   15  O1  UNL     1      28.939  45.543   3.486  1.00  0.00    -0.271 OA
ATOM     16  H3  UNL     1      30.756  45.150   6.088  1.00  0.00     0.163 HD
BRANCH  14  17
HETATM   17  C5  UNL     1      29.700  43.480   4.329  1.00  0.00     0.277 C 
HETATM   18  C6  UNL     1      28.321  42.877   3.956  1.00  0.00     0.044 C 
HETATM   19  C7  UNL     1      28.712  41.473   3.566  1.00  0.00     0.030 C 
HETATM   20  C8  UNL     1      30.188  41.581   3.249  1.00  0.00     0.233 C 
HETATM   21  N4  UNL     1      30.458  43.013   3.183  1.00  0.00    -0.062 N 
ATOM     22  H42 UNL     1      30.238  43.462   2.295  1.00  0.00     0.278 HD
ATOM     23  H41 UNL     1      31.444  43.275   3.169  1.00  0.00     0.278 HD
ENDBRANCH  14  17
ENDBRANCH   1  13
BRANCH   1  24
HETATM   24  C9  UNL     1      29.193  47.578   6.505  1.00  0.00     0.169 C 
HETATM   25  N5  UNL     1      27.963  47.824   6.115  1.00  0.00    -0.249 N 
ATOM     26  H5  UNL     1      27.280  48.146   6.800  1.00  0.00     0.196 HD
BRANCH  25  27
HETATM   27  O2  UNL     1      27.574  47.659   4.807  1.00  0.00    -0.288 OA
ATOM     28  H2  UNL     1      26.657  47.637   4.558  1.00  0.00     0.244 HD
ENDBRANCH  25  27
BRANCH  24  29
HETATM   29  O3  UNL     1      29.378  47.802   7.834  1.00  0.00    -0.330 OA
BRANCH  29  30
HETATM   30  C10 UNL     1      29.040  46.949   8.852  1.00  0.00     0.139 C 
HETATM   31  C11 UNL     1      29.687  45.631   8.928  1.00  0.00     0.034 C 
HETATM   32  C12 UNL     1      29.513  45.076  10.332  1.00  0.00     0.018 C 
HETATM   33  C13 UNL     1      28.243  45.556  10.966  1.00  0.00     0.087 C 
HETATM   34  C15 UNL     1      28.280  47.050  11.168  1.00  0.00     0.027 C 
HETATM   35  C16 UNL     1      29.160  47.748  10.161  1.00  0.00    -0.013 C 
HETATM   36  C17 UNL     1      30.564  47.908  10.595  1.00  0.00     0.012 C 
HETATM   37  C20 UNL     1      28.638  49.128   9.875  1.00  0.00     0.012 C 
HETATM   38  C18 UNL     1      30.981  49.341  10.390  1.00  0.00     0.001 C 
HETATM   39  C19 UNL     1      29.670  50.094  10.413  1.00  0.00     0.001 C 
BRANCH  33  40
HETATM   40  C14 UNL     1      28.087  44.878  12.268  1.00  0.00     0.177 C 
HETATM   41  O4  UNL     1      28.565  45.436  13.289  1.00  0.00    -0.648 OA
HETATM   42  O5  UNL     1      27.455  43.671  12.457  1.00  0.00    -0.648 OA
ENDBRANCH  33  40
ENDBRANCH  29  30
ENDBRANCH  24  29
ENDBRANCH   1  24
TORSDOF 9
ENDMDL
MODEL 4
REMARK VINA RESULT: -9.175513237      1.265      1.528
REMARK  9 active torsions:
REMARK  status: ('A' for Active; 'I' for Inactive)
REMARK    1  A    between atoms: N1_1  and  C1_4 
REMARK    2  A    between atoms: C2_7  and  C3_8 
REMARK    3  A    between atoms: C3_8  and  N3_9 
REMARK    4  A    between atoms: C3_8  and  C9_20 
REMARK       I    between atoms: N3_9  and  C4_11 
REMARK    5  A    between atoms: C4_11  and  C5_13 
REMARK    6  A    between atoms: C9_20  and  O3_25 
REMARK    7  A    between atoms: N5_21  and  O2_23 
REMARK    8  A    between atoms: O3_25  and  C10_26 
REMARK    9  A    between atoms: C13_29  and  C14_30 
ROOT
HETATM    1  C3  UNL     1      29.246  46.537   5.365  1.00  0.00     0.231 C 
ENDROOT
BRANCH   1   2
HETATM    2  C2  UNL     1      30.687  46.750   5.153  1.00  0.00     0.143 A 
HETATM    3  N2  UNL     1      31.638  46.116   5.895  1.00  0.00    -0.176 N 
HETATM    4  C1  UNL     1      32.850  46.493   5.474  1.00  0.00     0.692 A 
ATOM      5  H2  UNL     1      31.454  45.457   6.651  1.00  0.00     0.185 HD
HETATM    6  N7  UNL     1      32.650  47.362   4.472  1.00  0.00    -0.131 N 
HETATM    7  N6  UNL     1      31.351  47.516   4.281  1.00  0.00    -0.272 N 
ATOM      8  H7  UNL     1      33.384  47.831   3.942  1.00  0.00     0.205 HD
ATOM      9  H6  UNL     1      30.924  48.122   3.580  1.00  0.00     0.189 HD
BRANCH   4  10
HETATM   10  N1  UNL     1      34.019  46.162   5.882  1.00  0.00    -0.233 N 
ATOM     11  H12 UNL     1      34.871  46.422   5.386  1.00  0.00     0.174 HD
ATOM     12  H11 UNL     1      34.313  45.633   6.704  1.00  0.00     0.174 HD
ENDBRANCH   4  10
ENDBRANCH   1   2
BRANCH   1  13
HETATM   13  N3  UNL     1      28.935  45.158   5.028  1.00  0.00    -0.341 N 
HETATM   14  C4  UNL     1      28.044  44.785   4.018  1.00  0.00     0.249 C 
HETATM   15  O1  UNL     1      27.465  45.652   3.329  1.00  0.00    -0.271 OA
ATOM     16  H3  UNL     1      29.395  44.418   5.560  1.00  0.00     0.163 HD
BRANCH  14  17
HETATM   17  C5  UNL     1      27.780  43.357   3.754  1.00  0.00     0.277 C 
HETATM   18  C6  UNL     1      28.295  42.994   2.338  1.00  0.00     0.044 C 
HETATM   19  C7  UNL     1      28.322  41.487   2.414  1.00  0.00     0.030 C 
HETATM   20  C8  UNL     1      28.354  41.198   3.899  1.00  0.00     0.233 C 
HETATM   21  N4  UNL     1      28.641  42.482   4.529  1.00  0.00    -0.062 N 
ATOM     22  H42 UNL     1      29.625  42.748   4.562  1.00  0.00     0.278 HD
ATOM     23  H41 UNL     1      28.510  42.516   5.540  1.00  0.00     0.278 HD
ENDBRANCH  14  17
ENDBRANCH   1  13
BRANCH   1  24
HETATM   24  C9  UNL     1      28.763  46.941   6.679  1.00  0.00     0.169 C 
HETATM   25  N5  UNL     1      27.541  47.413   6.783  1.00  0.00    -0.249 N 
ATOM     26  H5  UNL     1      27.194  47.697   7.700  1.00  0.00     0.196 HD
BRANCH  25  27
HETATM   27  O2  UNL     1      26.716  47.532   5.689  1.00  0.00    -0.288 OA
ATOM     28  H2  UNL     1      26.306  46.774   5.288  1.00  0.00     0.244 HD
ENDBRANCH  25  27
BRANCH  24  29
HETATM   29  O3  UNL     1      29.415  46.903   7.872  1.00  0.00    -0.330 OA
BRANCH  29  30
HETATM   30  C10 UNL     1      30.242  47.874   8.372  1.00  0.00     0.139 C 
HETATM   31  C11 UNL     1      30.143  49.243   7.845  1.00  0.00     0.034 C 
HETATM   32  C12 UNL     1      30.796  50.199   8.829  1.00  0.00     0.018 C 
HETATM   33  C13 UNL     1      31.912  49.543   9.584  1.00  0.00     0.087 C 
HETATM   34  C15 UNL     1      31.384  48.431  10.455  1.00  0.00     0.027 C 
HETATM   35  C16 UNL     1      30.122  47.816   9.905  1.00  0.00    -0.013 C 
HETATM   36  C17 UNL     1      28.879  48.449  10.395  1.00  0.00     0.012 C 
HETATM   37  C20 UNL     1      30.041  46.362  10.278  1.00  0.00     0.012 C 
HETATM   38  C18 UNL     1      27.943  47.375  10.886  1.00  0.00     0.001 C 
HETATM   39  C19 UNL     1      28.868  46.230  11.224  1.00  0.00     0.001 C 
BRANCH  33  40
HETATM   40  C14 UNL     1      32.572  50.565  10.421  1.00  0.00     0.177 C 
HETATM   41  O4  UNL     1      33.730  50.324  10.850  1.00  0.00    -0.648 OA
HETATM   42  O5  UNL     1      32.017  51.773  10.773  1.00  0.00    -0.648 OA
ENDBRANCH  33  40
ENDBRANCH  29  30
ENDBRANCH  24  29
ENDBRANCH   1  24
TORSDOF 9
ENDMDL
MODEL 5
REMARK VINA RESULT: -9.107838468      1.948      3.455
REMARK  9 active torsions:
REMARK  status: ('A' for Active; 'I' for Inactive)
REMARK    1  A    between atoms: N1_1  and  C1_4 
REMARK    2  A    between atoms: C2_7  and  C3_8 
REMARK    3  A    between atoms: C3_8  and  N3_9 
REMARK    4  A    between atoms: C3_8  and  C9_20 
REMARK       I    between atoms: N3_9  and  C4_11 
REMARK    5  A    between atoms: C4_11  and  C5_13 
REMARK    6  A    between atoms: C9_20  and  O3_25 
REMARK    7  A    between atoms: N5_21  and  O2_23 
REMARK    8  A    between atoms: O3_25  and  C10_26 
REMARK    9  A    between atoms: C13_29  and  C14_30 
ROOT
HETATM    1  C3  UNL     1      29.816  47.343   5.396  1.00  0.00     0.231 C 
ENDROOT
BRANCH   1   2
HETATM    2  C2  UNL     1      31.268  47.218   5.609  1.00  0.00     0.143 A 
HETATM    3  N2  UNL     1      32.167  47.305   4.589  1.00  0.00    -0.176 N 
HETATM    4  C1  UNL     1      33.403  47.166   5.078  1.00  0.00     0.692 A 
ATOM      5  H2  UNL     1      31.934  47.454   3.607  1.00  0.00     0.185 HD
HETATM    6  N7  UNL     1      33.270  46.991   6.401  1.00  0.00    -0.131 N 
HETATM    7  N6  UNL     1      31.987  47.022   6.719  1.00  0.00    -0.272 N 
ATOM      8  H7  UNL     1      34.038  46.855   7.059  1.00  0.00     0.205 HD
ATOM      9  H6  UNL     1      31.608  46.914   7.659  1.00  0.00     0.189 HD
BRANCH   4  10
HETATM   10  N1  UNL     1      34.542  47.171   4.490  1.00  0.00    -0.233 N 
ATOM     11  H12 UNL     1      34.640  47.125   3.476  1.00  0.00     0.174 HD
ATOM     12  H11 UNL     1      35.488  47.226   4.869  1.00  0.00     0.174 HD
ENDBRANCH   4  10
ENDBRANCH   1   2
BRANCH   1  13
HETATM   13  N3  UNL     1      29.375  46.215   4.594  1.00  0.00    -0.341 N 
HETATM   14  C4  UNL     1      29.749  44.890   4.840  1.00  0.00     0.249 C 
HETATM   15  O1  UNL     1      30.495  44.608   5.802  1.00  0.00    -0.271 OA
ATOM     16  H3  UNL     1      28.756  46.400   3.805  1.00  0.00     0.163 HD
BRANCH  14  17
HETATM   17  C5  UNL     1      29.261  43.808   3.964  1.00  0.00     0.277 C 
HETATM   18  C6  UNL     1      30.471  43.033   3.384  1.00  0.00     0.044 C 
HETATM   19  C7  UNL     1      29.802  41.776   2.885  1.00  0.00     0.030 C 
HETATM   20  C8  UNL     1      28.503  41.723   3.659  1.00  0.00     0.233 C 
HETATM   21  N4  UNL     1      28.647  42.725   4.710  1.00  0.00    -0.062 N 
ATOM     22  H42 UNL     1      29.152  42.421   5.542  1.00  0.00     0.278 HD
ATOM     23  H41 UNL     1      27.791  42.964   5.212  1.00  0.00     0.278 HD
ENDBRANCH  14  17
ENDBRANCH   1  13
BRANCH   1  24
HETATM   24  C9  UNL     1      29.041  47.533   6.615  1.00  0.00     0.169 C 
HETATM   25  N5  UNL     1      27.736  47.653   6.520  1.00  0.00    -0.249 N 
ATOM     26  H5  UNL     1      27.186  47.786   7.369  1.00  0.00     0.196 HD
BRANCH  25  27
HETATM   27  O2  UNL     1      27.092  47.604   5.306  1.00  0.00    -0.288 OA
ATOM     28  H2  UNL     1      26.229  47.982   5.183  1.00  0.00     0.244 HD
ENDBRANCH  25  27
BRANCH  24  29
HETATM   29  O3  UNL     1      29.483  47.609   7.899  1.00  0.00    -0.330 OA
BRANCH  29  30
HETATM   30  C10 UNL     1      29.117  46.784   8.930  1.00  0.00     0.139 C 
HETATM   31  C11 UNL     1      29.769  45.473   9.066  1.00  0.00     0.034 C 
HETATM   32  C12 UNL     1      29.552  44.958  10.479  1.00  0.00     0.018 C 
HETATM   33  C13 UNL     1      28.259  45.448  11.057  1.00  0.00     0.087 C 
HETATM   34  C15 UNL     1      28.281  46.948  11.216  1.00  0.00     0.027 C 
HETATM   35  C16 UNL     1      29.189  47.622  10.218  1.00  0.00    -0.013 C 
HETATM   36  C17 UNL     1      30.577  47.804  10.693  1.00  0.00     0.012 C 
HETATM   37  C20 UNL     1      28.669  48.989   9.875  1.00  0.00     0.012 C 
HETATM   38  C18 UNL     1      30.992  49.233  10.460  1.00  0.00     0.001 C 
HETATM   39  C19 UNL     1      29.678  49.977  10.418  1.00  0.00     0.001 C 
BRANCH  33  40
HETATM   40  C14 UNL     1      28.065  44.807  12.372  1.00  0.00     0.177 C 
HETATM   41  O4  UNL     1      28.515  45.393  13.391  1.00  0.00    -0.648 OA
HETATM   42  O5  UNL     1      27.424  43.607  12.577  1.00  0.00    -0.648 OA
ENDBRANCH  33  40
ENDBRANCH  29  30
ENDBRANCH  24  29
ENDBRANCH   1  24
TORSDOF 9
ENDMDL
