MODEL 1
REMARK VINA RESULT: -8.355952740      0.000      0.000
REMARK  10 active torsions:
REMARK  status: ('A' for Active; 'I' for Inactive)
REMARK    1  A    between atoms: C2_2  and  N1_3 
REMARK       I    between atoms: N1_3  and  C3_5 
REMARK       I    between atoms: C3_5  and  N2_7 
REMARK    2  A    between atoms: N2_7  and  C4_9 
REMARK    3  A    between atoms: C5_12  and  N4_13 
REMARK    4  A    between atoms: C6_18  and  C7_19 
REMARK    5  A    between atoms: C7_19  and  N6_20 
REMARK    6  A    between atoms: C7_19  and  C8_24 
REMARK    7  A    between atoms: C13_29  and  C14_30 
REMARK    8  A    between atoms: C17_35  and  N8_36 
REMARK       I    between atoms: N8_36  and  C18_38 
REMARK    9  A    between atoms: C18_38  and  C19_40 
REMARK   10  A    between atoms: C19_40  and  O3_41 
ROOT
HETATM    1  C4  UNL     1      29.219  48.266  10.089  1.00  0.00     0.140 A 
HETATM    2  N3  UNL     1      29.204  48.980  11.219  1.00  0.00    -0.176 N 
ATOM      3  H3  UNL     1      28.616  48.705  12.006  1.00  0.00     0.186 HD
HETATM    4  C5  UNL     1      29.983  50.067  11.287  1.00  0.00     0.677 A 
HETATM    5  N5  UNL     1      30.776  50.468  10.266  1.00  0.00    -0.193 N 
ATOM      6  H5  UNL     1      31.354  51.303  10.364  1.00  0.00     0.184 HD
HETATM    7  C6  UNL     1      30.799  49.748   9.102  1.00  0.00     0.074 A 
HETATM    8  C13 UNL     1      30.022  48.636   9.000  1.00  0.00     0.068 A 
ENDROOT
BRANCH   8   9
HETATM    9  C14 UNL     1      30.008  47.772   7.831  1.00  0.00     0.092 A 
HETATM   10  N7  UNL     1      30.498  46.590   7.537  1.00  0.00    -0.351 N 
HETATM   11  C15 UNL     1      30.303  46.022   6.404  1.00  0.00     0.040 A 
ATOM     12  H7  UNL     1      31.056  46.103   8.238  1.00  0.00     0.166 HD
HETATM   13  C16 UNL     1      30.863  44.655   6.048  1.00  0.00     0.071 C 
HETATM   14  C17 UNL     1      29.550  46.699   5.482  1.00  0.00     0.101 A 
HETATM   15  S1  UNL     1      29.175  48.123   6.334  1.00  0.00    -0.051 SA
BRANCH  14  16
HETATM   16  N8  UNL     1      29.184  46.286   4.145  1.00  0.00    -0.318 N 
HETATM   17  C18 UNL     1      27.989  45.569   3.908  1.00  0.00     0.246 C 
HETATM   18  O2  UNL     1      27.249  45.293   4.880  1.00  0.00    -0.271 OA
ATOM     19  H8  UNL     1      29.796  46.517   3.361  1.00  0.00     0.169 HD
BRANCH  17  20
HETATM   20  C19 UNL     1      27.630  45.156   2.545  1.00  0.00     0.267 C 
BRANCH  20  21
HETATM   21  O3  UNL     1      26.947  46.117   1.839  1.00  0.00    -0.392 OA
ATOM     22  H3  UNL     1      26.007  45.987   1.830  1.00  0.00     0.210 HD
ENDBRANCH  20  21
ENDBRANCH  17  20
ENDBRANCH  14  16
ENDBRANCH   8   9
BRANCH   1  23
HETATM   23  N2  UNL     1      28.484  47.219   9.994  1.00  0.00    -0.293 N 
HETATM   24  C3  UNL     1      27.944  46.551  11.110  1.00  0.00     0.321 C 
HETATM   25  N1  UNL     1      28.707  45.674  11.924  1.00  0.00    -0.343 N 
HETATM   26  O1  UNL     1      26.736  46.745  11.390  1.00  0.00    -0.247 OA
ATOM     27  H1  UNL     1      29.689  45.518  11.695  1.00  0.00     0.164 HD
ATOM     28  H2  UNL     1      28.281  46.853   9.064  1.00  0.00     0.172 HD
BRANCH  25  29
HETATM   29  C2  UNL     1      28.144  45.001  13.058  1.00  0.00     0.120 C 
HETATM   30  C1  UNL     1      27.685  43.596  12.730  1.00  0.00     0.026 C 
ENDBRANCH  25  29
ENDBRANCH   1  23
BRANCH   7  31
HETATM   31  C7  UNL     1      31.622  50.202   8.001  1.00  0.00     0.238 C 
BRANCH  31  32
HETATM   32  N6  UNL     1      31.435  51.696   7.980  1.00  0.00    -0.069 N 
ATOM     33  H63 UNL     1      30.495  51.994   7.718  1.00  0.00     0.275 HD
ATOM     34  H62 UNL     1      31.438  52.129   8.903  1.00  0.00     0.275 HD
ATOM     35  H61 UNL     1      32.168  52.037   7.358  1.00  0.00     0.275 HD
ENDBRANCH  31  32
BRANCH  31  36
HETATM   36  C8  UNL     1      33.120  50.078   8.154  1.00  0.00     0.022 C 
HETATM   37  C9  UNL     1      33.866  51.363   8.228  1.00  0.00     0.007 C 
HETATM   38  C10 UNL     1      34.662  51.483   6.946  1.00  0.00     0.000 C 
HETATM   39  C11 UNL     1      34.841  50.097   6.421  1.00  0.00     0.000 C 
HETATM   40  C12 UNL     1      33.700  49.308   7.004  1.00  0.00     0.007 C 
ENDBRANCH  31  36
ENDBRANCH   7  31
BRANCH   4  41
HETATM   41  N4  UNL     1      29.972  50.758  12.378  1.00  0.00    -0.234 N 
ATOM     42  H42 UNL     1      29.491  51.658  12.386  1.00  0.00     0.174 HD
ATOM     43  H41 UNL     1      30.448  50.376  13.195  1.00  0.00     0.174 HD
ENDBRANCH   4  41
TORSDOF 10
ENDMDL
MODEL 2
REMARK VINA RESULT: -7.833242764      1.734      2.127
REMARK  10 active torsions:
REMARK  status: ('A' for Active; 'I' for Inactive)
REMARK    1  A    between atoms: C2_2  and  N1_3 
REMARK       I    between atoms: N1_3  and  C3_5 
REMARK       I    between atoms: C3_5  and  N2_7 
REMARK    2  A    between atoms: N2_7  and  C4_9 
REMARK    3  A    between atoms: C5_12  and  N4_13 
REMARK    4  A    between atoms: C6_18  and  C7_19 
REMARK    5  A    between atoms: C7_19  and  N6_20 
REMARK    6  A    between atoms: C7_19  and  C8_24 
REMARK    7  A    between atoms: C13_29  and  C14_30 
REMARK    8  A    between atoms: C17_35  and  N8_36 
REMARK       I    between atoms: N8_36  and  C18_38 
REMARK    9  A    between atoms: C18_38  and  C19_40 
REMARK   10  A    between atoms: C19_40  and  O3_41 
ROOT
HETATM    1  C4  UNL     1      28.549  48.110  10.091  1.00  0.00     0.140 A 
HETATM    2  N3  UNL     1      28.763  48.825  11.200  1.00  0.00    -0.176 N 
ATOM      3  H3  UNL     1      28.163  48.719  12.017  1.00  0.00     0.186 HD
HETATM    4  C5  UNL     1      29.791  49.683  11.206  1.00  0.00     0.677 A 
HETATM    5  N5  UNL     1      30.612  49.856  10.144  1.00  0.00    -0.193 N 
ATOM      6  H5  UNL     1      31.383  50.522  10.195  1.00  0.00     0.184 HD
HETATM    7  C6  UNL     1      30.401  49.134   9.000  1.00  0.00     0.074 A 
HETATM    8  C13 UNL     1      29.369  48.249   8.961  1.00  0.00     0.068 A 
ENDROOT
BRANCH   8   9
HETATM    9  C14 UNL     1      29.086  47.396   7.818  1.00  0.00     0.092 A 
HETATM   10  N7  UNL     1      28.599  47.580   6.612  1.00  0.00    -0.351 N 
HETATM   11  C15 UNL     1      28.483  46.630   5.760  1.00  0.00     0.040 A 
ATOM     12  H7  UNL     1      28.301  48.518   6.343  1.00  0.00     0.166 HD
HETATM   13  C16 UNL     1      27.922  46.827   4.361  1.00  0.00     0.071 C 
HETATM   14  C17 UNL     1      28.891  45.382   6.149  1.00  0.00     0.101 A 
HETATM   15  S1  UNL     1      29.420  45.681   7.738  1.00  0.00    -0.051 SA
BRANCH  14  16
HETATM   16  N8  UNL     1      28.869  44.152   5.387  1.00  0.00    -0.318 N 
HETATM   17  C18 UNL     1      30.009  43.723   4.670  1.00  0.00     0.246 C 
HETATM   18  O2  UNL     1      31.044  44.428   4.703  1.00  0.00    -0.271 OA
ATOM     19  H8  UNL     1      28.020  43.587   5.368  1.00  0.00     0.169 HD
BRANCH  17  20
HETATM   20  C19 UNL     1      29.972  42.472   3.901  1.00  0.00     0.267 C 
BRANCH  20  21
HETATM   21  O3  UNL     1      29.460  41.408   4.602  1.00  0.00    -0.392 OA
ATOM     22  H3  UNL     1      30.095  40.723   4.775  1.00  0.00     0.210 HD
ENDBRANCH  20  21
ENDBRANCH  17  20
ENDBRANCH  14  16
ENDBRANCH   8   9
BRANCH   1  23
HETATM   23  N2  UNL     1      27.573  47.279  10.054  1.00  0.00    -0.293 N 
HETATM   24  C3  UNL     1      27.315  46.347  11.077  1.00  0.00     0.321 C 
HETATM   25  N1  UNL     1      28.051  45.141  11.223  1.00  0.00    -0.343 N 
HETATM   26  O1  UNL     1      26.394  46.600  11.892  1.00  0.00    -0.247 OA
ATOM     27  H1  UNL     1      28.799  44.938  10.561  1.00  0.00     0.164 HD
ATOM     28  H2  UNL     1      26.954  47.293   9.243  1.00  0.00     0.172 HD
BRANCH  25  29
HETATM   29  C2  UNL     1      27.776  44.201  12.271  1.00  0.00     0.120 C 
HETATM   30  C1  UNL     1      28.118  44.744  13.642  1.00  0.00     0.026 C 
ENDBRANCH  25  29
ENDBRANCH   1  23
BRANCH   7  31
HETATM   31  C7  UNL     1      31.261  49.349   7.855  1.00  0.00     0.238 C 
BRANCH  31  32
HETATM   32  N6  UNL     1      31.392  50.845   7.757  1.00  0.00    -0.069 N 
ATOM     33  H63 UNL     1      30.630  51.297   7.250  1.00  0.00     0.275 HD
ATOM     34  H62 UNL     1      31.246  51.335   8.639  1.00  0.00     0.275 HD
ATOM     35  H61 UNL     1      32.313  50.995   7.345  1.00  0.00     0.275 HD
ENDBRANCH  31  32
BRANCH  31  36
HETATM   36  C8  UNL     1      32.704  48.917   7.976  1.00  0.00     0.022 C 
HETATM   37  C9  UNL     1      33.709  50.011   7.899  1.00  0.00     0.007 C 
HETATM   38  C10 UNL     1      34.447  49.837   6.588  1.00  0.00     0.000 C 
HETATM   39  C11 UNL     1      34.299  48.403   6.200  1.00  0.00     0.000 C 
HETATM   40  C12 UNL     1      33.047  47.938   6.892  1.00  0.00     0.007 C 
ENDBRANCH  31  36
ENDBRANCH   7  31
BRANCH   4  41
HETATM   41  N4  UNL     1      30.002  50.374  12.277  1.00  0.00    -0.234 N 
ATOM     42  H42 UNL     1      30.897  50.851  12.387  1.00  0.00     0.174 HD
ATOM     43  H41 UNL     1      29.261  50.417  12.976  1.00  0.00     0.174 HD
ENDBRANCH   4  41
TORSDOF 10
ENDMDL
MODEL 3
REMARK VINA RESULT: -7.756309081      3.615      5.969
REMARK  10 active torsions:
REMARK  status: ('A' for Active; 'I' for Inactive)
REMARK    1  A    between atoms: C2_2  and  N1_3 
REMARK       I    between atoms: N1_3  and  C3_5 
REMARK       I    between atoms: C3_5  and  N2_7 
REMARK    2  A    between atoms: N2_7  and  C4_9 
REMARK    3  A    between atoms: C5_12  and  N4_13 
REMARK    4  A    between atoms: C6_18  and  C7_19 
REMARK    5  A    between atoms: C7_19  and  N6_20 
REMARK    6  A    between atoms: C7_19  and  C8_24 
REMARK    7  A    between atoms: C13_29  and  C14_30 
REMARK    8  A    between atoms: C17_35  and  N8_36 
REMARK       I    between atoms: N8_36  and  C18_38 
REMARK    9  A    between atoms: C18_38  and  C19_40 
REMARK   10  A    between atoms: C19_40  and  O3_41 
ROOT
HETATM    1  C4  UNL     1      29.465  45.368   6.614  1.00  0.00     0.140 A 
HETATM    2  N3  UNL     1      28.263  45.196   7.174  1.00  0.00    -0.176 N 
ATOM      3  H3  UNL     1      27.771  44.305   7.098  1.00  0.00     0.186 HD
HETATM    4  C5  UNL     1      27.725  46.226   7.838  1.00  0.00     0.677 A 
HETATM    5  N5  UNL     1      28.342  47.424   7.963  1.00  0.00    -0.193 N 
ATOM      6  H5  UNL     1      27.893  48.181   8.480  1.00  0.00     0.184 HD
HETATM    7  C6  UNL     1      29.571  47.617   7.391  1.00  0.00     0.074 A 
HETATM    8  C13 UNL     1      30.149  46.589   6.712  1.00  0.00     0.068 A 
ENDROOT
BRANCH   8   9
HETATM    9  C14 UNL     1      31.470  46.669   6.110  1.00  0.00     0.092 A 
HETATM   10  N7  UNL     1      32.703  46.537   6.542  1.00  0.00    -0.351 N 
HETATM   11  C15 UNL     1      33.721  46.625   5.768  1.00  0.00     0.040 A 
ATOM     12  H7  UNL     1      32.857  46.357   7.534  1.00  0.00     0.166 HD
HETATM   13  C16 UNL     1      35.154  46.476   6.253  1.00  0.00     0.071 C 
HETATM   14  C17 UNL     1      33.484  46.867   4.441  1.00  0.00     0.101 A 
HETATM   15  S1  UNL     1      31.785  46.949   4.413  1.00  0.00    -0.051 SA
BRANCH  14  16
HETATM   16  N8  UNL     1      34.445  47.010   3.370  1.00  0.00    -0.318 N 
HETATM   17  C18 UNL     1      34.884  45.884   2.635  1.00  0.00     0.246 C 
HETATM   18  O2  UNL     1      34.426  44.756   2.930  1.00  0.00    -0.271 OA
ATOM     19  H8  UNL     1      34.810  47.934   3.140  1.00  0.00     0.169 HD
BRANCH  17  20
HETATM   20  C19 UNL     1      35.860  46.043   1.549  1.00  0.00     0.267 C 
BRANCH  20  21
HETATM   21  O3  UNL     1      36.597  47.198   1.633  1.00  0.00    -0.392 OA
ATOM     22  H3  UNL     1      37.041  47.428   0.826  1.00  0.00     0.210 HD
ENDBRANCH  20  21
ENDBRANCH  17  20
ENDBRANCH  14  16
ENDBRANCH   8   9
BRANCH   1  23
HETATM   23  N2  UNL     1      30.007  44.401   5.971  1.00  0.00    -0.293 N 
HETATM   24  C3  UNL     1      29.498  43.899   4.757  1.00  0.00     0.321 C 
HETATM   25  N1  UNL     1      28.380  43.026   4.695  1.00  0.00    -0.343 N 
HETATM   26  O1  UNL     1      30.061  44.244   3.690  1.00  0.00    -0.247 OA
ATOM     27  H1  UNL     1      27.924  42.747   5.563  1.00  0.00     0.164 HD
ATOM     28  H2  UNL     1      30.849  43.973   6.358  1.00  0.00     0.172 HD
BRANCH  25  29
HETATM   29  C2  UNL     1      27.873  42.524   3.451  1.00  0.00     0.120 C 
HETATM   30  C1  UNL     1      28.443  41.167   3.098  1.00  0.00     0.026 C 
ENDBRANCH  25  29
ENDBRANCH   1  23
BRANCH   7  31
HETATM   31  C7  UNL     1      30.210  48.911   7.497  1.00  0.00     0.238 C 
BRANCH  31  32
HETATM   32  N6  UNL     1      29.071  49.896   7.489  1.00  0.00    -0.069 N 
ATOM     33  H63 UNL     1      28.689  50.083   6.562  1.00  0.00     0.275 HD
ATOM     34  H62 UNL     1      28.208  49.538   7.898  1.00  0.00     0.275 HD
ATOM     35  H61 UNL     1      29.444  50.721   7.961  1.00  0.00     0.275 HD
ENDBRANCH  31  32
BRANCH  31  36
HETATM   36  C8  UNL     1      30.900  49.243   8.799  1.00  0.00     0.022 C 
HETATM   37  C9  UNL     1      31.387  48.076   9.582  1.00  0.00     0.007 C 
HETATM   38  C10 UNL     1      30.519  47.985  10.820  1.00  0.00     0.000 C 
HETATM   39  C11 UNL     1      29.953  49.348  11.048  1.00  0.00     0.000 C 
HETATM   40  C12 UNL     1      29.977  50.012   9.698  1.00  0.00     0.007 C 
ENDBRANCH  31  36
ENDBRANCH   7  31
BRANCH   4  41
HETATM   41  N4  UNL     1      26.565  46.062   8.382  1.00  0.00    -0.234 N 
ATOM     42  H42 UNL     1      26.456  46.254   9.378  1.00  0.00     0.174 HD
ATOM     43  H41 UNL     1      25.797  45.743   7.791  1.00  0.00     0.174 HD
ENDBRANCH   4  41
TORSDOF 10
ENDMDL
MODEL 4
REMARK VINA RESULT: -7.734433228      4.266      8.551
REMARK  10 active torsions:
REMARK  status: ('A' for Active; 'I' for Inactive)
REMARK    1  A    between atoms: C2_2  and  N1_3 
REMARK       I    between atoms: N1_3  and  C3_5 
REMARK       I    between atoms: C3_5  and  N2_7 
REMARK    2  A    between atoms: N2_7  and  C4_9 
REMARK    3  A    between atoms: C5_12  and  N4_13 
REMARK    4  A    between atoms: C6_18  and  C7_19 
REMARK    5  A    between atoms: C7_19  and  N6_20 
REMARK    6  A    between atoms: C7_19  and  C8_24 
REMARK    7  A    between atoms: C13_29  and  C14_30 
REMARK    8  A    between atoms: C17_35  and  N8_36 
REMARK       I    between atoms: N8_36  and  C18_38 
REMARK    9  A    between atoms: C18_38  and  C19_40 
REMARK   10  A    between atoms: C19_40  and  O3_41 
ROOT
HETATM    1  C4  UNL     1      33.186  47.715   6.733  1.00  0.00     0.140 A 
HETATM    2  N3  UNL     1      32.466  46.623   6.457  1.00  0.00    -0.176 N 
ATOM      3  H3  UNL     1      32.904  45.793   6.057  1.00  0.00     0.186 HD
HETATM    4  C5  UNL     1      31.154  46.651   6.720  1.00  0.00     0.677 A 
HETATM    5  N5  UNL     1      30.532  47.731   7.248  1.00  0.00    -0.193 N 
ATOM      6  H5  UNL     1      29.529  47.705   7.433  1.00  0.00     0.184 HD
HETATM    7  C6  UNL     1      31.255  48.857   7.533  1.00  0.00     0.074 A 
HETATM    8  C13 UNL     1      32.592  48.862   7.282  1.00  0.00     0.068 A 
ENDROOT
BRANCH   8   9
HETATM    9  C14 UNL     1      33.463  49.985   7.592  1.00  0.00     0.092 A 
HETATM   10  N7  UNL     1      34.041  50.938   6.899  1.00  0.00    -0.351 N 
HETATM   11  C15 UNL     1      34.754  51.855   7.443  1.00  0.00     0.040 A 
ATOM     12  H7  UNL     1      33.917  50.951   5.887  1.00  0.00     0.166 HD
HETATM   13  C16 UNL     1      35.430  52.964   6.654  1.00  0.00     0.071 C 
HETATM   14  C17 UNL     1      34.903  51.812   8.803  1.00  0.00     0.101 A 
HETATM   15  S1  UNL     1      33.988  50.434   9.199  1.00  0.00    -0.051 SA
BRANCH  14  16
HETATM   16  N8  UNL     1      35.647  52.716   9.653  1.00  0.00    -0.318 N 
HETATM   17  C18 UNL     1      35.069  53.245  10.830  1.00  0.00     0.246 C 
HETATM   18  O2  UNL     1      33.896  52.919  11.126  1.00  0.00    -0.271 OA
ATOM     19  H8  UNL     1      36.601  52.974   9.401  1.00  0.00     0.169 HD
BRANCH  17  20
HETATM   20  C19 UNL     1      35.836  54.162  11.685  1.00  0.00     0.267 C 
BRANCH  20  21
HETATM   21  O3  UNL     1      36.164  53.631  12.908  1.00  0.00    -0.392 OA
ATOM     22  H3  UNL     1      36.742  52.879  12.855  1.00  0.00     0.210 HD
ENDBRANCH  20  21
ENDBRANCH  17  20
ENDBRANCH  14  16
ENDBRANCH   8   9
BRANCH   1  23
HETATM   23  N2  UNL     1      34.445  47.720   6.493  1.00  0.00    -0.293 N 
HETATM   24  C3  UNL     1      34.982  47.802   5.194  1.00  0.00     0.321 C 
HETATM   25  N1  UNL     1      35.040  46.689   4.314  1.00  0.00    -0.343 N 
HETATM   26  O1  UNL     1      35.426  48.909   4.805  1.00  0.00    -0.247 OA
ATOM     27  H1  UNL     1      34.678  45.790   4.632  1.00  0.00     0.164 HD
ATOM     28  H2  UNL     1      35.089  47.661   7.282  1.00  0.00     0.172 HD
BRANCH  25  29
HETATM   29  C2  UNL     1      35.590  46.788   2.994  1.00  0.00     0.120 C 
HETATM   30  C1  UNL     1      35.671  45.447   2.296  1.00  0.00     0.026 C 
ENDBRANCH  25  29
ENDBRANCH   1  23
BRANCH   7  31
HETATM   31  C7  UNL     1      30.579  50.022   8.065  1.00  0.00     0.238 C 
BRANCH  31  32
HETATM   32  N6  UNL     1      29.274  50.075   7.316  1.00  0.00    -0.069 N 
ATOM     33  H63 UNL     1      28.571  49.419   7.657  1.00  0.00     0.275 HD
ATOM     34  H62 UNL     1      28.731  50.921   7.485  1.00  0.00     0.275 HD
ATOM     35  H61 UNL     1      29.534  49.936   6.339  1.00  0.00     0.275 HD
ENDBRANCH  31  32
BRANCH  31  36
HETATM   36  C8  UNL     1      30.112  49.961   9.500  1.00  0.00     0.022 C 
HETATM   37  C9  UNL     1      30.899  49.070  10.394  1.00  0.00     0.007 C 
HETATM   38  C10 UNL     1      30.007  47.895  10.738  1.00  0.00     0.000 C 
HETATM   39  C11 UNL     1      28.599  48.357  10.549  1.00  0.00     0.000 C 
HETATM   40  C12 UNL     1      28.689  49.492   9.567  1.00  0.00     0.007 C 
ENDBRANCH  31  36
ENDBRANCH   7  31
BRANCH   4  41
HETATM   41  N4  UNL     1      30.456  45.596   6.455  1.00  0.00    -0.234 N 
ATOM     42  H42 UNL     1      30.836  44.680   6.697  1.00  0.00     0.174 HD
ATOM     43  H41 UNL     1      29.546  45.720   6.011  1.00  0.00     0.174 HD
ENDBRANCH   4  41
TORSDOF 10
ENDMDL
MODEL 5
REMARK VINA RESULT: -7.703089663      2.849      5.711
REMARK  10 active torsions:
REMARK  status: ('A' for Active; 'I' for Inactive)
REMARK    1  A    between atoms: C2_2  and  N1_3 
REMARK       I    between atoms: N1_3  and  C3_5 
REMARK       I    between atoms: C3_5  and  N2_7 
REMARK    2  A    between atoms: N2_7  and  C4_9 
REMARK    3  A    between atoms: C5_12  and  N4_13 
REMARK    4  A    between atoms: C6_18  and  C7_19 
REMARK    5  A    between atoms: C7_19  and  N6_20 
REMARK    6  A    between atoms: C7_19  and  C8_24 
REMARK    7  A    between atoms: C13_29  and  C14_30 
REMARK    8  A    between atoms: C17_35  and  N8_36 
REMARK       I    between atoms: N8_36  and  C18_38 
REMARK    9  A    between atoms: C18_38  and  C19_40 
REMARK   10  A    between atoms: C19_40  and  O3_41 
ROOT
HETATM    1  C4  UNL     1      31.629  50.397   9.436  1.00  0.00     0.140 A 
HETATM    2  N3  UNL     1      31.164  51.028  10.518  1.00  0.00    -0.176 N 
ATOM      3  H3  UNL     1      31.406  52.002  10.703  1.00  0.00     0.186 HD
HETATM    4  C5  UNL     1      30.371  50.345  11.353  1.00  0.00     0.677 A 
HETATM    5  N5  UNL     1      30.026  49.053  11.148  1.00  0.00    -0.193 N 
ATOM      6  H5  UNL     1      29.417  48.572  11.812  1.00  0.00     0.184 HD
HETATM    7  C6  UNL     1      30.497  48.392  10.045  1.00  0.00     0.074 A 
HETATM    8  C13 UNL     1      31.302  49.058   9.173  1.00  0.00     0.068 A 
ENDROOT
BRANCH   8   9
HETATM    9  C14 UNL     1      31.816  48.469   7.947  1.00  0.00     0.092 A 
HETATM   10  N7  UNL     1      32.908  47.823   7.607  1.00  0.00    -0.351 N 
HETATM   11  C15 UNL     1      33.102  47.367   6.425  1.00  0.00     0.040 A 
ATOM     12  H7  UNL     1      33.630  47.678   8.312  1.00  0.00     0.166 HD
HETATM   13  C16 UNL     1      34.359  46.617   6.016  1.00  0.00     0.071 C 
HETATM   14  C17 UNL     1      32.115  47.576   5.499  1.00  0.00     0.101 A 
HETATM   15  S1  UNL     1      30.965  48.428   6.420  1.00  0.00    -0.051 SA
BRANCH  14  16
HETATM   16  N8  UNL     1      32.085  47.169   4.112  1.00  0.00    -0.318 N 
HETATM   17  C18 UNL     1      31.691  45.861   3.749  1.00  0.00     0.246 C 
HETATM   18  O2  UNL     1      31.368  45.055   4.652  1.00  0.00    -0.271 OA
ATOM     19  H8  UNL     1      32.351  47.835   3.385  1.00  0.00     0.169 HD
BRANCH  17  20
HETATM   20  C19 UNL     1      31.665  45.460   2.335  1.00  0.00     0.267 C 
BRANCH  20  21
HETATM   21  O3  UNL     1      30.510  45.817   1.682  1.00  0.00    -0.392 OA
ATOM     22  H3  UNL     1      30.621  45.930   0.746  1.00  0.00     0.210 HD
ENDBRANCH  20  21
ENDBRANCH  17  20
ENDBRANCH  14  16
ENDBRANCH   8   9
BRANCH   1  23
HETATM   23  N2  UNL     1      32.390  51.024   8.617  1.00  0.00    -0.293 N 
HETATM   24  C3  UNL     1      33.771  51.200   8.828  1.00  0.00     0.321 C 
HETATM   25  N1  UNL     1      34.295  52.173   9.719  1.00  0.00    -0.343 N 
HETATM   26  O1  UNL     1      34.566  50.461   8.199  1.00  0.00    -0.247 OA
ATOM     27  H1  UNL     1      33.647  52.773  10.230  1.00  0.00     0.164 HD
ATOM     28  H2  UNL     1      31.975  51.414   7.771  1.00  0.00     0.172 HD
BRANCH  25  29
HETATM   29  C2  UNL     1      35.704  52.341   9.924  1.00  0.00     0.120 C 
HETATM   30  C1  UNL     1      36.029  53.570  10.746  1.00  0.00     0.026 C 
ENDBRANCH  25  29
ENDBRANCH   1  23
BRANCH   7  31
HETATM   31  C7  UNL     1      30.153  46.999   9.849  1.00  0.00     0.238 C 
BRANCH  31  32
HETATM   32  N6  UNL     1      30.206  46.400  11.229  1.00  0.00    -0.069 N 
ATOM     33  H63 UNL     1      30.723  45.522  11.282  1.00  0.00     0.275 HD
ATOM     34  H62 UNL     1      30.791  46.915  11.885  1.00  0.00     0.275 HD
ATOM     35  H61 UNL     1      29.228  46.325  11.512  1.00  0.00     0.275 HD
ENDBRANCH  31  32
BRANCH  31  36
HETATM   36  C8  UNL     1      28.738  46.684   9.426  1.00  0.00     0.022 C 
HETATM   37  C9  UNL     1      28.602  45.669   8.347  1.00  0.00     0.007 C 
HETATM   38  C10 UNL     1      28.114  46.402   7.114  1.00  0.00     0.000 C 
HETATM   39  C11 UNL     1      27.440  47.645   7.594  1.00  0.00     0.000 C 
HETATM   40  C12 UNL     1      28.050  47.926   8.940  1.00  0.00     0.007 C 
ENDBRANCH  31  36
ENDBRANCH   7  31
BRANCH   4  41
HETATM   41  N4  UNL     1      29.919  50.953  12.400  1.00  0.00    -0.234 N 
ATOM     42  H42 UNL     1      29.421  51.835  12.281  1.00  0.00     0.174 HD
ATOM     43  H41 UNL     1      30.079  50.525  13.312  1.00  0.00     0.174 HD
ENDBRANCH   4  41
TORSDOF 10
ENDMDL
