MODEL 1
REMARK VINA RESULT: -8.832928424      0.000      0.000
REMARK  12 active torsions:
REMARK  status: ('A' for Active; 'I' for Inactive)
REMARK    1  A    between atoms: C2_2  and  N2_6 
REMARK       I    between atoms: C3_8  and  N4_10 
REMARK    2  A    between atoms: N4_10  and  C4_12 
REMARK    3  A    between atoms: C4_12  and  C5_13 
REMARK    4  A    between atoms: C5_13  and  N5_14 
REMARK    5  A    between atoms: N5_14  and  C6_16 
REMARK    6  A    between atoms: C6_16  and  S1_21 
REMARK    7  A    between atoms: N6_17  and  O1_19 
REMARK    8  A    between atoms: S1_21  and  S2_22 
REMARK    9  A    between atoms: S2_22  and  C7_23 
REMARK       I    between atoms: C7_23  and  N7_25 
REMARK   10  A    between atoms: N7_25  and  C8_27 
REMARK   11  A    between atoms: C12_31  and  C13_32 
REMARK   12  A    between atoms: C13_32  and  C14_33 
ROOT
HETATM    1  C6  UNL     1      29.840  48.902  11.158  1.00  0.00     0.171 C 
HETATM    2  N6  UNL     1      30.126  49.723  12.087  1.00  0.00    -0.247 N 
ATOM      3  H6  UNL     1      30.386  49.346  12.998  1.00  0.00     0.196 HD
ENDROOT
BRANCH   1   4
HETATM    4  N5  UNL     1      29.908  47.496  11.472  1.00  0.00    -0.367 N 
ATOM      5  H5  UNL     1      30.415  47.170  12.296  1.00  0.00     0.161 HD
BRANCH   4   6
HETATM    6  C5  UNL     1      29.238  46.551  10.589  1.00  0.00     0.141 C 
BRANCH   6   7
HETATM    7  C4  UNL     1      28.147  45.837  11.362  1.00  0.00     0.142 C 
BRANCH   7   8
HETATM    8  N4  UNL     1      28.665  44.578  11.897  1.00  0.00    -0.363 N 
HETATM    9  C3  UNL     1      27.974  44.033  13.001  1.00  0.00     0.189 C 
HETATM   10  N2  UNL     1      27.879  44.699  14.080  1.00  0.00    -0.321 N 
HETATM   11  N3  UNL     1      27.393  42.752  12.896  1.00  0.00    -0.064 NA
ATOM     12  H2  UNL     1      28.322  45.618  14.083  1.00  0.00     0.169 HD
ATOM     13  H4  UNL     1      29.482  44.118  11.495  1.00  0.00     0.162 HD
BRANCH  10  14
HETATM   14  C2  UNL     1      27.237  44.319  15.265  1.00  0.00     0.072 C 
HETATM   15  C1  UNL     1      26.117  45.187  15.750  1.00  0.00     0.088 C 
HETATM   16  N1  UNL     1      27.541  43.291  15.951  1.00  0.00    -0.389 N 
ATOM     17  H12 UNL     1      27.074  43.014  16.814  1.00  0.00     0.157 HD
ATOM     18  H11 UNL     1      28.303  42.700  15.621  1.00  0.00     0.157 HD
ENDBRANCH  10  14
ENDBRANCH   7   8
ENDBRANCH   6   7
ENDBRANCH   4   6
ENDBRANCH   1   4
BRANCH   1  19
HETATM   19  S1  UNL     1      29.379  49.469   9.548  1.00  0.00    -0.010 SA
BRANCH  19  20
HETATM   20  S2  UNL     1      31.007  49.172   8.224  1.00  0.00     0.012 SA
BRANCH  20  21
HETATM   21  C7  UNL     1      32.110  50.564   8.410  1.00  0.00     0.291 C 
HETATM   22  O2  UNL     1      31.980  51.631   7.751  1.00  0.00    -0.260 OA
HETATM   23  N7  UNL     1      33.182  50.471   9.339  1.00  0.00    -0.347 N 
ATOM     24  H7  UNL     1      33.306  49.617   9.882  1.00  0.00     0.163 HD
BRANCH  23  25
HETATM   25  C8  UNL     1      34.101  51.577   9.523  1.00  0.00     0.085 C 
HETATM   26  C9  UNL     1      35.421  51.154   8.914  1.00  0.00     0.025 C 
HETATM   27  C10 UNL     1      36.353  52.259   8.629  1.00  0.00     0.002 C 
HETATM   28  C11 UNL     1      36.083  53.571   9.247  1.00  0.00     0.005 C 
HETATM   29  C12 UNL     1      36.040  53.567  10.766  1.00  0.00    -0.005 C 
HETATM   30  C15 UNL     1      34.648  53.270  11.256  1.00  0.00     0.007 C 
HETATM   31  C16 UNL     1      34.189  51.882  10.984  1.00  0.00     0.025 C 
BRANCH  29  32
HETATM   32  C13 UNL     1      37.120  52.734  11.348  1.00  0.00     0.117 C 
BRANCH  32  33
HETATM   33  C14 UNL     1      38.198  53.439  12.061  1.00  0.00     0.172 C 
HETATM   34  O3  UNL     1      38.031  54.663  12.431  1.00  0.00    -0.648 OA
HETATM   35  O4  UNL     1      39.431  52.927  12.405  1.00  0.00    -0.648 OA
ENDBRANCH  32  33
ENDBRANCH  29  32
ENDBRANCH  23  25
ENDBRANCH  20  21
ENDBRANCH  19  20
ENDBRANCH   1  19
BRANCH   2  36
HETATM   36  O1  UNL     1      30.103  51.076  11.935  1.00  0.00    -0.288 OA
ATOM     37  H1  UNL     1      29.583  51.659  12.475  1.00  0.00     0.244 HD
ENDBRANCH   2  36
TORSDOF 12
ENDMDL
MODEL 2
REMARK VINA RESULT: -8.736052434      3.053      3.928
REMARK  12 active torsions:
REMARK  status: ('A' for Active; 'I' for Inactive)
REMARK    1  A    between atoms: C2_2  and  N2_6 
REMARK       I    between atoms: C3_8  and  N4_10 
REMARK    2  A    between atoms: N4_10  and  C4_12 
REMARK    3  A    between atoms: C4_12  and  C5_13 
REMARK    4  A    between atoms: C5_13  and  N5_14 
REMARK    5  A    between atoms: N5_14  and  C6_16 
REMARK    6  A    between atoms: C6_16  and  S1_21 
REMARK    7  A    between atoms: N6_17  and  O1_19 
REMARK    8  A    between atoms: S1_21  and  S2_22 
REMARK    9  A    between atoms: S2_22  and  C7_23 
REMARK       I    between atoms: C7_23  and  N7_25 
REMARK   10  A    between atoms: N7_25  and  C8_27 
REMARK   11  A    between atoms: C12_31  and  C13_32 
REMARK   12  A    between atoms: C13_32  and  C14_33 
ROOT
HETATM    1  C6  UNL     1      26.797  46.177   8.254  1.00  0.00     0.171 C 
HETATM    2  N6  UNL     1      25.669  45.702   8.601  1.00  0.00    -0.247 N 
ATOM      3  H6  UNL     1      25.514  45.506   9.590  1.00  0.00     0.196 HD
ENDROOT
BRANCH   1   4
HETATM    4  N5  UNL     1      27.771  46.401   9.294  1.00  0.00    -0.367 N 
ATOM      5  H5  UNL     1      28.718  46.703   9.066  1.00  0.00     0.161 HD
BRANCH   4   6
HETATM    6  C5  UNL     1      27.373  46.186  10.679  1.00  0.00     0.141 C 
BRANCH   6   7
HETATM    7  C4  UNL     1      28.615  46.126  11.548  1.00  0.00     0.142 C 
BRANCH   7   8
HETATM    8  N4  UNL     1      28.902  44.736  11.903  1.00  0.00    -0.363 N 
HETATM    9  C3  UNL     1      28.106  44.172  12.923  1.00  0.00     0.189 C 
HETATM   10  N2  UNL     1      28.105  44.692  14.084  1.00  0.00    -0.321 N 
HETATM   11  N3  UNL     1      27.319  43.036  12.646  1.00  0.00    -0.064 NA
ATOM     12  H2  UNL     1      28.697  45.512  14.212  1.00  0.00     0.169 HD
ATOM     13  H4  UNL     1      29.637  44.203  11.437  1.00  0.00     0.162 HD
BRANCH  10  14
HETATM   14  C2  UNL     1      27.385  44.268  15.208  1.00  0.00     0.072 C 
HETATM   15  C1  UNL     1      26.249  45.133  15.663  1.00  0.00     0.088 C 
HETATM   16  N1  UNL     1      27.630  43.204  15.863  1.00  0.00    -0.389 N 
ATOM     17  H12 UNL     1      27.105  42.896  16.681  1.00  0.00     0.157 HD
ATOM     18  H11 UNL     1      28.402  42.616  15.553  1.00  0.00     0.157 HD
ENDBRANCH  10  14
ENDBRANCH   7   8
ENDBRANCH   6   7
ENDBRANCH   4   6
ENDBRANCH   1   4
BRANCH   1  19
HETATM   19  S1  UNL     1      27.151  46.546   6.562  1.00  0.00    -0.010 SA
BRANCH  19  20
HETATM   20  S2  UNL     1      29.189  46.108   6.175  1.00  0.00     0.012 SA
BRANCH  20  21
HETATM   21  C7  UNL     1      30.108  47.628   6.353  1.00  0.00     0.291 C 
HETATM   22  O2  UNL     1      30.303  48.425   5.396  1.00  0.00    -0.260 OA
HETATM   23  N7  UNL     1      30.645  47.961   7.627  1.00  0.00    -0.347 N 
ATOM     24  H7  UNL     1      30.499  47.330   8.416  1.00  0.00     0.163 HD
BRANCH  23  25
HETATM   25  C8  UNL     1      31.396  49.185   7.818  1.00  0.00     0.085 C 
HETATM   26  C9  UNL     1      32.833  48.878   7.450  1.00  0.00     0.025 C 
HETATM   27  C10 UNL     1      33.669  50.060   7.181  1.00  0.00     0.002 C 
HETATM   28  C11 UNL     1      33.165  51.379   7.609  1.00  0.00     0.005 C 
HETATM   29  C12 UNL     1      32.891  51.507   9.098  1.00  0.00    -0.005 C 
HETATM   30  C15 UNL     1      31.482  51.083   9.417  1.00  0.00     0.007 C 
HETATM   31  C16 UNL     1      31.226  49.630   9.235  1.00  0.00     0.025 C 
BRANCH  29  32
HETATM   32  C13 UNL     1      33.955  50.872   9.912  1.00  0.00     0.117 C 
BRANCH  32  33
HETATM   33  C14 UNL     1      34.656  51.729  10.884  1.00  0.00     0.172 C 
HETATM   34  O3  UNL     1      35.644  51.255  11.564  1.00  0.00    -0.648 OA
HETATM   35  O4  UNL     1      34.375  53.047  11.172  1.00  0.00    -0.648 OA
ENDBRANCH  32  33
ENDBRANCH  29  32
ENDBRANCH  23  25
ENDBRANCH  20  21
ENDBRANCH  19  20
ENDBRANCH   1  19
BRANCH   2  36
HETATM   36  O1  UNL     1      24.658  45.440   7.729  1.00  0.00    -0.288 OA
ATOM     37  H1  UNL     1      24.621  44.665   7.180  1.00  0.00     0.244 HD
ENDBRANCH   2  36
TORSDOF 12
ENDMDL
MODEL 3
REMARK VINA RESULT: -8.520590684      7.548     10.657
REMARK  12 active torsions:
REMARK  status: ('A' for Active; 'I' for Inactive)
REMARK    1  A    between atoms: C2_2  and  N2_6 
REMARK       I    between atoms: C3_8  and  N4_10 
REMARK    2  A    between atoms: N4_10  and  C4_12 
REMARK    3  A    between atoms: C4_12  and  C5_13 
REMARK    4  A    between atoms: C5_13  and  N5_14 
REMARK    5  A    between atoms: N5_14  and  C6_16 
REMARK    6  A    between atoms: C6_16  and  S1_21 
REMARK    7  A    between atoms: N6_17  and  O1_19 
REMARK    8  A    between atoms: S1_21  and  S2_22 
REMARK    9  A    between atoms: S2_22  and  C7_23 
REMARK       I    between atoms: C7_23  and  N7_25 
REMARK   10  A    between atoms: N7_25  and  C8_27 
REMARK   11  A    between atoms: C12_31  and  C13_32 
REMARK   12  A    between atoms: C13_32  and  C14_33 
ROOT
HETATM    1  C6  UNL     1      26.940  46.055   8.750  1.00  0.00     0.171 C 
HETATM    2  N6  UNL     1      25.867  45.716   8.157  1.00  0.00    -0.247 N 
ATOM      3  H6  UNL     1      25.195  45.144   8.668  1.00  0.00     0.196 HD
ENDROOT
BRANCH   1   4
HETATM    4  N5  UNL     1      27.120  45.598  10.107  1.00  0.00    -0.367 N 
ATOM      5  H5  UNL     1      27.063  44.605  10.335  1.00  0.00     0.161 HD
BRANCH   4   6
HETATM    6  C5  UNL     1      27.384  46.585  11.146  1.00  0.00     0.141 C 
BRANCH   6   7
HETATM    7  C4  UNL     1      28.765  46.341  11.722  1.00  0.00     0.142 C 
BRANCH   7   8
HETATM    8  N4  UNL     1      28.957  44.909  11.951  1.00  0.00    -0.363 N 
HETATM    9  C3  UNL     1      28.123  44.311  12.920  1.00  0.00     0.189 C 
HETATM   10  N2  UNL     1      28.153  44.724  14.123  1.00  0.00    -0.321 N 
HETATM   11  N3  UNL     1      27.262  43.259  12.545  1.00  0.00    -0.064 NA
ATOM     12  H2  UNL     1      28.799  45.488  14.321  1.00  0.00     0.169 HD
ATOM     13  H4  UNL     1      29.656  44.371  11.438  1.00  0.00     0.162 HD
BRANCH  10  14
HETATM   14  C2  UNL     1      27.403  44.251  15.207  1.00  0.00     0.072 C 
HETATM   15  C1  UNL     1      26.267  45.105  15.681  1.00  0.00     0.088 C 
HETATM   16  N1  UNL     1      27.622  43.153  15.811  1.00  0.00    -0.389 N 
ATOM     17  H12 UNL     1      27.076  42.808  16.600  1.00  0.00     0.157 HD
ATOM     18  H11 UNL     1      28.396  42.572  15.488  1.00  0.00     0.157 HD
ENDBRANCH  10  14
ENDBRANCH   7   8
ENDBRANCH   6   7
ENDBRANCH   4   6
ENDBRANCH   1   4
BRANCH   1  19
HETATM   19  S1  UNL     1      28.159  47.046   7.940  1.00  0.00    -0.010 SA
BRANCH  19  20
HETATM   20  S2  UNL     1      29.626  45.774   7.091  1.00  0.00     0.012 SA
BRANCH  20  21
HETATM   21  C7  UNL     1      28.892  44.981   5.670  1.00  0.00     0.291 C 
HETATM   22  O2  UNL     1      27.649  44.976   5.457  1.00  0.00    -0.260 OA
HETATM   23  N7  UNL     1      29.739  44.327   4.734  1.00  0.00    -0.347 N 
ATOM     24  H7  UNL     1      30.747  44.319   4.887  1.00  0.00     0.163 HD
BRANCH  23  25
HETATM   25  C8  UNL     1      29.186  43.672   3.565  1.00  0.00     0.085 C 
HETATM   26  C9  UNL     1      29.474  42.193   3.716  1.00  0.00     0.025 C 
HETATM   27  C10 UNL     1      28.656  41.313   2.863  1.00  0.00     0.002 C 
HETATM   28  C11 UNL     1      27.916  41.926   1.743  1.00  0.00     0.005 C 
HETATM   29  C12 UNL     1      28.779  42.653   0.726  1.00  0.00    -0.005 C 
HETATM   30  C15 UNL     1      28.974  44.091   1.127  1.00  0.00     0.007 C 
HETATM   31  C16 UNL     1      29.804  44.279   2.346  1.00  0.00     0.025 C 
BRANCH  29  32
HETATM   32  C13 UNL     1      30.017  41.899   0.412  1.00  0.00     0.117 C 
BRANCH  32  33
HETATM   33  C14 UNL     1      30.094  41.264  -0.915  1.00  0.00     0.172 C 
HETATM   34  O3  UNL     1      29.759  41.930  -1.967  1.00  0.00    -0.648 OA
HETATM   35  O4  UNL     1      30.506  39.978  -1.190  1.00  0.00    -0.648 OA
ENDBRANCH  32  33
ENDBRANCH  29  32
ENDBRANCH  23  25
ENDBRANCH  20  21
ENDBRANCH  19  20
ENDBRANCH   1  19
BRANCH   2  36
HETATM   36  O1  UNL     1      25.564  46.073   6.879  1.00  0.00    -0.288 OA
ATOM     37  H1  UNL     1      24.682  46.255   6.577  1.00  0.00     0.244 HD
ENDBRANCH   2  36
TORSDOF 12
ENDMDL
MODEL 4
REMARK VINA RESULT: -8.479399364      5.022      6.678
REMARK  12 active torsions:
REMARK  status: ('A' for Active; 'I' for Inactive)
REMARK    1  A    between atoms: C2_2  and  N2_6 
REMARK       I    between atoms: C3_8  and  N4_10 
REMARK    2  A    between atoms: N4_10  and  C4_12 
REMARK    3  A    between atoms: C4_12  and  C5_13 
REMARK    4  A    between atoms: C5_13  and  N5_14 
REMARK    5  A    between atoms: N5_14  and  C6_16 
REMARK    6  A    between atoms: C6_16  and  S1_21 
REMARK    7  A    between atoms: N6_17  and  O1_19 
REMARK    8  A    between atoms: S1_21  and  S2_22 
REMARK    9  A    between atoms: S2_22  and  C7_23 
REMARK       I    between atoms: C7_23  and  N7_25 
REMARK   10  A    between atoms: N7_25  and  C8_27 
REMARK   11  A    between atoms: C12_31  and  C13_32 
REMARK   12  A    between atoms: C13_32  and  C14_33 
ROOT
HETATM    1  C6  UNL     1      27.779  46.152   7.136  1.00  0.00     0.171 C 
HETATM    2  N6  UNL     1      27.554  46.858   6.102  1.00  0.00    -0.247 N 
ATOM      3  H6  UNL     1      28.239  46.834   5.346  1.00  0.00     0.196 HD
ENDROOT
BRANCH   1   4
HETATM    4  N5  UNL     1      28.993  45.371   7.155  1.00  0.00    -0.367 N 
ATOM      5  H5  UNL     1      29.001  44.431   7.550  1.00  0.00     0.161 HD
BRANCH   4   6
HETATM    6  C5  UNL     1      30.205  45.955   6.599  1.00  0.00     0.141 C 
BRANCH   6   7
HETATM    7  C4  UNL     1      30.724  45.057   5.492  1.00  0.00     0.142 C 
BRANCH   7   8
HETATM    8  N4  UNL     1      29.747  45.000   4.405  1.00  0.00    -0.363 N 
HETATM    9  C3  UNL     1      28.989  43.814   4.305  1.00  0.00     0.189 C 
HETATM   10  N2  UNL     1      29.576  42.701   4.122  1.00  0.00    -0.321 N 
HETATM   11  N3  UNL     1      27.584  43.875   4.410  1.00  0.00    -0.064 NA
ATOM     12  H2  UNL     1      30.593  42.733   4.057  1.00  0.00     0.169 HD
ATOM     13  H4  UNL     1      29.621  45.776   3.754  1.00  0.00     0.162 HD
BRANCH  10  14
HETATM   14  C2  UNL     1      28.988  41.435   3.999  1.00  0.00     0.072 C 
HETATM   15  C1  UNL     1      28.790  40.901   2.613  1.00  0.00     0.088 C 
HETATM   16  N1  UNL     1      28.614  40.715   4.979  1.00  0.00    -0.389 N 
ATOM     17  H12 UNL     1      28.186  39.794   4.889  1.00  0.00     0.157 HD
ATOM     18  H11 UNL     1      28.749  41.079   5.922  1.00  0.00     0.157 HD
ENDBRANCH  10  14
ENDBRANCH   7   8
ENDBRANCH   6   7
ENDBRANCH   4   6
ENDBRANCH   1   4
BRANCH   1  19
HETATM   19  S1  UNL     1      26.646  46.131   8.493  1.00  0.00    -0.010 SA
BRANCH  19  20
HETATM   20  S2  UNL     1      27.642  46.827  10.230  1.00  0.00     0.012 SA
BRANCH  20  21
HETATM   21  C7  UNL     1      28.602  48.257   9.761  1.00  0.00     0.291 C 
HETATM   22  O2  UNL     1      28.078  49.366   9.469  1.00  0.00    -0.260 OA
HETATM   23  N7  UNL     1      30.019  48.148   9.716  1.00  0.00    -0.347 N 
ATOM     24  H7  UNL     1      30.464  47.261   9.949  1.00  0.00     0.163 HD
BRANCH  23  25
HETATM   25  C8  UNL     1      30.838  49.284   9.342  1.00  0.00     0.085 C 
HETATM   26  C9  UNL     1      31.920  48.759   8.422  1.00  0.00     0.025 C 
HETATM   27  C10 UNL     1      32.598  49.788   7.614  1.00  0.00     0.002 C 
HETATM   28  C11 UNL     1      32.422  51.201   8.001  1.00  0.00     0.005 C 
HETATM   29  C12 UNL     1      32.880  51.541   9.409  1.00  0.00    -0.005 C 
HETATM   30  C15 UNL     1      31.760  51.336  10.395  1.00  0.00     0.007 C 
HETATM   31  C16 UNL     1      31.371  49.914  10.590  1.00  0.00     0.025 C 
BRANCH  29  32
HETATM   32  C13 UNL     1      34.164  50.882   9.747  1.00  0.00     0.117 C 
BRANCH  32  33
HETATM   33  C14 UNL     1      34.863  51.358  10.954  1.00  0.00     0.172 C 
HETATM   34  O3  UNL     1      35.514  50.523  11.691  1.00  0.00    -0.648 OA
HETATM   35  O4  UNL     1      34.914  52.654  11.419  1.00  0.00    -0.648 OA
ENDBRANCH  32  33
ENDBRANCH  29  32
ENDBRANCH  23  25
ENDBRANCH  20  21
ENDBRANCH  19  20
ENDBRANCH   1  19
BRANCH   2  36
HETATM   36  O1  UNL     1      26.453  47.642   5.946  1.00  0.00    -0.288 OA
ATOM     37  H1  UNL     1      26.402  48.545   6.239  1.00  0.00     0.244 HD
ENDBRANCH   2  36
TORSDOF 12
ENDMDL
MODEL 5
REMARK VINA RESULT: -8.456119990      2.219      2.937
REMARK  12 active torsions:
REMARK  status: ('A' for Active; 'I' for Inactive)
REMARK    1  A    between atoms: C2_2  and  N2_6 
REMARK       I    between atoms: C3_8  and  N4_10 
REMARK    2  A    between atoms: N4_10  and  C4_12 
REMARK    3  A    between atoms: C4_12  and  C5_13 
REMARK    4  A    between atoms: C5_13  and  N5_14 
REMARK    5  A    between atoms: N5_14  and  C6_16 
REMARK    6  A    between atoms: C6_16  and  S1_21 
REMARK    7  A    between atoms: N6_17  and  O1_19 
REMARK    8  A    between atoms: S1_21  and  S2_22 
REMARK    9  A    between atoms: S2_22  and  C7_23 
REMARK       I    between atoms: C7_23  and  N7_25 
REMARK   10  A    between atoms: N7_25  and  C8_27 
REMARK   11  A    between atoms: C12_31  and  C13_32 
REMARK   12  A    between atoms: C13_32  and  C14_33 
ROOT
HETATM    1  C6  UNL     1      27.994  46.607   7.656  1.00  0.00     0.171 C 
HETATM    2  N6  UNL     1      26.866  46.886   7.138  1.00  0.00    -0.247 N 
ATOM      3  H6  UNL     1      26.025  46.562   7.616  1.00  0.00     0.196 HD
ENDROOT
BRANCH   1   4
HETATM    4  N5  UNL     1      27.991  45.851   8.885  1.00  0.00    -0.367 N 
ATOM      5  H5  UNL     1      27.463  44.982   8.960  1.00  0.00     0.161 HD
BRANCH   4   6
HETATM    6  C5  UNL     1      28.759  46.355  10.015  1.00  0.00     0.141 C 
BRANCH   6   7
HETATM    7  C4  UNL     1      28.058  45.968  11.303  1.00  0.00     0.142 C 
BRANCH   7   8
HETATM    8  N4  UNL     1      28.638  44.731  11.827  1.00  0.00    -0.363 N 
HETATM    9  C3  UNL     1      27.984  44.153  12.936  1.00  0.00     0.189 C 
HETATM   10  N2  UNL     1      27.872  44.811  14.019  1.00  0.00    -0.321 N 
HETATM   11  N3  UNL     1      27.459  42.848  12.834  1.00  0.00    -0.064 NA
ATOM     12  H2  UNL     1      28.275  45.748  14.020  1.00  0.00     0.169 HD
ATOM     13  H4  UNL     1      29.470  44.309  11.413  1.00  0.00     0.162 HD
BRANCH  10  14
HETATM   14  C2  UNL     1      27.262  44.399  15.210  1.00  0.00     0.072 C 
HETATM   15  C1  UNL     1      26.161  45.258  15.752  1.00  0.00     0.088 C 
HETATM   16  N1  UNL     1      27.578  43.350  15.857  1.00  0.00    -0.389 N 
ATOM     17  H12 UNL     1      27.134  43.049  16.724  1.00  0.00     0.157 HD
ATOM     18  H11 UNL     1      28.328  42.765  15.488  1.00  0.00     0.157 HD
ENDBRANCH  10  14
ENDBRANCH   7   8
ENDBRANCH   6   7
ENDBRANCH   4   6
ENDBRANCH   1   4
BRANCH   1  19
HETATM   19  S1  UNL     1      29.502  47.130   6.896  1.00  0.00    -0.010 SA
BRANCH  19  20
HETATM   20  S2  UNL     1      29.795  49.190   7.298  1.00  0.00     0.012 SA
BRANCH  20  21
HETATM   21  C7  UNL     1      31.343  49.352   8.173  1.00  0.00     0.291 C 
HETATM   22  O2  UNL     1      31.881  48.394   8.792  1.00  0.00    -0.260 OA
HETATM   23  N7  UNL     1      32.003  50.611   8.175  1.00  0.00    -0.347 N 
ATOM     24  H7  UNL     1      31.585  51.400   7.681  1.00  0.00     0.163 HD
BRANCH  23  25
HETATM   25  C8  UNL     1      33.262  50.787   8.872  1.00  0.00     0.085 C 
HETATM   26  C9  UNL     1      32.927  51.309  10.254  1.00  0.00     0.025 C 
HETATM   27  C10 UNL     1      34.007  51.168  11.246  1.00  0.00     0.002 C 
HETATM   28  C11 UNL     1      35.366  50.871  10.755  1.00  0.00     0.005 C 
HETATM   29  C12 UNL     1      35.940  51.900   9.796  1.00  0.00    -0.005 C 
HETATM   30  C15 UNL     1      35.566  51.568   8.376  1.00  0.00     0.007 C 
HETATM   31  C16 UNL     1      34.118  51.718   8.074  1.00  0.00     0.025 C 
BRANCH  29  32
HETATM   32  C13 UNL     1      35.645  53.286  10.232  1.00  0.00     0.117 C 
BRANCH  32  33
HETATM   33  C14 UNL     1      36.484  53.841  11.308  1.00  0.00     0.172 C 
HETATM   34  O3  UNL     1      37.747  53.581  11.338  1.00  0.00    -0.648 OA
HETATM   35  O4  UNL     1      36.067  54.650  12.343  1.00  0.00    -0.648 OA
ENDBRANCH  32  33
ENDBRANCH  29  32
ENDBRANCH  23  25
ENDBRANCH  20  21
ENDBRANCH  19  20
ENDBRANCH   1  19
BRANCH   2  36
HETATM   36  O1  UNL     1      26.716  47.591   5.983  1.00  0.00    -0.288 OA
ATOM     37  H1  UNL     1      26.618  48.535   5.950  1.00  0.00     0.244 HD
ENDBRANCH   2  36
TORSDOF 12
ENDMDL
