MODEL 1
REMARK VINA RESULT: -8.811935859      0.000      0.000
REMARK  8 active torsions:
REMARK  status: ('A' for Active; 'I' for Inactive)
REMARK    1  A    between atoms: N2_6  and  N3_8 
REMARK    2  A    between atoms: C4_11  and  S1_12 
REMARK    3  A    between atoms: S1_12  and  C5_13 
REMARK    4  A    between atoms: C5_13  and  C6_14 
REMARK    5  A    between atoms: C6_14  and  C7_15 
REMARK    6  A    between atoms: C8_16  and  S2_17 
REMARK    7  A    between atoms: S2_17  and  C9_18 
REMARK    8  A    between atoms: C15_26  and  N5_27 
ROOT
HETATM    1  C6  UNL     1      30.122  47.666   5.292  1.00  0.00     0.057 C 
ENDROOT
BRANCH   1   2
HETATM    2  C5  UNL     1      30.873  46.640   4.524  1.00  0.00     0.081 C 
BRANCH   2   3
HETATM    3  S1  UNL     1      30.225  44.983   4.559  1.00  0.00    -0.128 SA
BRANCH   3   4
HETATM    4  C4  UNL     1      29.592  44.399   2.977  1.00  0.00     0.316 C 
HETATM    5  C3  UNL     1      28.158  44.053   3.032  1.00  0.00     0.133 C 
HETATM    6  N1  UNL     1      27.842  42.825   3.723  1.00  0.00    -0.370 N 
HETATM    7  N2  UNL     1      27.207  44.751   2.521  1.00  0.00    -0.293 N 
HETATM    8  C2  UNL     1      28.977  41.925   3.891  1.00  0.00     0.114 C 
ATOM      9  H1  UNL     1      26.906  42.606   4.063  1.00  0.00     0.161 HD
HETATM   10  C1  UNL     1      28.456  40.523   3.975  1.00  0.00     0.034 C 
HETATM   11  C17 UNL     1      29.870  42.019   2.674  1.00  0.00     0.140 C 
HETATM   12  N7  UNL     1      30.409  43.324   2.465  1.00  0.00    -0.045 N 
HETATM   13  C18 UNL     1      29.168  41.455   1.455  1.00  0.00     0.048 C 
HETATM   14  C19 UNL     1      31.057  41.085   2.951  1.00  0.00     0.048 C 
ATOM     15  H72 UNL     1      30.610  43.470   1.475  1.00  0.00     0.280 HD
ATOM     16  H71 UNL     1      31.354  43.384   2.846  1.00  0.00     0.280 HD
ATOM     17  H2  UNL     1      26.256  44.399   2.628  1.00  0.00     0.187 HD
BRANCH   7  18
HETATM   18  N3  UNL     1      27.374  45.952   1.832  1.00  0.00    -0.344 N 
ATOM     19  H32 UNL     1      27.588  45.876   0.837  1.00  0.00     0.176 HD
ATOM     20  H31 UNL     1      27.297  46.881   2.243  1.00  0.00     0.176 HD
ENDBRANCH   7  18
ENDBRANCH   3   4
ENDBRANCH   2   3
ENDBRANCH   1   2
BRANCH   1  21
HETATM   21  C7  UNL     1      29.081  47.159   6.197  1.00  0.00     0.045 A 
HETATM   22  C8  UNL     1      29.363  46.841   7.536  1.00  0.00     0.098 A 
HETATM   23  N4  UNL     1      28.401  46.376   8.351  1.00  0.00    -0.185 N 
HETATM   24  C15 UNL     1      27.139  46.201   7.903  1.00  0.00     0.679 A 
ATOM     25  H4  UNL     1      28.628  46.151   9.320  1.00  0.00     0.185 HD
HETATM   26  N6  UNL     1      26.855  46.500   6.625  1.00  0.00    -0.156 N 
HETATM   27  C16 UNL     1      27.789  46.970   5.769  1.00  0.00     0.268 A 
ATOM     28  H6  UNL     1      25.901  46.368   6.289  1.00  0.00     0.187 HD
HETATM   29  O1  UNL     1      27.431  47.227   4.568  1.00  0.00    -0.267 OA
BRANCH  22  30
HETATM   30  S2  UNL     1      31.046  47.088   8.077  1.00  0.00    -0.106 SA
BRANCH  30  31
HETATM   31  C9  UNL     1      31.243  48.761   8.727  1.00  0.00     0.054 C 
HETATM   32  C10 UNL     1      29.958  49.393   9.165  1.00  0.00     0.015 C 
HETATM   33  C11 UNL     1      30.315  50.432  10.213  1.00  0.00     0.001 C 
HETATM   34  C12 UNL     1      31.631  51.105   9.822  1.00  0.00     0.000 C 
HETATM   35  C13 UNL     1      31.801  51.090   8.318  1.00  0.00     0.001 C 
HETATM   36  C14 UNL     1      31.941  49.687   7.760  1.00  0.00     0.015 C 
ENDBRANCH  30  31
ENDBRANCH  22  30
BRANCH  24  37
HETATM   37  N5  UNL     1      26.210  45.754   8.679  1.00  0.00    -0.234 N 
ATOM     38  H52 UNL     1      25.893  44.789   8.588  1.00  0.00     0.174 HD
ATOM     39  H51 UNL     1      25.781  46.350   9.388  1.00  0.00     0.174 HD
ENDBRANCH  24  37
ENDBRANCH   1  21
TORSDOF 8
ENDMDL
MODEL 2
REMARK VINA RESULT: -8.639281046      1.508      2.680
REMARK  8 active torsions:
REMARK  status: ('A' for Active; 'I' for Inactive)
REMARK    1  A    between atoms: N2_6  and  N3_8 
REMARK    2  A    between atoms: C4_11  and  S1_12 
REMARK    3  A    between atoms: S1_12  and  C5_13 
REMARK    4  A    between atoms: C5_13  and  C6_14 
REMARK    5  A    between atoms: C6_14  and  C7_15 
REMARK    6  A    between atoms: C8_16  and  S2_17 
REMARK    7  A    between atoms: S2_17  and  C9_18 
REMARK    8  A    between atoms: C15_26  and  N5_27 
ROOT
HETATM    1  C6  UNL     1      28.127  47.153   5.808  1.00  0.00     0.057 C 
ENDROOT
BRANCH   1   2
HETATM    2  C5  UNL     1      27.983  46.114   4.757  1.00  0.00     0.081 C 
BRANCH   2   3
HETATM    3  S1  UNL     1      28.934  44.624   4.971  1.00  0.00    -0.128 SA
BRANCH   3   4
HETATM    4  C4  UNL     1      28.511  43.301   3.825  1.00  0.00     0.316 C 
HETATM    5  C3  UNL     1      29.599  42.315   3.669  1.00  0.00     0.133 C 
HETATM    6  N1  UNL     1      30.731  42.760   2.891  1.00  0.00    -0.370 N 
HETATM    7  N2  UNL     1      29.600  41.129   4.163  1.00  0.00    -0.293 N 
HETATM    8  C2  UNL     1      30.461  43.921   2.052  1.00  0.00     0.114 C 
ATOM      9  H1  UNL     1      31.641  42.301   2.926  1.00  0.00     0.161 HD
HETATM   10  C1  UNL     1      31.387  43.876   0.875  1.00  0.00     0.034 C 
HETATM   11  C17 UNL     1      29.043  43.839   1.532  1.00  0.00     0.140 C 
HETATM   12  N7  UNL     1      28.058  43.842   2.565  1.00  0.00    -0.045 N 
HETATM   13  C18 UNL     1      28.898  42.681   0.565  1.00  0.00     0.048 C 
HETATM   14  C19 UNL     1      28.825  45.114   0.703  1.00  0.00     0.048 C 
ATOM     15  H72 UNL     1      27.215  43.360   2.253  1.00  0.00     0.280 HD
ATOM     16  H71 UNL     1      27.684  44.782   2.696  1.00  0.00     0.280 HD
ATOM     17  H2  UNL     1      30.416  40.544   3.979  1.00  0.00     0.187 HD
BRANCH   7  18
HETATM   18  N3  UNL     1      28.575  40.577   4.930  1.00  0.00    -0.344 N 
ATOM     19  H32 UNL     1      27.909  41.235   5.336  1.00  0.00     0.176 HD
ATOM     20  H31 UNL     1      28.446  39.582   5.110  1.00  0.00     0.176 HD
ENDBRANCH   7  18
ENDBRANCH   3   4
ENDBRANCH   2   3
ENDBRANCH   1   2
BRANCH   1  21
HETATM   21  C7  UNL     1      27.882  46.712   7.188  1.00  0.00     0.045 A 
HETATM   22  C8  UNL     1      28.900  46.728   8.156  1.00  0.00     0.098 A 
HETATM   23  N4  UNL     1      28.661  46.319   9.414  1.00  0.00    -0.185 N 
HETATM   24  C15 UNL     1      27.436  45.882   9.779  1.00  0.00     0.679 A 
ATOM     25  H4  UNL     1      29.415  46.339  10.101  1.00  0.00     0.185 HD
HETATM   26  N6  UNL     1      26.454  45.861   8.864  1.00  0.00    -0.156 N 
HETATM   27  C16 UNL     1      26.646  46.262   7.588  1.00  0.00     0.268 A 
ATOM     28  H6  UNL     1      25.529  45.531   9.143  1.00  0.00     0.187 HD
HETATM   29  O1  UNL     1      25.654  46.207   6.782  1.00  0.00    -0.267 OA
BRANCH  22  30
HETATM   30  S2  UNL     1      30.500  47.313   7.622  1.00  0.00    -0.106 SA
BRANCH  30  31
HETATM   31  C9  UNL     1      30.929  48.825   8.509  1.00  0.00     0.054 C 
HETATM   32  C10 UNL     1      29.741  49.594   9.001  1.00  0.00     0.015 C 
HETATM   33  C11 UNL     1      30.208  50.406  10.195  1.00  0.00     0.001 C 
HETATM   34  C12 UNL     1      31.631  50.900   9.938  1.00  0.00     0.000 C 
HETATM   35  C13 UNL     1      31.869  51.064   8.452  1.00  0.00     0.001 C 
HETATM   36  C14 UNL     1      31.810  49.747   7.703  1.00  0.00     0.015 C 
ENDBRANCH  30  31
ENDBRANCH  22  30
BRANCH  24  37
HETATM   37  N5  UNL     1      27.199  45.487  10.984  1.00  0.00    -0.234 N 
ATOM     38  H52 UNL     1      27.420  46.098  11.771  1.00  0.00     0.174 HD
ATOM     39  H51 UNL     1      26.791  44.571  11.170  1.00  0.00     0.174 HD
ENDBRANCH  24  37
ENDBRANCH   1  21
TORSDOF 8
ENDMDL
MODEL 3
REMARK VINA RESULT: -8.623895968      1.197      1.515
REMARK  8 active torsions:
REMARK  status: ('A' for Active; 'I' for Inactive)
REMARK    1  A    between atoms: N2_6  and  N3_8 
REMARK    2  A    between atoms: C4_11  and  S1_12 
REMARK    3  A    between atoms: S1_12  and  C5_13 
REMARK    4  A    between atoms: C5_13  and  C6_14 
REMARK    5  A    between atoms: C6_14  and  C7_15 
REMARK    6  A    between atoms: C8_16  and  S2_17 
REMARK    7  A    between atoms: S2_17  and  C9_18 
REMARK    8  A    between atoms: C15_26  and  N5_27 
ROOT
HETATM    1  C6  UNL     1      28.594  46.579   6.445  1.00  0.00     0.057 C 
ENDROOT
BRANCH   1   2
HETATM    2  C5  UNL     1      28.642  45.329   5.646  1.00  0.00     0.081 C 
BRANCH   2   3
HETATM    3  S1  UNL     1      29.976  45.180   4.475  1.00  0.00    -0.128 SA
BRANCH   3   4
HETATM    4  C4  UNL     1      29.477  44.583   2.852  1.00  0.00     0.316 C 
HETATM    5  C3  UNL     1      28.060  44.166   2.810  1.00  0.00     0.133 C 
HETATM    6  N1  UNL     1      27.762  42.917   3.470  1.00  0.00    -0.370 N 
HETATM    7  N2  UNL     1      27.112  44.822   2.242  1.00  0.00    -0.293 N 
HETATM    8  C2  UNL     1      28.926  42.073   3.706  1.00  0.00     0.114 C 
ATOM      9  H1  UNL     1      26.817  42.650   3.746  1.00  0.00     0.161 HD
HETATM   10  C1  UNL     1      28.472  40.646   3.745  1.00  0.00     0.034 C 
HETATM   11  C17 UNL     1      29.892  42.223   2.551  1.00  0.00     0.140 C 
HETATM   12  N7  UNL     1      30.378  43.555   2.387  1.00  0.00    -0.045 N 
HETATM   13  C18 UNL     1      29.299  41.638   1.284  1.00  0.00     0.048 C 
HETATM   14  C19 UNL     1      31.102  41.345   2.899  1.00  0.00     0.048 C 
ATOM     15  H72 UNL     1      30.635  43.721   1.414  1.00  0.00     0.280 HD
ATOM     16  H71 UNL     1      31.291  43.656   2.829  1.00  0.00     0.280 HD
ATOM     17  H2  UNL     1      26.174  44.423   2.284  1.00  0.00     0.187 HD
BRANCH   7  18
HETATM   18  N3  UNL     1      27.263  46.037   1.574  1.00  0.00    -0.344 N 
ATOM     19  H32 UNL     1      26.645  46.794   1.866  1.00  0.00     0.176 HD
ATOM     20  H31 UNL     1      27.935  46.217   0.828  1.00  0.00     0.176 HD
ENDBRANCH   7  18
ENDBRANCH   3   4
ENDBRANCH   2   3
ENDBRANCH   1   2
BRANCH   1  21
HETATM   21  C7  UNL     1      28.152  46.435   7.839  1.00  0.00     0.045 A 
HETATM   22  C8  UNL     1      29.048  46.580   8.912  1.00  0.00     0.098 A 
HETATM   23  N4  UNL     1      28.630  46.443  10.182  1.00  0.00    -0.185 N 
HETATM   24  C15 UNL     1      27.338  46.162  10.460  1.00  0.00     0.679 A 
ATOM     25  H4  UNL     1      29.298  46.551  10.946  1.00  0.00     0.185 HD
HETATM   26  N6  UNL     1      26.471  46.022   9.445  1.00  0.00    -0.156 N 
HETATM   27  C16 UNL     1      26.844  46.150   8.152  1.00  0.00     0.268 A 
ATOM     28  H6  UNL     1      25.496  45.810   9.657  1.00  0.00     0.187 HD
HETATM   29  O1  UNL     1      25.952  45.998   7.248  1.00  0.00    -0.267 OA
BRANCH  22  30
HETATM   30  S2  UNL     1      30.744  46.947   8.492  1.00  0.00    -0.106 SA
BRANCH  30  31
HETATM   31  C9  UNL     1      31.112  48.672   8.879  1.00  0.00     0.054 C 
HETATM   32  C10 UNL     1      29.934  49.439   9.396  1.00  0.00     0.015 C 
HETATM   33  C11 UNL     1      30.487  50.575  10.238  1.00  0.00     0.001 C 
HETATM   34  C12 UNL     1      31.765  51.103   9.588  1.00  0.00     0.000 C 
HETATM   35  C13 UNL     1      31.719  50.888   8.090  1.00  0.00     0.001 C 
HETATM   36  C14 UNL     1      31.710  49.419   7.712  1.00  0.00     0.015 C 
ENDBRANCH  30  31
ENDBRANCH  22  30
BRANCH  24  37
HETATM   37  N5  UNL     1      26.929  46.029  11.676  1.00  0.00    -0.234 N 
ATOM     38  H52 UNL     1      26.083  45.493  11.871  1.00  0.00     0.174 HD
ATOM     39  H51 UNL     1      27.437  46.450  12.454  1.00  0.00     0.174 HD
ENDBRANCH  24  37
ENDBRANCH   1  21
TORSDOF 8
ENDMDL
MODEL 4
REMARK VINA RESULT: -8.576285521      1.521      2.047
REMARK  8 active torsions:
REMARK  status: ('A' for Active; 'I' for Inactive)
REMARK    1  A    between atoms: N2_6  and  N3_8 
REMARK    2  A    between atoms: C4_11  and  S1_12 
REMARK    3  A    between atoms: S1_12  and  C5_13 
REMARK    4  A    between atoms: C5_13  and  C6_14 
REMARK    5  A    between atoms: C6_14  and  C7_15 
REMARK    6  A    between atoms: C8_16  and  S2_17 
REMARK    7  A    between atoms: S2_17  and  C9_18 
REMARK    8  A    between atoms: C15_26  and  N5_27 
ROOT
HETATM    1  C6  UNL     1      28.472  46.524   6.030  1.00  0.00     0.057 C 
ENDROOT
BRANCH   1   2
HETATM    2  C5  UNL     1      28.738  45.234   5.344  1.00  0.00     0.081 C 
BRANCH   2   3
HETATM    3  S1  UNL     1      29.338  45.329   3.670  1.00  0.00    -0.128 SA
BRANCH   3   4
HETATM    4  C4  UNL     1      28.564  44.163   2.537  1.00  0.00     0.316 C 
HETATM    5  C3  UNL     1      28.062  42.954   3.220  1.00  0.00     0.133 C 
HETATM    6  N1  UNL     1      29.074  42.017   3.647  1.00  0.00    -0.370 N 
HETATM    7  N2  UNL     1      26.825  42.692   3.449  1.00  0.00    -0.293 N 
HETATM    8  C2  UNL     1      30.365  42.192   2.992  1.00  0.00     0.114 C 
ATOM      9  H1  UNL     1      28.901  41.296   4.347  1.00  0.00     0.161 HD
HETATM   10  C1  UNL     1      31.067  40.870   2.978  1.00  0.00     0.034 C 
HETATM   11  C17 UNL     1      30.141  42.618   1.558  1.00  0.00     0.140 C 
HETATM   12  N7  UNL     1      29.447  43.859   1.435  1.00  0.00    -0.045 N 
HETATM   13  C18 UNL     1      29.507  41.492   0.764  1.00  0.00     0.048 C 
HETATM   14  C19 UNL     1      31.539  42.825   0.959  1.00  0.00     0.048 C 
ATOM     15  H72 UNL     1      28.939  43.895   0.552  1.00  0.00     0.280 HD
ATOM     16  H71 UNL     1      30.108  44.622   1.289  1.00  0.00     0.280 HD
ATOM     17  H2  UNL     1      26.610  41.819   3.930  1.00  0.00     0.187 HD
BRANCH   7  18
HETATM   18  N3  UNL     1      25.752  43.508   3.091  1.00  0.00    -0.344 N 
ATOM     19  H32 UNL     1      24.840  43.054   3.026  1.00  0.00     0.176 HD
ATOM     20  H31 UNL     1      25.813  44.506   2.893  1.00  0.00     0.176 HD
ENDBRANCH   7  18
ENDBRANCH   3   4
ENDBRANCH   2   3
ENDBRANCH   1   2
BRANCH   1  21
HETATM   21  C7  UNL     1      28.039  46.431   7.431  1.00  0.00     0.045 A 
HETATM   22  C8  UNL     1      28.934  46.644   8.493  1.00  0.00     0.098 A 
HETATM   23  N4  UNL     1      28.524  46.553   9.769  1.00  0.00    -0.185 N 
HETATM   24  C15 UNL     1      27.240  46.254  10.064  1.00  0.00     0.679 A 
ATOM     25  H4  UNL     1      29.191  46.710  10.525  1.00  0.00     0.185 HD
HETATM   26  N6  UNL     1      26.373  46.048   9.060  1.00  0.00    -0.156 N 
HETATM   27  C16 UNL     1      26.739  46.128   7.761  1.00  0.00     0.268 A 
ATOM     28  H6  UNL     1      25.404  45.823   9.285  1.00  0.00     0.187 HD
HETATM   29  O1  UNL     1      25.848  45.915   6.869  1.00  0.00    -0.267 OA
BRANCH  22  30
HETATM   30  S2  UNL     1      30.619  47.033   8.049  1.00  0.00    -0.106 SA
BRANCH  30  31
HETATM   31  C9  UNL     1      31.067  48.656   8.703  1.00  0.00     0.054 C 
HETATM   32  C10 UNL     1      31.983  49.434   7.810  1.00  0.00     0.015 C 
HETATM   33  C11 UNL     1      31.760  50.902   8.127  1.00  0.00     0.001 C 
HETATM   34  C12 UNL     1      31.522  51.059   9.628  1.00  0.00     0.000 C 
HETATM   35  C13 UNL     1      32.231  49.960  10.390  1.00  0.00     0.001 C 
HETATM   36  C14 UNL     1      31.672  48.584  10.084  1.00  0.00     0.015 C 
ENDBRANCH  30  31
ENDBRANCH  22  30
BRANCH  24  37
HETATM   37  N5  UNL     1      26.838  46.164  11.287  1.00  0.00    -0.234 N 
ATOM     38  H52 UNL     1      25.876  46.409  11.524  1.00  0.00     0.174 HD
ATOM     39  H51 UNL     1      27.465  45.850  12.028  1.00  0.00     0.174 HD
ENDBRANCH  24  37
ENDBRANCH   1  21
TORSDOF 8
ENDMDL
MODEL 5
REMARK VINA RESULT: -8.496876699      5.828      8.893
REMARK  8 active torsions:
REMARK  status: ('A' for Active; 'I' for Inactive)
REMARK    1  A    between atoms: N2_6  and  N3_8 
REMARK    2  A    between atoms: C4_11  and  S1_12 
REMARK    3  A    between atoms: S1_12  and  C5_13 
REMARK    4  A    between atoms: C5_13  and  C6_14 
REMARK    5  A    between atoms: C6_14  and  C7_15 
REMARK    6  A    between atoms: C8_16  and  S2_17 
REMARK    7  A    between atoms: S2_17  and  C9_18 
REMARK    8  A    between atoms: C15_26  and  N5_27 
ROOT
HETATM    1  C6  UNL     1      34.586  50.835   8.311  1.00  0.00     0.057 C 
ENDROOT
BRANCH   1   2
HETATM    2  C5  UNL     1      33.274  51.042   7.648  1.00  0.00     0.081 C 
BRANCH   2   3
HETATM    3  S1  UNL     1      32.217  49.617   7.506  1.00  0.00    -0.128 SA
BRANCH   3   4
HETATM    4  C4  UNL     1      30.603  49.808   8.280  1.00  0.00     0.316 C 
HETATM    5  C3  UNL     1      30.504  49.097   9.571  1.00  0.00     0.133 C 
HETATM    6  N1  UNL     1      30.400  47.660   9.482  1.00  0.00    -0.370 N 
HETATM    7  N2  UNL     1      30.505  49.658  10.728  1.00  0.00    -0.293 N 
HETATM    8  C2  UNL     1      29.996  47.171   8.169  1.00  0.00     0.114 C 
ATOM      9  H1  UNL     1      30.592  47.041  10.269  1.00  0.00     0.161 HD
HETATM   10  C1  UNL     1      29.299  45.858   8.351  1.00  0.00     0.034 C 
HETATM   11  C17 UNL     1      29.011  48.142   7.558  1.00  0.00     0.140 C 
HETATM   12  N7  UNL     1      29.549  49.449   7.361  1.00  0.00    -0.045 N 
HETATM   13  C18 UNL     1      27.710  48.137   8.337  1.00  0.00     0.048 C 
HETATM   14  C19 UNL     1      28.676  47.582   6.168  1.00  0.00     0.048 C 
ATOM     15  H72 UNL     1      28.804  50.146   7.384  1.00  0.00     0.280 HD
ATOM     16  H71 UNL     1      29.864  49.561   6.397  1.00  0.00     0.280 HD
ATOM     17  H2  UNL     1      30.429  49.052  11.544  1.00  0.00     0.187 HD
BRANCH   7  18
HETATM   18  N3  UNL     1      30.600  51.031  10.954  1.00  0.00    -0.344 N 
ATOM     19  H32 UNL     1      31.530  51.390  11.172  1.00  0.00     0.176 HD
ATOM     20  H31 UNL     1      29.821  51.688  10.919  1.00  0.00     0.176 HD
ENDBRANCH   7  18
ENDBRANCH   3   4
ENDBRANCH   2   3
ENDBRANCH   1   2
BRANCH   1  21
HETATM   21  C7  UNL     1      34.954  51.823   9.334  1.00  0.00     0.045 A 
HETATM   22  C8  UNL     1      35.952  52.784   9.103  1.00  0.00     0.098 A 
HETATM   23  N4  UNL     1      36.279  53.680  10.050  1.00  0.00    -0.185 N 
HETATM   24  C15 UNL     1      35.657  53.679  11.249  1.00  0.00     0.679 A 
ATOM     25  H4  UNL     1      37.008  54.369   9.861  1.00  0.00     0.185 HD
HETATM   26  N6  UNL     1      34.701  52.766  11.484  1.00  0.00    -0.156 N 
HETATM   27  C16 UNL     1      34.338  51.846  10.563  1.00  0.00     0.268 A 
ATOM     28  H6  UNL     1      34.232  52.768  12.390  1.00  0.00     0.187 HD
HETATM   29  O1  UNL     1      33.418  51.012  10.873  1.00  0.00    -0.267 OA
BRANCH  22  30
HETATM   30  S2  UNL     1      36.745  52.741   7.504  1.00  0.00    -0.106 SA
BRANCH  30  31
HETATM   31  C9  UNL     1      36.773  54.399   6.788  1.00  0.00     0.054 C 
HETATM   32  C10 UNL     1      36.023  54.511   5.497  1.00  0.00     0.015 C 
HETATM   33  C11 UNL     1      35.597  55.962   5.362  1.00  0.00     0.001 C 
HETATM   34  C12 UNL     1      36.705  56.861   5.909  1.00  0.00     0.000 C 
HETATM   35  C13 UNL     1      38.052  56.187   5.754  1.00  0.00     0.001 C 
HETATM   36  C14 UNL     1      38.173  54.927   6.589  1.00  0.00     0.015 C 
ENDBRANCH  30  31
ENDBRANCH  22  30
BRANCH  24  37
HETATM   37  N5  UNL     1      35.965  54.535  12.163  1.00  0.00    -0.234 N 
ATOM     38  H52 UNL     1      36.695  54.313  12.841  1.00  0.00     0.174 HD
ATOM     39  H51 UNL     1      35.493  55.437  12.225  1.00  0.00     0.174 HD
ENDBRANCH  24  37
ENDBRANCH   1  21
TORSDOF 8
ENDMDL
