MODEL 1
REMARK VINA RESULT: -9.067378107      0.000      0.000
REMARK  11 active torsions:
REMARK  status: ('A' for Active; 'I' for Inactive)
REMARK    1  A    between atoms: C2_2  and  C3_3 
REMARK    2  A    between atoms: C3_3  and  O1_4 
REMARK    3  A    between atoms: C3_3  and  N1_6 
REMARK    4  A    between atoms: N1_6  and  C4_8 
REMARK    5  A    between atoms: C5_11  and  N3_12 
REMARK    6  A    between atoms: N3_12  and  C6_14 
REMARK    7  A    between atoms: N4_17  and  C9_18 
REMARK    8  A    between atoms: C9_18  and  C10_19 
REMARK    9  A    between atoms: C10_19  and  O2_20 
REMARK   10  A    between atoms: C13_26  and  N6_27 
REMARK   11  A    between atoms: C15_33  and  C16_34 
ROOT
HETATM    1  C4  UNL     1      31.660  49.044   8.419  1.00  0.00     0.148 C 
HETATM    2  N2  UNL     1      30.700  48.202   8.827  1.00  0.00    -0.175 N 
ATOM      3  H2  UNL     1      30.775  47.254   8.461  1.00  0.00     0.186 HD
HETATM    4  C5  UNL     1      29.622  48.420   9.667  1.00  0.00     0.681 C 
HETATM    5  N5  UNL     1      29.570  49.300  10.670  1.00  0.00    -0.175 N 
ATOM      6  H5  UNL     1      28.736  49.240  11.255  1.00  0.00     0.186 HD
HETATM    7  C13 UNL     1      30.465  50.273  11.035  1.00  0.00     0.144 C 
HETATM    8  C14 UNL     1      31.673  50.560  10.433  1.00  0.00     0.109 A 
HETATM    9  N7  UNL     1      32.567  51.458  10.900  1.00  0.00    -0.341 N 
ATOM     10  H7  UNL     1      32.451  52.020  11.743  1.00  0.00     0.167 HD
HETATM   11  C15 UNL     1      33.632  51.496  10.083  1.00  0.00     0.086 A 
HETATM   12  N8  UNL     1      33.390  50.613   9.104  1.00  0.00    -0.341 N 
ATOM     13  H8  UNL     1      34.024  50.419   8.330  1.00  0.00     0.167 HD
HETATM   14  C22 UNL     1      32.207  50.021   9.278  1.00  0.00     0.109 A 
ENDROOT
BRANCH   4  15
HETATM   15  N3  UNL     1      28.613  47.707   9.440  1.00  0.00    -0.221 N 
ATOM     16  H3  UNL     1      27.825  48.185   9.003  1.00  0.00     0.178 HD
BRANCH  15  17
HETATM   17  C6  UNL     1      28.421  46.324   9.710  1.00  0.00     0.102 C 
HETATM   18  C7  UNL     1      27.063  46.089  10.361  1.00  0.00     0.056 C 
HETATM   19  C8  UNL     1      27.272  44.933  11.354  1.00  0.00     0.274 C 
HETATM   20  N4  UNL     1      27.968  45.509  12.484  1.00  0.00     0.090 N 
HETATM   21  C11 UNL     1      29.242  45.985  12.054  1.00  0.00     0.274 C 
HETATM   22  C12 UNL     1      29.525  45.767  10.609  1.00  0.00     0.056 C 
BRANCH  20  23
HETATM   23  C9  UNL     1      28.008  44.684  13.647  1.00  0.00     0.298 C 
BRANCH  23  24
HETATM   24  C10 UNL     1      27.629  43.272  13.266  1.00  0.00     0.194 C 
BRANCH  24  25
HETATM   25  O2  UNL     1      26.534  42.841  14.024  1.00  0.00    -0.399 OA
ATOM     26  H2  UNL     1      26.451  41.896  13.975  1.00  0.00     0.209 HD
ENDBRANCH  24  25
ENDBRANCH  23  24
ENDBRANCH  20  23
ENDBRANCH  15  17
ENDBRANCH   4  15
BRANCH   1  27
HETATM   27  N1  UNL     1      32.124  49.019   7.252  1.00  0.00    -0.348 N 
ATOM     28  H1  UNL     1      32.238  49.959   6.875  1.00  0.00     0.163 HD
BRANCH  27  29
HETATM   29  C3  UNL     1      32.523  48.048   6.335  1.00  0.00     0.218 C 
BRANCH  29  30
HETATM   30  C2  UNL     1      34.059  47.969   6.364  1.00  0.00     0.049 C 
HETATM   31  C1  UNL     1      34.518  46.549   6.227  1.00  0.00     0.009 C 
ENDBRANCH  29  30
BRANCH  29  32
HETATM   32  O1  UNL     1      31.941  46.811   6.543  1.00  0.00    -0.377 OA
ATOM     33  H1  UNL     1      31.019  46.887   6.763  1.00  0.00     0.212 HD
ENDBRANCH  29  32
ENDBRANCH  27  29
ENDBRANCH   1  27
BRANCH   7  34
HETATM   34  N6  UNL     1      30.123  50.973  12.042  1.00  0.00    -0.383 N 
ATOM     35  H62 UNL     1      29.422  50.586  12.674  1.00  0.00     0.157 HD
ATOM     36  H61 UNL     1      30.591  51.875  12.122  1.00  0.00     0.157 HD
ENDBRANCH   7  34
BRANCH  11  37
HETATM   37  C16 UNL     1      34.846  52.365  10.255  1.00  0.00     0.053 C 
HETATM   38  C17 UNL     1      34.640  53.422  11.300  1.00  0.00     0.012 C 
HETATM   39  C18 UNL     1      35.994  54.073  11.545  1.00  0.00     0.001 C 
HETATM   40  C19 UNL     1      36.872  53.097  12.281  1.00  0.00     0.000 C 
HETATM   41  C20 UNL     1      36.435  51.679  12.040  1.00  0.00     0.001 C 
HETATM   42  C21 UNL     1      36.046  51.512  10.601  1.00  0.00     0.012 C 
ENDBRANCH  11  37
TORSDOF 11
ENDMDL
MODEL 2
REMARK VINA RESULT: -8.937028082      3.766      5.861
REMARK  11 active torsions:
REMARK  status: ('A' for Active; 'I' for Inactive)
REMARK    1  A    between atoms: C2_2  and  C3_3 
REMARK    2  A    between atoms: C3_3  and  O1_4 
REMARK    3  A    between atoms: C3_3  and  N1_6 
REMARK    4  A    between atoms: N1_6  and  C4_8 
REMARK    5  A    between atoms: C5_11  and  N3_12 
REMARK    6  A    between atoms: N3_12  and  C6_14 
REMARK    7  A    between atoms: N4_17  and  C9_18 
REMARK    8  A    between atoms: C9_18  and  C10_19 
REMARK    9  A    between atoms: C10_19  and  O2_20 
REMARK   10  A    between atoms: C13_26  and  N6_27 
REMARK   11  A    between atoms: C15_33  and  C16_34 
ROOT
HETATM    1  C4  UNL     1      34.768  52.523  10.457  1.00  0.00     0.148 C 
HETATM    2  N2  UNL     1      33.624  51.825  10.499  1.00  0.00    -0.175 N 
ATOM      3  H2  UNL     1      32.925  52.184  11.149  1.00  0.00     0.186 HD
HETATM    4  C5  UNL     1      33.245  50.693   9.800  1.00  0.00     0.681 C 
HETATM    5  N5  UNL     1      33.657  50.347   8.577  1.00  0.00    -0.175 N 
ATOM      6  H5  UNL     1      33.182  49.539   8.174  1.00  0.00     0.186 HD
HETATM    7  C13 UNL     1      34.622  50.910   7.781  1.00  0.00     0.144 C 
HETATM    8  C14 UNL     1      35.400  52.011   8.072  1.00  0.00     0.109 A 
HETATM    9  N7  UNL     1      36.260  52.591   7.206  1.00  0.00    -0.341 N 
ATOM     10  H7  UNL     1      36.429  52.282   6.249  1.00  0.00     0.167 HD
HETATM   11  C15 UNL     1      36.857  53.637   7.799  1.00  0.00     0.086 A 
HETATM   12  N8  UNL     1      36.360  53.700   9.043  1.00  0.00    -0.341 N 
ATOM     13  H8  UNL     1      36.626  54.398   9.737  1.00  0.00     0.167 HD
HETATM   14  C22 UNL     1      35.469  52.729   9.251  1.00  0.00     0.109 A 
ENDROOT
BRANCH   4  15
HETATM   15  N3  UNL     1      32.435  49.940  10.396  1.00  0.00    -0.221 N 
ATOM     16  H3  UNL     1      32.740  49.598  11.308  1.00  0.00     0.178 HD
BRANCH  15  17
HETATM   17  C6  UNL     1      31.151  49.500   9.972  1.00  0.00     0.102 C 
HETATM   18  C7  UNL     1      30.127  49.685  11.086  1.00  0.00     0.056 C 
HETATM   19  C8  UNL     1      29.153  48.501  10.956  1.00  0.00     0.274 C 
HETATM   20  N4  UNL     1      29.858  47.354  11.485  1.00  0.00     0.090 N 
HETATM   21  C11 UNL     1      31.006  47.100  10.677  1.00  0.00     0.274 C 
HETATM   22  C12 UNL     1      31.174  48.037   9.532  1.00  0.00     0.056 C 
BRANCH  20  23
HETATM   23  C9  UNL     1      29.042  46.210  11.729  1.00  0.00     0.298 C 
BRANCH  23  24
HETATM   24  C10 UNL     1      27.736  46.365  10.984  1.00  0.00     0.194 C 
BRANCH  24  25
HETATM   25  O2  UNL     1      27.115  45.120  10.829  1.00  0.00    -0.399 OA
ATOM     26  H2  UNL     1      26.233  45.145  11.182  1.00  0.00     0.209 HD
ENDBRANCH  24  25
ENDBRANCH  23  24
ENDBRANCH  20  23
ENDBRANCH  15  17
ENDBRANCH   4  15
BRANCH   1  27
HETATM   27  N1  UNL     1      35.285  53.026  11.485  1.00  0.00    -0.348 N 
ATOM     28  H1  UNL     1      34.769  53.847  11.800  1.00  0.00     0.163 HD
BRANCH  27  29
HETATM   29  C3  UNL     1      36.377  52.760  12.311  1.00  0.00     0.218 C 
BRANCH  29  30
HETATM   30  C2  UNL     1      37.326  53.969  12.249  1.00  0.00     0.049 C 
HETATM   31  C1  UNL     1      38.736  53.522  12.007  1.00  0.00     0.009 C 
ENDBRANCH  29  30
BRANCH  29  32
HETATM   32  O1  UNL     1      36.029  52.445  13.611  1.00  0.00    -0.377 OA
ATOM     33  H1  UNL     1      36.159  51.523  13.798  1.00  0.00     0.212 HD
ENDBRANCH  29  32
ENDBRANCH  27  29
ENDBRANCH   1  27
BRANCH   7  34
HETATM   34  N6  UNL     1      34.798  50.337   6.659  1.00  0.00    -0.383 N 
ATOM     35  H62 UNL     1      33.972  50.097   6.111  1.00  0.00     0.157 HD
ATOM     36  H61 UNL     1      35.772  50.168   6.408  1.00  0.00     0.157 HD
ENDBRANCH   7  34
BRANCH  11  37
HETATM   37  C16 UNL     1      37.878  54.543   7.173  1.00  0.00     0.053 C 
HETATM   38  C17 UNL     1      38.699  53.836   6.134  1.00  0.00     0.012 C 
HETATM   39  C18 UNL     1      39.520  54.899   5.419  1.00  0.00     0.001 C 
HETATM   40  C19 UNL     1      38.598  55.721   4.557  1.00  0.00     0.000 C 
HETATM   41  C20 UNL     1      37.187  55.677   5.071  1.00  0.00     0.001 C 
HETATM   42  C21 UNL     1      37.195  55.750   6.569  1.00  0.00     0.012 C 
ENDBRANCH  11  37
TORSDOF 11
ENDMDL
MODEL 3
REMARK VINA RESULT: -8.867226649      2.102      3.734
REMARK  11 active torsions:
REMARK  status: ('A' for Active; 'I' for Inactive)
REMARK    1  A    between atoms: C2_2  and  C3_3 
REMARK    2  A    between atoms: C3_3  and  O1_4 
REMARK    3  A    between atoms: C3_3  and  N1_6 
REMARK    4  A    between atoms: N1_6  and  C4_8 
REMARK    5  A    between atoms: C5_11  and  N3_12 
REMARK    6  A    between atoms: N3_12  and  C6_14 
REMARK    7  A    between atoms: N4_17  and  C9_18 
REMARK    8  A    between atoms: C9_18  and  C10_19 
REMARK    9  A    between atoms: C10_19  and  O2_20 
REMARK   10  A    between atoms: C13_26  and  N6_27 
REMARK   11  A    between atoms: C15_33  and  C16_34 
ROOT
HETATM    1  C4  UNL     1      30.539  50.173   8.783  1.00  0.00     0.148 C 
HETATM    2  N2  UNL     1      29.717  49.758   7.809  1.00  0.00    -0.175 N 
ATOM      3  H2  UNL     1      28.832  50.261   7.749  1.00  0.00     0.186 HD
HETATM    4  C5  UNL     1      29.882  48.753   6.872  1.00  0.00     0.681 C 
HETATM    5  N5  UNL     1      31.042  48.336   6.359  1.00  0.00    -0.175 N 
ATOM      6  H5  UNL     1      30.960  47.665   5.595  1.00  0.00     0.186 HD
HETATM    7  C13 UNL     1      32.328  48.671   6.702  1.00  0.00     0.144 C 
HETATM    8  C14 UNL     1      32.721  49.560   7.680  1.00  0.00     0.109 A 
HETATM    9  N7  UNL     1      33.999  49.936   7.903  1.00  0.00    -0.341 N 
ATOM     10  H7  UNL     1      34.810  49.608   7.377  1.00  0.00     0.167 HD
HETATM   11  C15 UNL     1      34.039  50.808   8.923  1.00  0.00     0.086 A 
HETATM   12  N8  UNL     1      32.772  50.969   9.331  1.00  0.00    -0.341 N 
ATOM     13  H8  UNL     1      32.485  51.578  10.098  1.00  0.00     0.167 HD
HETATM   14  C22 UNL     1      31.937  50.227   8.602  1.00  0.00     0.109 A 
ENDROOT
BRANCH   4  15
HETATM   15  N3  UNL     1      28.821  48.200   6.487  1.00  0.00    -0.221 N 
ATOM     16  H3  UNL     1      28.496  48.469   5.558  1.00  0.00     0.178 HD
BRANCH  15  17
HETATM   17  C6  UNL     1      28.013  47.250   7.171  1.00  0.00     0.102 C 
HETATM   18  C7  UNL     1      27.727  47.717   8.594  1.00  0.00     0.056 C 
HETATM   19  C8  UNL     1      27.692  46.440   9.451  1.00  0.00     0.274 C 
HETATM   20  N4  UNL     1      29.073  46.043   9.617  1.00  0.00     0.090 N 
HETATM   21  C11 UNL     1      29.624  45.727   8.340  1.00  0.00     0.274 C 
HETATM   22  C12 UNL     1      28.671  45.872   7.205  1.00  0.00     0.056 C 
BRANCH  20  23
HETATM   23  C9  UNL     1      29.295  45.050  10.617  1.00  0.00     0.298 C 
BRANCH  23  24
HETATM   24  C10 UNL     1      28.108  45.016  11.552  1.00  0.00     0.194 C 
BRANCH  24  25
HETATM   25  O2  UNL     1      28.255  43.984  12.486  1.00  0.00    -0.399 OA
ATOM     26  H2  UNL     1      27.462  43.463  12.531  1.00  0.00     0.209 HD
ENDBRANCH  24  25
ENDBRANCH  23  24
ENDBRANCH  20  23
ENDBRANCH  15  17
ENDBRANCH   4  15
BRANCH   1  27
HETATM   27  N1  UNL     1      30.118  50.531   9.910  1.00  0.00    -0.348 N 
ATOM     28  H1  UNL     1      29.915  51.530   9.934  1.00  0.00     0.163 HD
BRANCH  27  29
HETATM   29  C3  UNL     1      29.852  49.925  11.137  1.00  0.00     0.218 C 
BRANCH  29  30
HETATM   30  C2  UNL     1      30.710  48.652  11.236  1.00  0.00     0.049 C 
HETATM   31  C1  UNL     1      30.325  47.847  12.440  1.00  0.00     0.009 C 
ENDBRANCH  29  30
BRANCH  29  32
HETATM   32  O1  UNL     1      30.041  50.758  12.224  1.00  0.00    -0.377 OA
ATOM     33  H1  UNL     1      29.716  51.635  12.058  1.00  0.00     0.212 HD
ENDBRANCH  29  32
ENDBRANCH  27  29
ENDBRANCH   1  27
BRANCH   7  34
HETATM   34  N6  UNL     1      33.236  48.087   6.029  1.00  0.00    -0.383 N 
ATOM     35  H62 UNL     1      34.206  48.341   6.216  1.00  0.00     0.157 HD
ATOM     36  H61 UNL     1      32.900  47.406   5.349  1.00  0.00     0.157 HD
ENDBRANCH   7  34
BRANCH  11  37
HETATM   37  C16 UNL     1      35.272  51.462   9.479  1.00  0.00     0.053 C 
HETATM   38  C17 UNL     1      35.596  52.746   8.773  1.00  0.00     0.012 C 
HETATM   39  C18 UNL     1      36.706  53.421   9.567  1.00  0.00     0.001 C 
HETATM   40  C19 UNL     1      36.131  53.932  10.861  1.00  0.00     0.000 C 
HETATM   41  C20 UNL     1      34.899  53.165  11.252  1.00  0.00     0.001 C 
HETATM   42  C21 UNL     1      35.102  51.707  10.962  1.00  0.00     0.012 C 
ENDBRANCH  11  37
TORSDOF 11
ENDMDL
MODEL 4
REMARK VINA RESULT: -8.853160636      2.871      4.426
REMARK  11 active torsions:
REMARK  status: ('A' for Active; 'I' for Inactive)
REMARK    1  A    between atoms: C2_2  and  C3_3 
REMARK    2  A    between atoms: C3_3  and  O1_4 
REMARK    3  A    between atoms: C3_3  and  N1_6 
REMARK    4  A    between atoms: N1_6  and  C4_8 
REMARK    5  A    between atoms: C5_11  and  N3_12 
REMARK    6  A    between atoms: N3_12  and  C6_14 
REMARK    7  A    between atoms: N4_17  and  C9_18 
REMARK    8  A    between atoms: C9_18  and  C10_19 
REMARK    9  A    between atoms: C10_19  and  O2_20 
REMARK   10  A    between atoms: C13_26  and  N6_27 
REMARK   11  A    between atoms: C15_33  and  C16_34 
ROOT
HETATM    1  C4  UNL     1      33.201  50.481   9.644  1.00  0.00     0.148 C 
HETATM    2  N2  UNL     1      32.127  49.689   9.771  1.00  0.00    -0.175 N 
ATOM      3  H2  UNL     1      31.434  50.008  10.449  1.00  0.00     0.186 HD
HETATM    4  C5  UNL     1      31.810  48.507   9.125  1.00  0.00     0.681 C 
HETATM    5  N5  UNL     1      32.184  48.158   7.891  1.00  0.00    -0.175 N 
ATOM      6  H5  UNL     1      31.760  47.300   7.538  1.00  0.00     0.186 HD
HETATM    7  C13 UNL     1      33.051  48.776   7.026  1.00  0.00     0.144 C 
HETATM    8  C14 UNL     1      33.745  49.949   7.242  1.00  0.00     0.109 A 
HETATM    9  N7  UNL     1      34.502  50.572   6.313  1.00  0.00    -0.341 N 
ATOM     10  H7  UNL     1      34.645  50.247   5.356  1.00  0.00     0.167 HD
HETATM   11  C15 UNL     1      35.037  51.683   6.842  1.00  0.00     0.086 A 
HETATM   12  N8  UNL     1      34.604  51.744   8.109  1.00  0.00    -0.341 N 
ATOM     13  H8  UNL     1      34.846  52.485   8.768  1.00  0.00     0.167 HD
HETATM   14  C22 UNL     1      33.814  50.707   8.395  1.00  0.00     0.109 A 
ENDROOT
BRANCH   4  15
HETATM   15  N3  UNL     1      31.103  47.707   9.787  1.00  0.00    -0.221 N 
ATOM     16  H3  UNL     1      31.500  47.398  10.675  1.00  0.00     0.178 HD
BRANCH  15  17
HETATM   17  C6  UNL     1      29.823  47.175   9.467  1.00  0.00     0.102 C 
HETATM   18  C7  UNL     1      28.732  47.894  10.251  1.00  0.00     0.056 C 
HETATM   19  C8  UNL     1      27.671  46.825  10.563  1.00  0.00     0.274 C 
HETATM   20  N4  UNL     1      28.226  46.023  11.631  1.00  0.00     0.090 N 
HETATM   21  C11 UNL     1      29.409  45.377  11.163  1.00  0.00     0.274 C 
HETATM   22  C12 UNL     1      29.752  45.674   9.745  1.00  0.00     0.056 C 
BRANCH  20  23
HETATM   23  C9  UNL     1      27.295  45.154  12.274  1.00  0.00     0.298 C 
BRANCH  23  24
HETATM   24  C10 UNL     1      28.039  43.977  12.860  1.00  0.00     0.194 C 
BRANCH  24  25
HETATM   25  O2  UNL     1      27.257  42.819  12.780  1.00  0.00    -0.399 OA
ATOM     26  H2  UNL     1      27.207  42.516  11.881  1.00  0.00     0.209 HD
ENDBRANCH  24  25
ENDBRANCH  23  24
ENDBRANCH  20  23
ENDBRANCH  15  17
ENDBRANCH   4  15
BRANCH   1  27
HETATM   27  N1  UNL     1      33.727  51.060  10.627  1.00  0.00    -0.348 N 
ATOM     28  H1  UNL     1      33.024  51.383  11.291  1.00  0.00     0.163 HD
BRANCH  27  29
HETATM   29  C3  UNL     1      35.016  51.377  11.051  1.00  0.00     0.218 C 
BRANCH  29  30
HETATM   30  C2  UNL     1      35.016  52.841  11.523  1.00  0.00     0.049 C 
HETATM   31  C1  UNL     1      36.010  53.649  10.743  1.00  0.00     0.009 C 
ENDBRANCH  29  30
BRANCH  29  32
HETATM   32  O1  UNL     1      35.511  50.525  12.021  1.00  0.00    -0.377 OA
ATOM     33  H1  UNL     1      34.814  50.079  12.487  1.00  0.00     0.212 HD
ENDBRANCH  29  32
ENDBRANCH  27  29
ENDBRANCH   1  27
BRANCH   7  34
HETATM   34  N6  UNL     1      33.216  48.184   5.912  1.00  0.00    -0.383 N 
ATOM     35  H62 UNL     1      32.453  47.604   5.563  1.00  0.00     0.157 HD
ATOM     36  H61 UNL     1      34.116  48.349   5.463  1.00  0.00     0.157 HD
ENDBRANCH   7  34
BRANCH  11  37
HETATM   37  C16 UNL     1      35.939  52.653   6.133  1.00  0.00     0.053 C 
HETATM   38  C17 UNL     1      36.689  53.531   7.093  1.00  0.00     0.012 C 
HETATM   39  C18 UNL     1      37.726  54.293   6.279  1.00  0.00     0.001 C 
HETATM   40  C19 UNL     1      38.804  53.333   5.853  1.00  0.00     0.000 C 
HETATM   41  C20 UNL     1      38.293  51.920   5.814  1.00  0.00     0.001 C 
HETATM   42  C21 UNL     1      36.906  51.903   5.244  1.00  0.00     0.012 C 
ENDBRANCH  11  37
TORSDOF 11
ENDMDL
MODEL 5
REMARK VINA RESULT: -8.760101651      3.546      5.526
REMARK  11 active torsions:
REMARK  status: ('A' for Active; 'I' for Inactive)
REMARK    1  A    between atoms: C2_2  and  C3_3 
REMARK    2  A    between atoms: C3_3  and  O1_4 
REMARK    3  A    between atoms: C3_3  and  N1_6 
REMARK    4  A    between atoms: N1_6  and  C4_8 
REMARK    5  A    between atoms: C5_11  and  N3_12 
REMARK    6  A    between atoms: N3_12  and  C6_14 
REMARK    7  A    between atoms: N4_17  and  C9_18 
REMARK    8  A    between atoms: C9_18  and  C10_19 
REMARK    9  A    between atoms: C10_19  and  O2_20 
REMARK   10  A    between atoms: C13_26  and  N6_27 
REMARK   11  A    between atoms: C15_33  and  C16_34 
ROOT
HETATM    1  C4  UNL     1      30.804  49.529   7.997  1.00  0.00     0.148 C 
HETATM    2  N2  UNL     1      30.349  48.926   6.889  1.00  0.00    -0.175 N 
ATOM      3  H2  UNL     1      29.396  49.174   6.625  1.00  0.00     0.186 HD
HETATM    4  C5  UNL     1      30.970  48.018   6.049  1.00  0.00     0.681 C 
HETATM    5  N5  UNL     1      32.282  47.937   5.809  1.00  0.00    -0.175 N 
ATOM      6  H5  UNL     1      32.546  47.282   5.072  1.00  0.00     0.186 HD
HETATM    7  C13 UNL     1      33.328  48.598   6.401  1.00  0.00     0.144 C 
HETATM    8  C14 UNL     1      33.254  49.541   7.404  1.00  0.00     0.109 A 
HETATM    9  N7  UNL     1      34.308  50.242   7.875  1.00  0.00    -0.341 N 
ATOM     10  H7  UNL     1      35.269  50.153   7.545  1.00  0.00     0.167 HD
HETATM   11  C15 UNL     1      33.896  51.075   8.845  1.00  0.00     0.086 A 
HETATM   12  N8  UNL     1      32.575  50.884   8.970  1.00  0.00    -0.341 N 
ATOM     13  H8  UNL     1      31.980  51.379   9.634  1.00  0.00     0.167 HD
HETATM   14  C22 UNL     1      32.143  49.958   8.112  1.00  0.00     0.109 A 
ENDROOT
BRANCH   4  15
HETATM   15  N3  UNL     1      30.202  47.209   5.473  1.00  0.00    -0.221 N 
ATOM     16  H3  UNL     1      29.654  47.593   4.703  1.00  0.00     0.178 HD
BRANCH  15  17
HETATM   17  C6  UNL     1      29.994  45.829   5.748  1.00  0.00     0.102 C 
HETATM   18  C7  UNL     1      30.602  44.965   4.649  1.00  0.00     0.056 C 
HETATM   19  C8  UNL     1      29.665  43.754   4.505  1.00  0.00     0.274 C 
HETATM   20  N4  UNL     1      28.502  44.241   3.794  1.00  0.00     0.090 N 
HETATM   21  C11 UNL     1      27.855  45.236   4.585  1.00  0.00     0.274 C 
HETATM   22  C12 UNL     1      28.508  45.503   5.896  1.00  0.00     0.056 C 
BRANCH  20  23
HETATM   23  C9  UNL     1      27.635  43.224   3.298  1.00  0.00     0.298 C 
BRANCH  23  24
HETATM   24  C10 UNL     1      28.417  41.941   3.134  1.00  0.00     0.194 C 
BRANCH  24  25
HETATM   25  O2  UNL     1      27.721  40.870   3.705  1.00  0.00    -0.399 OA
ATOM     26  H2  UNL     1      28.268  40.094   3.726  1.00  0.00     0.209 HD
ENDBRANCH  24  25
ENDBRANCH  23  24
ENDBRANCH  20  23
ENDBRANCH  15  17
ENDBRANCH   4  15
BRANCH   1  27
HETATM   27  N1  UNL     1      30.072  49.740   8.995  1.00  0.00    -0.348 N 
ATOM     28  H1  UNL     1      30.117  50.714   9.292  1.00  0.00     0.163 HD
BRANCH  27  29
HETATM   29  C3  UNL     1      29.214  48.997   9.804  1.00  0.00     0.218 C 
BRANCH  29  30
HETATM   30  C2  UNL     1      29.818  48.944  11.217  1.00  0.00     0.049 C 
HETATM   31  C1  UNL     1      30.291  50.302  11.642  1.00  0.00     0.009 C 
ENDBRANCH  29  30
BRANCH  29  32
HETATM   32  O1  UNL     1      27.914  49.467   9.818  1.00  0.00    -0.377 OA
ATOM     33  H1  UNL     1      27.674  49.869   8.991  1.00  0.00     0.212 HD
ENDBRANCH  29  32
ENDBRANCH  27  29
ENDBRANCH   1  27
BRANCH   7  34
HETATM   34  N6  UNL     1      34.481  48.290   5.958  1.00  0.00    -0.383 N 
ATOM     35  H62 UNL     1      34.990  47.544   6.431  1.00  0.00     0.157 HD
ATOM     36  H61 UNL     1      34.794  48.833   5.154  1.00  0.00     0.157 HD
ENDBRANCH   7  34
BRANCH  11  37
HETATM   37  C16 UNL     1      34.763  52.025   9.620  1.00  0.00     0.053 C 
HETATM   38  C17 UNL     1      34.020  52.671  10.752  1.00  0.00     0.012 C 
HETATM   39  C18 UNL     1      35.049  53.416  11.591  1.00  0.00     0.001 C 
HETATM   40  C19 UNL     1      35.891  52.408  12.328  1.00  0.00     0.000 C 
HETATM   41  C20 UNL     1      35.897  51.081  11.622  1.00  0.00     0.001 C 
HETATM   42  C21 UNL     1      35.985  51.301  10.141  1.00  0.00     0.012 C 
ENDBRANCH  11  37
TORSDOF 11
ENDMDL
