MODEL 1
REMARK VINA RESULT: -5.044142609      0.000      0.000
REMARK  3 active torsions:
REMARK  status: ('A' for Active; 'I' for Inactive)
REMARK    1  A    between atoms: C3_3  and  O1_4 
REMARK    2  A    between atoms: C7_10  and  C8_11 
REMARK    3  A    between atoms: C8_11  and  O3_14 
ROOT
HETATM    1  C1  UNL     1       3.578   6.533 -23.257  1.00  0.00     0.016 C 
HETATM    2  C2  UNL     1       2.396   6.888 -22.368  1.00  0.00     0.058 C 
HETATM    3  C3  UNL     1       2.112   5.948 -21.293  1.00  0.00     0.159 C 
HETATM    4  C4  UNL     1       3.047   5.606 -20.229  1.00  0.00     0.083 C 
HETATM    5  C5  UNL     1       4.343   4.948 -20.740  1.00  0.00     0.048 C 
HETATM    6  C6  UNL     1       2.411   4.362 -19.533  1.00  0.00     0.048 C 
HETATM    7  O2  UNL     1       3.368   6.394 -19.234  1.00  0.00    -0.339 OA
HETATM    8  C7  UNL     1       3.094   7.632 -18.948  1.00  0.00     0.201 C 
HETATM    9  C11 UNL     1       4.414   8.361 -18.646  1.00  0.00     0.109 C 
HETATM   10  C12 UNL     1       4.996   9.058 -19.826  1.00  0.00     0.062 C 
HETATM   11  C13 UNL     1       6.406   8.483 -20.046  1.00  0.00     0.046 C 
HETATM   12  C14 UNL     1       5.268  10.530 -19.512  1.00  0.00     0.046 C 
HETATM   13  O4  UNL     1       4.305   8.859 -20.973  1.00  0.00    -0.342 OA
HETATM   14  C15 UNL     1       2.928   8.914 -20.898  1.00  0.00     0.201 C 
HETATM   15  C16 UNL     1       2.589  10.419 -20.943  1.00  0.00     0.083 C 
HETATM   16  O5  UNL     1       2.364   8.415 -19.780  1.00  0.00    -0.313 OA
HETATM   17  C17 UNL     1       2.286   8.344 -22.104  1.00  0.00     0.161 C 
HETATM   18  C18 UNL     1       2.874   9.094 -23.310  1.00  0.00     0.058 C 
HETATM   19  F1  UNL     1       0.934   8.729 -22.052  1.00  0.00    -0.237 F 
ENDROOT
BRANCH   8  20
HETATM   20  C8  UNL     1       2.386   7.683 -17.575  1.00  0.00     0.107 C 
HETATM   21  C9  UNL     1       2.535   6.437 -16.788  1.00  0.00     0.051 C 
HETATM   22  C10 UNL     1       0.937   8.033 -17.688  1.00  0.00     0.051 C 
BRANCH  20  23
HETATM   23  O3  UNL     1       3.057   8.713 -16.874  1.00  0.00    -0.385 OA
ATOM     24  H3  UNL     1       2.637   8.729 -16.022  1.00  0.00     0.210 HD
ENDBRANCH  20  23
ENDBRANCH   8  20
BRANCH   3  25
HETATM   25  O1  UNL     1       1.757   4.712 -21.914  1.00  0.00    -0.392 OA
ATOM     26  H1  UNL     1       2.568   4.306 -22.196  1.00  0.00     0.210 HD
ENDBRANCH   3  25
TORSDOF 3
ENDMDL
MODEL 2
REMARK VINA RESULT: -4.992518563      1.927      3.495
REMARK  3 active torsions:
REMARK  status: ('A' for Active; 'I' for Inactive)
REMARK    1  A    between atoms: C3_3  and  O1_4 
REMARK    2  A    between atoms: C7_10  and  C8_11 
REMARK    3  A    between atoms: C8_11  and  O3_14 
ROOT
HETATM    1  C1  UNL     1       4.475  10.004 -22.604  1.00  0.00     0.016 C 
HETATM    2  C2  UNL     1       4.043  10.479 -21.225  1.00  0.00     0.058 C 
HETATM    3  C3  UNL     1       2.651  10.226 -20.879  1.00  0.00     0.159 C 
HETATM    4  C4  UNL     1       2.045   8.902 -20.816  1.00  0.00     0.083 C 
HETATM    5  C5  UNL     1       2.060   8.157 -22.165  1.00  0.00     0.048 C 
HETATM    6  C6  UNL     1       0.512   9.177 -20.718  1.00  0.00     0.048 C 
HETATM    7  O2  UNL     1       2.269   8.021 -19.875  1.00  0.00    -0.339 OA
HETATM    8  C7  UNL     1       3.087   7.977 -18.865  1.00  0.00     0.201 C 
HETATM    9  C11 UNL     1       3.846   6.640 -18.917  1.00  0.00     0.109 C 
HETATM   10  C12 UNL     1       5.158   6.724 -19.615  1.00  0.00     0.062 C 
HETATM   11  C13 UNL     1       5.120   5.719 -20.779  1.00  0.00     0.046 C 
HETATM   12  C14 UNL     1       6.283   6.186 -18.730  1.00  0.00     0.046 C 
HETATM   13  O4  UNL     1       5.415   7.940 -20.152  1.00  0.00    -0.342 OA
HETATM   14  C15 UNL     1       5.101   9.047 -19.388  1.00  0.00     0.201 C 
HETATM   15  C16 UNL     1       6.294   9.210 -18.422  1.00  0.00     0.083 C 
HETATM   16  O5  UNL     1       3.990   8.962 -18.632  1.00  0.00    -0.313 OA
HETATM   17  C17 UNL     1       5.092  10.289 -20.193  1.00  0.00     0.161 C 
HETATM   18  C18 UNL     1       6.462  10.376 -20.882  1.00  0.00     0.058 C 
HETATM   19  F1  UNL     1       5.070  11.355 -19.274  1.00  0.00    -0.237 F 
ENDROOT
BRANCH   8  20
HETATM   20  C8  UNL     1       2.268   7.824 -17.565  1.00  0.00     0.107 C 
HETATM   21  C9  UNL     1       2.219   6.432 -17.058  1.00  0.00     0.051 C 
HETATM   22  C10 UNL     1       0.877   8.358 -17.693  1.00  0.00     0.051 C 
BRANCH  20  23
HETATM   23  O3  UNL     1       2.973   8.599 -16.614  1.00  0.00    -0.385 OA
ATOM     24  H3  UNL     1       3.044   8.032 -15.855  1.00  0.00     0.210 HD
ENDBRANCH  20  23
ENDBRANCH   8  20
BRANCH   3  25
HETATM   25  O1  UNL     1       1.859  10.977 -21.800  1.00  0.00    -0.392 OA
ATOM     26  H1  UNL     1       1.186  11.410 -21.289  1.00  0.00     0.210 HD
ENDBRANCH   3  25
TORSDOF 3
ENDMDL
MODEL 3
REMARK VINA RESULT: -4.806767137      1.983      3.926
REMARK  3 active torsions:
REMARK  status: ('A' for Active; 'I' for Inactive)
REMARK    1  A    between atoms: C3_3  and  O1_4 
REMARK    2  A    between atoms: C7_10  and  C8_11 
REMARK    3  A    between atoms: C8_11  and  O3_14 
ROOT
HETATM    1  C1  UNL     1       4.564   6.184 -18.579  1.00  0.00     0.016 C 
HETATM    2  C2  UNL     1       3.995   6.296 -19.985  1.00  0.00     0.058 C 
HETATM    3  C3  UNL     1       2.616   6.756 -20.072  1.00  0.00     0.159 C 
HETATM    4  C4  UNL     1       2.145   8.044 -19.580  1.00  0.00     0.083 C 
HETATM    5  C5  UNL     1       2.325   8.223 -18.060  1.00  0.00     0.048 C 
HETATM    6  C6  UNL     1       0.589   7.933 -19.619  1.00  0.00     0.048 C 
HETATM    7  O2  UNL     1       2.393   9.197 -20.146  1.00  0.00    -0.339 OA
HETATM    8  C7  UNL     1       3.143   9.562 -21.144  1.00  0.00     0.201 C 
HETATM    9  C11 UNL     1       4.036  10.725 -20.678  1.00  0.00     0.109 C 
HETATM   10  C12 UNL     1       5.376  10.293 -20.196  1.00  0.00     0.062 C 
HETATM   11  C13 UNL     1       5.518  10.785 -18.744  1.00  0.00     0.046 C 
HETATM   12  C14 UNL     1       6.488  11.046 -20.926  1.00  0.00     0.046 C 
HETATM   13  O4  UNL     1       5.543   8.950 -20.174  1.00  0.00    -0.342 OA
HETATM   14  C15 UNL     1       5.069   8.238 -21.258  1.00  0.00     0.201 C 
HETATM   15  C16 UNL     1       6.172   8.368 -22.330  1.00  0.00     0.083 C 
HETATM   16  O5  UNL     1       3.923   8.678 -21.814  1.00  0.00    -0.313 OA
HETATM   17  C17 UNL     1       4.987   6.788 -20.973  1.00  0.00     0.161 C 
HETATM   18  C18 UNL     1       6.384   6.353 -20.505  1.00  0.00     0.058 C 
HETATM   19  F1  UNL     1       4.796   6.151 -22.213  1.00  0.00    -0.237 F 
ENDROOT
BRANCH   8  20
HETATM   20  C8  UNL     1       2.259  10.251 -22.207  1.00  0.00     0.107 C 
HETATM   21  C9  UNL     1       1.008  10.822 -21.655  1.00  0.00     0.051 C 
HETATM   22  C10 UNL     1       1.933   9.352 -23.356  1.00  0.00     0.051 C 
BRANCH  20  23
HETATM   23  O3  UNL     1       3.050  11.328 -22.675  1.00  0.00    -0.385 OA
ATOM     24  H3  UNL     1       2.418  11.968 -22.980  1.00  0.00     0.210 HD
ENDBRANCH  20  23
ENDBRANCH   8  20
BRANCH   3  25
HETATM   25  O1  UNL     1       1.815   5.770 -19.420  1.00  0.00    -0.392 OA
ATOM     26  H1  UNL     1       1.006   6.200 -19.169  1.00  0.00     0.210 HD
ENDBRANCH   3  25
TORSDOF 3
ENDMDL
MODEL 4
REMARK VINA RESULT: -4.801538243      1.940      4.393
REMARK  3 active torsions:
REMARK  status: ('A' for Active; 'I' for Inactive)
REMARK    1  A    between atoms: C3_3  and  O1_4 
REMARK    2  A    between atoms: C7_10  and  C8_11 
REMARK    3  A    between atoms: C8_11  and  O3_14 
ROOT
HETATM    1  C1  UNL     1       4.780   9.854 -17.980  1.00  0.00     0.016 C 
HETATM    2  C2  UNL     1       5.326   9.111 -19.191  1.00  0.00     0.058 C 
HETATM    3  C3  UNL     1       5.123   7.669 -19.189  1.00  0.00     0.159 C 
HETATM    4  C4  UNL     1       3.819   7.021 -19.147  1.00  0.00     0.083 C 
HETATM    5  C5  UNL     1       3.015   7.342 -17.873  1.00  0.00     0.048 C 
HETATM    6  C6  UNL     1       4.136   5.521 -18.852  1.00  0.00     0.048 C 
HETATM    7  O2  UNL     1       2.975   6.973 -20.146  1.00  0.00    -0.339 OA
HETATM    8  C7  UNL     1       2.955   7.515 -21.328  1.00  0.00     0.201 C 
HETATM    9  C11 UNL     1       1.599   8.216 -21.516  1.00  0.00     0.109 C 
HETATM   10  C12 UNL     1       1.620   9.662 -21.163  1.00  0.00     0.062 C 
HETATM   11  C13 UNL     1       0.565   9.878 -20.063  1.00  0.00     0.046 C 
HETATM   12  C14 UNL     1       1.093  10.513 -22.319  1.00  0.00     0.046 C 
HETATM   13  O4  UNL     1       2.804  10.086 -20.662  1.00  0.00    -0.342 OA
HETATM   14  C15 UNL     1       3.950   9.632 -21.284  1.00  0.00     0.201 C 
HETATM   15  C16 UNL     1       4.127  10.554 -22.509  1.00  0.00     0.083 C 
HETATM   16  O5  UNL     1       3.926   8.365 -21.743  1.00  0.00    -0.313 OA
HETATM   17  C17 UNL     1       5.155   9.865 -20.457  1.00  0.00     0.161 C 
HETATM   18  C18 UNL     1       5.178  11.365 -20.127  1.00  0.00     0.058 C 
HETATM   19  F1  UNL     1       6.261   9.654 -21.302  1.00  0.00    -0.237 F 
ENDROOT
BRANCH   8  20
HETATM   20  C8  UNL     1       2.879   6.395 -22.390  1.00  0.00     0.107 C 
HETATM   21  C9  UNL     1       2.140   5.196 -21.931  1.00  0.00     0.051 C 
HETATM   22  C10 UNL     1       4.226   5.989 -22.896  1.00  0.00     0.051 C 
BRANCH  20  23
HETATM   23  O3  UNL     1       2.142   6.970 -23.452  1.00  0.00    -0.385 OA
ATOM     24  H3  UNL     1       2.779   7.496 -23.922  1.00  0.00     0.210 HD
ENDBRANCH  20  23
ENDBRANCH   8  20
BRANCH   3  25
HETATM   25  O1  UNL     1       5.852   7.155 -18.073  1.00  0.00    -0.392 OA
ATOM     26  H1  UNL     1       5.935   7.869 -17.451  1.00  0.00     0.210 HD
ENDBRANCH   3  25
TORSDOF 3
ENDMDL
MODEL 5
REMARK VINA RESULT: -4.786935540      1.765      4.196
REMARK  3 active torsions:
REMARK  status: ('A' for Active; 'I' for Inactive)
REMARK    1  A    between atoms: C3_3  and  O1_4 
REMARK    2  A    between atoms: C7_10  and  C8_11 
REMARK    3  A    between atoms: C8_11  and  O3_14 
ROOT
HETATM    1  C1  UNL     1       1.791   6.079 -23.024  1.00  0.00     0.016 C 
HETATM    2  C2  UNL     1       3.232   6.194 -22.550  1.00  0.00     0.058 C 
HETATM    3  C3  UNL     1       3.873   7.480 -22.787  1.00  0.00     0.159 C 
HETATM    4  C4  UNL     1       3.400   8.748 -22.248  1.00  0.00     0.083 C 
HETATM    5  C5  UNL     1       1.988   9.131 -22.730  1.00  0.00     0.048 C 
HETATM    6  C6  UNL     1       4.214   9.831 -23.023  1.00  0.00     0.048 C 
HETATM    7  O2  UNL     1       3.503   9.113 -20.995  1.00  0.00    -0.339 OA
HETATM    8  C7  UNL     1       3.903   8.508 -19.916  1.00  0.00     0.201 C 
HETATM    9  C11 UNL     1       2.818   8.675 -18.839  1.00  0.00     0.109 C 
HETATM   10  C12 UNL     1       1.854   7.541 -18.779  1.00  0.00     0.062 C 
HETATM   11  C13 UNL     1       0.449   8.125 -19.009  1.00  0.00     0.046 C 
HETATM   12  C14 UNL     1       1.766   6.974 -17.362  1.00  0.00     0.046 C 
HETATM   13  O4  UNL     1       2.053   6.604 -19.736  1.00  0.00    -0.342 OA
HETATM   14  C15 UNL     1       3.358   6.234 -19.994  1.00  0.00     0.201 C 
HETATM   15  C16 UNL     1       3.700   5.202 -18.899  1.00  0.00     0.083 C 
HETATM   16  O5  UNL     1       4.286   7.207 -19.924  1.00  0.00    -0.313 OA
HETATM   17  C17 UNL     1       3.478   5.488 -21.268  1.00  0.00     0.161 C 
HETATM   18  C18 UNL     1       2.500   4.306 -21.178  1.00  0.00     0.058 C 
HETATM   19  F1  UNL     1       4.760   4.910 -21.268  1.00  0.00    -0.237 F 
ENDROOT
BRANCH   8  20
HETATM   20  C8  UNL     1       5.078   9.301 -19.304  1.00  0.00     0.107 C 
HETATM   21  C9  UNL     1       4.979  10.764 -19.520  1.00  0.00     0.051 C 
HETATM   22  C10 UNL     1       6.410   8.815 -19.777  1.00  0.00     0.051 C 
BRANCH  20  23
HETATM   23  O3  UNL     1       4.970   9.068 -17.912  1.00  0.00    -0.385 OA
ATOM     24  H3  UNL     1       4.036   8.989 -17.759  1.00  0.00     0.210 HD
ENDBRANCH  20  23
ENDBRANCH   8  20
BRANCH   3  25
HETATM   25  O1  UNL     1       3.929   7.653 -24.204  1.00  0.00    -0.392 OA
ATOM     26  H1  UNL     1       4.393   8.466 -24.360  1.00  0.00     0.210 HD
ENDBRANCH   3  25
TORSDOF 3
ENDMDL
