MODEL 1
REMARK VINA RESULT: -7.671015338      0.000      0.000
REMARK  3 active torsions:
REMARK  status: ('A' for Active; 'I' for Inactive)
REMARK    1  A    between atoms: C4_4  and  C5_5 
REMARK    2  A    between atoms: C7_8  and  O2_9 
REMARK    3  A    between atoms: C14_20  and  O5_21 
ROOT
HETATM    1  C1  UNL     1      -4.102   5.155 -15.218  1.00  0.00     0.020 C 
HETATM    2  C2  UNL     1      -5.066   5.675 -16.227  1.00  0.00     0.071 C 
HETATM    3  C3  UNL     1      -4.374   6.446 -17.323  1.00  0.00    -0.006 C 
HETATM    4  C4  UNL     1      -4.600   7.732 -17.242  1.00  0.00    -0.008 C 
HETATM    5  C9  UNL     1      -5.491   8.007 -16.064  1.00  0.00     0.145 C 
HETATM    6  C10 UNL     1      -4.706   8.688 -14.998  1.00  0.00     0.057 C 
HETATM    7  O3  UNL     1      -6.592   8.760 -16.421  1.00  0.00    -0.335 OA
HETATM    8  C11 UNL     1      -7.672   7.904 -16.537  1.00  0.00     0.162 C 
HETATM    9  C12 UNL     1      -8.395   8.261 -17.819  1.00  0.00     0.078 C 
HETATM   10  C13 UNL     1      -8.643   8.037 -15.389  1.00  0.00     0.078 C 
HETATM   11  O4  UNL     1      -7.185   6.619 -16.537  1.00  0.00    -0.316 OA
HETATM   12  C14 UNL     1      -6.040   6.670 -15.709  1.00  0.00     0.207 C 
ENDROOT
BRANCH   4  13
HETATM   13  C5  UNL     1      -4.089   8.761 -18.133  1.00  0.00     0.018 A 
HETATM   14  C6  UNL     1      -4.880   9.544 -19.001  1.00  0.00     0.158 A 
HETATM   15  O1  UNL     1      -4.119  10.375 -19.665  1.00  0.00    -0.298 OA
HETATM   16  C7  UNL     1      -2.872  10.240 -19.336  1.00  0.00     0.201 A 
HETATM   17  C8  UNL     1      -2.837   9.217 -18.364  1.00  0.00     0.082 A 
HETATM   18 BR1  UNL     1      -1.239   8.609 -17.531  1.00  0.00    -0.045 Br
BRANCH  16  19
HETATM   19  O2  UNL     1      -1.748  10.924 -19.803  1.00  0.00    -0.340 OA
ATOM     20  H2  UNL     1      -1.324  11.702 -19.459  1.00  0.00     0.220 HD
ENDBRANCH  16  19
ENDBRANCH   4  13
BRANCH  12  21
HETATM   21  O5  UNL     1      -6.360   6.523 -14.375  1.00  0.00    -0.362 OA
ATOM     22  H5  UNL     1      -6.503   5.626 -14.098  1.00  0.00     0.213 HD
ENDBRANCH  12  21
TORSDOF 3
ENDMDL
MODEL 2
REMARK VINA RESULT: -7.222485559      2.550      3.378
REMARK  3 active torsions:
REMARK  status: ('A' for Active; 'I' for Inactive)
REMARK    1  A    between atoms: C4_4  and  C5_5 
REMARK    2  A    between atoms: C7_8  and  O2_9 
REMARK    3  A    between atoms: C14_20  and  O5_21 
ROOT
HETATM    1  C1  UNL     1      -2.267   6.722 -17.165  1.00  0.00     0.020 C 
HETATM    2  C2  UNL     1      -3.690   6.293 -17.068  1.00  0.00     0.071 C 
HETATM    3  C3  UNL     1      -4.621   7.273 -17.734  1.00  0.00    -0.006 C 
HETATM    4  C4  UNL     1      -5.331   7.950 -16.868  1.00  0.00    -0.008 C 
HETATM    5  C9  UNL     1      -4.972   7.508 -15.478  1.00  0.00     0.145 C 
HETATM    6  C10 UNL     1      -4.212   8.592 -14.795  1.00  0.00     0.057 C 
HETATM    7  O3  UNL     1      -6.090   7.157 -14.749  1.00  0.00    -0.335 OA
HETATM    8  C11 UNL     1      -6.174   5.776 -14.740  1.00  0.00     0.162 C 
HETATM    9  C12 UNL     1      -7.614   5.410 -15.037  1.00  0.00     0.078 C 
HETATM   10  C13 UNL     1      -5.796   5.179 -13.407  1.00  0.00     0.078 C 
HETATM   11  O4  UNL     1      -5.297   5.301 -15.685  1.00  0.00    -0.316 OA
HETATM   12  C14 UNL     1      -4.233   6.233 -15.686  1.00  0.00     0.207 C 
ENDROOT
BRANCH   4  13
HETATM   13  C5  UNL     1      -6.321   8.972 -17.167  1.00  0.00     0.018 A 
HETATM   14  C6  UNL     1      -7.529   9.158 -16.459  1.00  0.00     0.158 A 
HETATM   15  O1  UNL     1      -8.194  10.158 -16.976  1.00  0.00    -0.298 OA
HETATM   16  C7  UNL     1      -7.559  10.682 -17.977  1.00  0.00     0.201 A 
HETATM   17  C8  UNL     1      -6.367   9.938 -18.111  1.00  0.00     0.082 A 
HETATM   18 BR1  UNL     1      -5.051  10.286 -19.440  1.00  0.00    -0.045 Br
BRANCH  16  19
HETATM   19  O2  UNL     1      -7.916  11.755 -18.797  1.00  0.00    -0.340 OA
ATOM     20  H2  UNL     1      -7.434  12.547 -19.005  1.00  0.00     0.220 HD
ENDBRANCH  16  19
ENDBRANCH   4  13
BRANCH  12  21
HETATM   21  O5  UNL     1      -3.299   5.951 -14.711  1.00  0.00    -0.362 OA
ATOM     22  H5  UNL     1      -3.661   5.623 -13.897  1.00  0.00     0.213 HD
ENDBRANCH  12  21
TORSDOF 3
ENDMDL
MODEL 3
REMARK VINA RESULT: -7.102413892      2.975      5.397
REMARK  3 active torsions:
REMARK  status: ('A' for Active; 'I' for Inactive)
REMARK    1  A    between atoms: C4_4  and  C5_5 
REMARK    2  A    between atoms: C7_8  and  O2_9 
REMARK    3  A    between atoms: C14_20  and  O5_21 
ROOT
HETATM    1  C1  UNL     1      -3.365   8.334 -17.371  1.00  0.00     0.020 C 
HETATM    2  C2  UNL     1      -3.922   7.057 -16.841  1.00  0.00     0.071 C 
HETATM    3  C3  UNL     1      -5.416   6.976 -17.023  1.00  0.00    -0.006 C 
HETATM    4  C4  UNL     1      -6.060   7.097 -15.891  1.00  0.00    -0.008 C 
HETATM    5  C9  UNL     1      -5.072   7.276 -14.773  1.00  0.00     0.145 C 
HETATM    6  C10 UNL     1      -5.143   8.675 -14.270  1.00  0.00     0.057 C 
HETATM    7  O3  UNL     1      -5.289   6.373 -13.751  1.00  0.00    -0.335 OA
HETATM    8  C11 UNL     1      -4.360   5.355 -13.880  1.00  0.00     0.162 C 
HETATM    9  C12 UNL     1      -5.100   4.045 -13.704  1.00  0.00     0.078 C 
HETATM   10  C13 UNL     1      -3.269   5.430 -12.841  1.00  0.00     0.078 C 
HETATM   11  O4  UNL     1      -3.779   5.478 -15.119  1.00  0.00    -0.316 OA
HETATM   12  C14 UNL     1      -3.773   6.869 -15.375  1.00  0.00     0.207 C 
ENDROOT
BRANCH   4  13
HETATM   13  C5  UNL     1      -7.502   7.065 -15.705  1.00  0.00     0.018 A 
HETATM   14  C6  UNL     1      -8.245   5.920 -15.343  1.00  0.00     0.158 A 
HETATM   15  O1  UNL     1      -9.514   6.226 -15.258  1.00  0.00    -0.298 OA
HETATM   16  C7  UNL     1      -9.719   7.478 -15.527  1.00  0.00     0.201 A 
HETATM   17  C8  UNL     1      -8.449   8.024 -15.813  1.00  0.00     0.082 A 
HETATM   18 BR1  UNL     1      -8.167   9.847 -16.277  1.00  0.00    -0.045 Br
BRANCH  16  19
HETATM   19  O2  UNL     1     -10.913   8.201 -15.549  1.00  0.00    -0.340 OA
ATOM     20  H2  UNL     1     -11.162   8.946 -16.085  1.00  0.00     0.220 HD
ENDBRANCH  16  19
ENDBRANCH   4  13
BRANCH  12  21
HETATM   21  O5  UNL     1      -2.672   7.491 -14.823  1.00  0.00    -0.362 OA
ATOM     22  H5  UNL     1      -2.716   8.439 -14.811  1.00  0.00     0.213 HD
ENDBRANCH  12  21
TORSDOF 3
ENDMDL
MODEL 4
REMARK VINA RESULT: -6.983031196      3.246      5.158
REMARK  3 active torsions:
REMARK  status: ('A' for Active; 'I' for Inactive)
REMARK    1  A    between atoms: C4_4  and  C5_5 
REMARK    2  A    between atoms: C7_8  and  O2_9 
REMARK    3  A    between atoms: C14_20  and  O5_21 
ROOT
HETATM    1  C1  UNL     1      -3.117   7.941 -17.262  1.00  0.00     0.020 C 
HETATM    2  C2  UNL     1      -4.068   6.934 -16.714  1.00  0.00     0.071 C 
HETATM    3  C3  UNL     1      -5.504   7.315 -16.974  1.00  0.00    -0.006 C 
HETATM    4  C4  UNL     1      -6.121   7.692 -15.884  1.00  0.00    -0.008 C 
HETATM    5  C9  UNL     1      -5.172   7.612 -14.722  1.00  0.00     0.145 C 
HETATM    6  C10 UNL     1      -4.817   8.988 -14.277  1.00  0.00     0.057 C 
HETATM    7  O3  UNL     1      -5.702   6.879 -13.679  1.00  0.00    -0.335 OA
HETATM    8  C11 UNL     1      -5.138   5.616 -13.718  1.00  0.00     0.162 C 
HETATM    9  C12 UNL     1      -6.259   4.615 -13.532  1.00  0.00     0.078 C 
HETATM   10  C13 UNL     1      -4.120   5.402 -12.625  1.00  0.00     0.078 C 
HETATM   11  O4  UNL     1      -4.499   5.484 -14.927  1.00  0.00    -0.316 OA
HETATM   12  C14 UNL     1      -4.044   6.787 -15.236  1.00  0.00     0.207 C 
ENDROOT
BRANCH   4  13
HETATM   13  C5  UNL     1      -7.505   8.123 -15.775  1.00  0.00     0.018 A 
HETATM   14  C6  UNL     1      -7.942   9.464 -15.848  1.00  0.00     0.158 A 
HETATM   15  O1  UNL     1      -9.242   9.514 -15.715  1.00  0.00    -0.298 OA
HETATM   16  C7  UNL     1      -9.747   8.330 -15.558  1.00  0.00     0.201 A 
HETATM   17  C8  UNL     1      -8.656   7.436 -15.593  1.00  0.00     0.082 A 
HETATM   18 BR1  UNL     1      -8.831   5.551 -15.408  1.00  0.00    -0.045 Br
BRANCH  16  19
HETATM   19  O2  UNL     1     -11.078   7.945 -15.383  1.00  0.00    -0.340 OA
ATOM     20  H2  UNL     1     -11.782   7.890 -16.018  1.00  0.00     0.220 HD
ENDBRANCH  16  19
ENDBRANCH   4  13
BRANCH  12  21
HETATM   21  O5  UNL     1      -2.826   7.062 -14.649  1.00  0.00    -0.362 OA
ATOM     22  H5  UNL     1      -2.312   7.726 -15.094  1.00  0.00     0.213 HD
ENDBRANCH  12  21
TORSDOF 3
ENDMDL
MODEL 5
REMARK VINA RESULT: -6.886889153      1.378      1.603
REMARK  3 active torsions:
REMARK  status: ('A' for Active; 'I' for Inactive)
REMARK    1  A    between atoms: C4_4  and  C5_5 
REMARK    2  A    between atoms: C7_8  and  O2_9 
REMARK    3  A    between atoms: C14_20  and  O5_21 
ROOT
HETATM    1  C1  UNL     1      -3.917   4.960 -15.560  1.00  0.00     0.020 C 
HETATM    2  C2  UNL     1      -4.768   5.761 -16.484  1.00  0.00     0.071 C 
HETATM    3  C3  UNL     1      -3.943   6.568 -17.454  1.00  0.00    -0.006 C 
HETATM    4  C4  UNL     1      -3.975   7.848 -17.186  1.00  0.00    -0.008 C 
HETATM    5  C9  UNL     1      -4.843   8.082 -15.982  1.00  0.00     0.145 C 
HETATM    6  C10 UNL     1      -3.990   8.475 -14.827  1.00  0.00     0.057 C 
HETATM    7  O3  UNL     1      -5.809   9.037 -16.228  1.00  0.00    -0.335 OA
HETATM    8  C11 UNL     1      -7.003   8.380 -16.469  1.00  0.00     0.162 C 
HETATM    9  C12 UNL     1      -7.633   9.024 -17.687  1.00  0.00     0.078 C 
HETATM   10  C13 UNL     1      -7.970   8.492 -15.316  1.00  0.00     0.078 C 
HETATM   11  O4  UNL     1      -6.714   7.050 -16.657  1.00  0.00    -0.316 OA
HETATM   12  C14 UNL     1      -5.594   6.807 -15.828  1.00  0.00     0.207 C 
ENDROOT
BRANCH   4  13
HETATM   13  C5  UNL     1      -3.294   8.905 -17.917  1.00  0.00     0.018 A 
HETATM   14  C6  UNL     1      -1.944   9.275 -17.731  1.00  0.00     0.158 A 
HETATM   15  O1  UNL     1      -1.640  10.256 -18.540  1.00  0.00    -0.298 OA
HETATM   16  C7  UNL     1      -2.654  10.600 -19.270  1.00  0.00     0.201 A 
HETATM   17  C8  UNL     1      -3.713   9.750 -18.885  1.00  0.00     0.082 A 
HETATM   18 BR1  UNL     1      -5.454   9.823 -19.649  1.00  0.00    -0.045 Br
BRANCH  16  19
HETATM   19  O2  UNL     1      -2.754  11.591 -20.249  1.00  0.00    -0.340 OA
ATOM     20  H2  UNL     1      -3.497  11.842 -20.786  1.00  0.00     0.220 HD
ENDBRANCH  16  19
ENDBRANCH   4  13
BRANCH  12  21
HETATM   21  O5  UNL     1      -5.964   6.519 -14.530  1.00  0.00    -0.362 OA
ATOM     22  H5  UNL     1      -6.006   7.272 -13.953  1.00  0.00     0.213 HD
ENDBRANCH  12  21
TORSDOF 3
ENDMDL
