MODEL 1
REMARK VINA RESULT: -9.323644745      0.000      0.000
REMARK  1 active torsions:
REMARK  status: ('A' for Active; 'I' for Inactive)
REMARK    1  A    between atoms: C6_7  and  N2_8 
ROOT
HETATM    1  C1  UNL     1      -3.206   5.180 -15.460  1.00  0.00     0.156 C 
HETATM    2  N1  UNL     1      -3.929   6.286 -16.084  1.00  0.00    -0.349 N 
HETATM    3  C2  UNL     1      -3.398   7.174 -16.939  1.00  0.00     0.026 A 
HETATM    4  C3  UNL     1      -4.372   8.077 -17.330  1.00  0.00     0.028 A 
HETATM    5  C4  UNL     1      -5.541   7.703 -16.653  1.00  0.00     0.080 A 
HETATM    6  C5  UNL     1      -5.219   6.567 -15.888  1.00  0.00     0.106 A 
HETATM    7  C6  UNL     1      -6.169   5.960 -15.104  1.00  0.00     0.130 A 
HETATM    8  N3  UNL     1      -7.425   6.498 -15.085  1.00  0.00    -0.318 N 
ATOM      9  H3  UNL     1      -8.156   6.070 -14.515  1.00  0.00     0.170 HD
HETATM   10  C7  UNL     1      -7.693   7.575 -15.808  1.00  0.00     0.179 A 
HETATM   11  S1  UNL     1      -9.211   8.234 -15.816  1.00  0.00    -0.040 SA
HETATM   12  N4  UNL     1      -6.765   8.202 -16.599  1.00  0.00    -0.325 N 
HETATM   13  C8  UNL     1      -7.141   9.473 -17.135  1.00  0.00     0.159 C 
HETATM   14  C9  UNL     1      -4.016   9.163 -18.293  1.00  0.00    -0.004 A 
HETATM   15  C10 UNL     1      -4.743  10.009 -19.015  1.00  0.00     0.063 A 
HETATM   16  C11 UNL     1      -4.164  10.768 -20.006  1.00  0.00     0.158 A 
HETATM   17  F1  UNL     1      -4.759  11.692 -20.849  1.00  0.00    -0.198 F 
HETATM   18  S2  UNL     1      -2.551  10.312 -19.960  1.00  0.00    -0.063 SA
HETATM   19  C12 UNL     1      -2.683   9.163 -18.665  1.00  0.00     0.005 A 
HETATM   20  C13 UNL     1      -1.566   8.390 -18.046  1.00  0.00    -0.008 C 
HETATM   21  C14 UNL     1      -0.736   9.307 -17.145  1.00  0.00     0.021 C 
HETATM   22  C15 UNL     1      -0.622   7.981 -19.191  1.00  0.00     0.021 C 
HETATM   23  C16 UNL     1      -1.995   7.161 -17.405  1.00  0.00     0.072 C 
ENDROOT
BRANCH   7  24
HETATM   24  N2  UNL     1      -5.957   4.946 -14.408  1.00  0.00    -0.383 N 
ATOM     25  H22 UNL     1      -6.724   4.590 -13.838  1.00  0.00     0.157 HD
ATOM     26  H21 UNL     1      -5.065   4.450 -14.377  1.00  0.00     0.157 HD
ENDBRANCH   7  24
TORSDOF 1
ENDMDL
MODEL 2
REMARK VINA RESULT: -8.955653933      3.231      6.528
REMARK  1 active torsions:
REMARK  status: ('A' for Active; 'I' for Inactive)
REMARK    1  A    between atoms: C6_7  and  N2_8 
ROOT
HETATM    1  C1  UNL     1      -4.611  11.214 -20.586  1.00  0.00     0.156 C 
HETATM    2  N1  UNL     1      -4.244  10.227 -19.573  1.00  0.00    -0.349 N 
HETATM    3  C2  UNL     1      -5.107   9.584 -18.770  1.00  0.00     0.026 A 
HETATM    4  C3  UNL     1      -4.410   8.723 -17.941  1.00  0.00     0.028 A 
HETATM    5  C4  UNL     1      -3.056   8.880 -18.267  1.00  0.00     0.080 A 
HETATM    6  C5  UNL     1      -2.999   9.829 -19.305  1.00  0.00     0.106 A 
HETATM    7  C6  UNL     1      -1.793  10.201 -19.846  1.00  0.00     0.130 A 
HETATM    8  N3  UNL     1      -0.659   9.629 -19.342  1.00  0.00    -0.318 N 
ATOM      9  H3  UNL     1       0.253   9.881 -19.724  1.00  0.00     0.170 HD
HETATM   10  C7  UNL     1      -0.746   8.748 -18.357  1.00  0.00     0.179 A 
HETATM   11  S1  UNL     1       0.611   8.028 -17.741  1.00  0.00    -0.040 SA
HETATM   12  N4  UNL     1      -1.936   8.359 -17.796  1.00  0.00    -0.325 N 
HETATM   13  C8  UNL     1      -1.850   7.578 -16.602  1.00  0.00     0.159 C 
HETATM   14  C9  UNL     1      -5.163   7.887 -16.957  1.00  0.00    -0.004 A 
HETATM   15  C10 UNL     1      -4.829   6.838 -16.213  1.00  0.00     0.063 A 
HETATM   16  C11 UNL     1      -5.789   6.107 -15.552  1.00  0.00     0.158 A 
HETATM   17  F1  UNL     1      -5.628   4.997 -14.741  1.00  0.00    -0.198 F 
HETATM   18  S2  UNL     1      -7.221   6.879 -15.959  1.00  0.00    -0.063 SA
HETATM   19  C12 UNL     1      -6.529   8.115 -16.964  1.00  0.00     0.005 A 
HETATM   20  C13 UNL     1      -7.262   9.227 -17.636  1.00  0.00    -0.008 C 
HETATM   21  C14 UNL     1      -7.656  10.288 -16.606  1.00  0.00     0.021 C 
HETATM   22  C15 UNL     1      -8.591   8.640 -18.143  1.00  0.00     0.021 C 
HETATM   23  C16 UNL     1      -6.575   9.758 -18.798  1.00  0.00     0.072 C 
ENDROOT
BRANCH   7  24
HETATM   24  N2  UNL     1      -1.668  11.027 -20.774  1.00  0.00    -0.383 N 
ATOM     25  H22 UNL     1      -2.278  10.930 -21.585  1.00  0.00     0.157 HD
ATOM     26  H21 UNL     1      -0.996  11.795 -20.768  1.00  0.00     0.157 HD
ENDBRANCH   7  24
TORSDOF 1
ENDMDL
MODEL 3
REMARK VINA RESULT: -8.779304153      3.183      6.355
REMARK  1 active torsions:
REMARK  status: ('A' for Active; 'I' for Inactive)
REMARK    1  A    between atoms: C6_7  and  N2_8 
ROOT
HETATM    1  C1  UNL     1      -7.029  10.282 -18.539  1.00  0.00     0.156 C 
HETATM    2  N1  UNL     1      -5.809   9.535 -18.245  1.00  0.00    -0.349 N 
HETATM    3  C2  UNL     1      -5.716   8.513 -17.379  1.00  0.00     0.026 A 
HETATM    4  C3  UNL     1      -4.414   8.045 -17.357  1.00  0.00     0.028 A 
HETATM    5  C4  UNL     1      -3.697   8.848 -18.253  1.00  0.00     0.080 A 
HETATM    6  C5  UNL     1      -4.615   9.767 -18.795  1.00  0.00     0.106 A 
HETATM    7  C6  UNL     1      -4.209  10.700 -19.717  1.00  0.00     0.130 A 
HETATM    8  N3  UNL     1      -2.892  10.713 -20.080  1.00  0.00    -0.318 N 
ATOM      9  H3  UNL     1      -2.557  11.392 -20.764  1.00  0.00     0.170 HD
HETATM   10  C7  UNL     1      -2.050   9.843 -19.541  1.00  0.00     0.179 A 
HETATM   11  S1  UNL     1      -0.454   9.827 -19.978  1.00  0.00    -0.040 SA
HETATM   12  N4  UNL     1      -2.427   8.901 -18.619  1.00  0.00    -0.325 N 
HETATM   13  C8  UNL     1      -1.371   8.190 -17.969  1.00  0.00     0.159 C 
HETATM   14  C9  UNL     1      -4.066   6.896 -16.466  1.00  0.00    -0.004 A 
HETATM   15  C10 UNL     1      -3.009   6.094 -16.389  1.00  0.00     0.063 A 
HETATM   16  C11 UNL     1      -3.041   4.957 -15.615  1.00  0.00     0.158 A 
HETATM   17  F1  UNL     1      -2.045   4.015 -15.418  1.00  0.00    -0.198 F 
HETATM   18  S2  UNL     1      -4.583   4.971 -14.958  1.00  0.00    -0.063 SA
HETATM   19  C12 UNL     1      -5.129   6.442 -15.702  1.00  0.00     0.005 A 
HETATM   20  C13 UNL     1      -6.451   7.104 -15.498  1.00  0.00    -0.008 C 
HETATM   21  C14 UNL     1      -6.484   7.786 -14.129  1.00  0.00     0.021 C 
HETATM   22  C15 UNL     1      -7.501   5.982 -15.420  1.00  0.00     0.021 C 
HETATM   23  C16 UNL     1      -6.845   7.964 -16.598  1.00  0.00     0.072 C 
ENDROOT
BRANCH   7  24
HETATM   24  N2  UNL     1      -4.970  11.537 -20.246  1.00  0.00    -0.383 N 
ATOM     25  H22 UNL     1      -5.370  11.309 -21.156  1.00  0.00     0.157 HD
ATOM     26  H21 UNL     1      -5.216  12.432 -19.823  1.00  0.00     0.157 HD
ENDBRANCH   7  24
TORSDOF 1
ENDMDL
MODEL 4
REMARK VINA RESULT: -8.676418758      2.068      4.282
REMARK  1 active torsions:
REMARK  status: ('A' for Active; 'I' for Inactive)
REMARK    1  A    between atoms: C6_7  and  N2_8 
ROOT
HETATM    1  C1  UNL     1      -8.530   7.092 -15.196  1.00  0.00     0.156 C 
HETATM    2  N1  UNL     1      -7.223   7.229 -15.835  1.00  0.00    -0.349 N 
HETATM    3  C2  UNL     1      -6.908   8.147 -16.763  1.00  0.00     0.026 A 
HETATM    4  C3  UNL     1      -5.586   7.985 -17.141  1.00  0.00     0.028 A 
HETATM    5  C4  UNL     1      -5.101   6.898 -16.401  1.00  0.00     0.080 A 
HETATM    6  C5  UNL     1      -6.162   6.459 -15.586  1.00  0.00     0.106 A 
HETATM    7  C6  UNL     1      -5.995   5.395 -14.735  1.00  0.00     0.130 A 
HETATM    8  N3  UNL     1      -4.778   4.775 -14.712  1.00  0.00    -0.318 N 
ATOM      9  H3  UNL     1      -4.620   3.982 -14.090  1.00  0.00     0.170 HD
HETATM   10  C7  UNL     1      -3.804   5.205 -15.501  1.00  0.00     0.179 A 
HETATM   11  S1  UNL     1      -2.315   4.482 -15.478  1.00  0.00    -0.040 SA
HETATM   12  N4  UNL     1      -3.942   6.264 -16.360  1.00  0.00    -0.325 N 
HETATM   13  C8  UNL     1      -2.882   6.462 -17.300  1.00  0.00     0.159 C 
HETATM   14  C9  UNL     1      -5.002   8.903 -18.165  1.00  0.00    -0.004 A 
HETATM   15  C10 UNL     1      -3.756   9.151 -18.556  1.00  0.00     0.063 A 
HETATM   16  C11 UNL     1      -3.473  10.222 -19.372  1.00  0.00     0.158 A 
HETATM   17  F1  UNL     1      -2.248  10.629 -19.874  1.00  0.00    -0.198 F 
HETATM   18  S2  UNL     1      -4.970  10.934 -19.621  1.00  0.00    -0.063 SA
HETATM   19  C12 UNL     1      -5.905   9.824 -18.668  1.00  0.00     0.005 A 
HETATM   20  C13 UNL     1      -7.387   9.835 -18.490  1.00  0.00    -0.008 C 
HETATM   21  C14 UNL     1      -8.065   9.314 -19.759  1.00  0.00     0.021 C 
HETATM   22  C15 UNL     1      -7.809  11.310 -18.379  1.00  0.00     0.021 C 
HETATM   23  C16 UNL     1      -7.831   9.184 -17.272  1.00  0.00     0.072 C 
ENDROOT
BRANCH   7  24
HETATM   24  N2  UNL     1      -6.887   4.959 -13.978  1.00  0.00    -0.383 N 
ATOM     25  H22 UNL     1      -6.806   5.156 -12.981  1.00  0.00     0.157 HD
ATOM     26  H21 UNL     1      -7.693   4.420 -14.296  1.00  0.00     0.157 HD
ENDBRANCH   7  24
TORSDOF 1
ENDMDL
MODEL 5
REMARK VINA RESULT: -8.174096898      2.206      3.912
REMARK  1 active torsions:
REMARK  status: ('A' for Active; 'I' for Inactive)
REMARK    1  A    between atoms: C6_7  and  N2_8 
ROOT
HETATM    1  C1  UNL     1      -8.458   8.397 -17.124  1.00  0.00     0.156 C 
HETATM    2  N1  UNL     1      -7.069   8.018 -16.878  1.00  0.00    -0.349 N 
HETATM    3  C2  UNL     1      -5.998   8.576 -17.466  1.00  0.00     0.026 A 
HETATM    4  C3  UNL     1      -4.846   7.973 -16.993  1.00  0.00     0.028 A 
HETATM    5  C4  UNL     1      -5.266   6.993 -16.083  1.00  0.00     0.080 A 
HETATM    6  C5  UNL     1      -6.671   7.063 -16.035  1.00  0.00     0.106 A 
HETATM    7  C6  UNL     1      -7.386   6.217 -15.223  1.00  0.00     0.130 A 
HETATM    8  N3  UNL     1      -6.693   5.307 -14.476  1.00  0.00    -0.318 N 
ATOM      9  H3  UNL     1      -7.193   4.665 -13.859  1.00  0.00     0.170 HD
HETATM   10  C7  UNL     1      -5.371   5.259 -14.553  1.00  0.00     0.179 A 
HETATM   11  S1  UNL     1      -4.508   4.178 -13.644  1.00  0.00    -0.040 SA
HETATM   12  N4  UNL     1      -4.632   6.090 -15.355  1.00  0.00    -0.325 N 
HETATM   13  C8  UNL     1      -3.247   5.767 -15.499  1.00  0.00     0.159 C 
HETATM   14  C9  UNL     1      -3.519   8.435 -17.501  1.00  0.00    -0.004 A 
HETATM   15  C10 UNL     1      -2.271   8.232 -17.093  1.00  0.00     0.063 A 
HETATM   16  C11 UNL     1      -1.230   8.969 -17.613  1.00  0.00     0.158 A 
HETATM   17  F1  UNL     1       0.119   8.895 -17.311  1.00  0.00    -0.198 F 
HETATM   18  S2  UNL     1      -1.981   9.991 -18.710  1.00  0.00    -0.063 SA
HETATM   19  C12 UNL     1      -3.606   9.430 -18.460  1.00  0.00     0.005 A 
HETATM   20  C13 UNL     1      -4.826   9.890 -19.186  1.00  0.00    -0.008 C 
HETATM   21  C14 UNL     1      -4.842   9.302 -20.599  1.00  0.00     0.021 C 
HETATM   22  C15 UNL     1      -4.680  11.410 -19.379  1.00  0.00     0.021 C 
HETATM   23  C16 UNL     1      -6.055   9.683 -18.445  1.00  0.00     0.072 C 
ENDROOT
BRANCH   7  24
HETATM   24  N2  UNL     1      -8.630   6.230 -15.123  1.00  0.00    -0.383 N 
ATOM     25  H22 UNL     1      -9.058   6.982 -14.584  1.00  0.00     0.157 HD
ATOM     26  H21 UNL     1      -9.244   5.535 -15.549  1.00  0.00     0.157 HD
ENDBRANCH   7  24
TORSDOF 1
ENDMDL
