MODEL 1
REMARK VINA RESULT: -5.316652365      0.000      0.000
REMARK  3 active torsions:
REMARK  status: ('A' for Active; 'I' for Inactive)
REMARK       I    between atoms: C1_4  and  N3_6 
REMARK    1  A    between atoms: N3_6  and  C2_8 
REMARK    2  A    between atoms: C2_8  and  C3_9 
REMARK    3  A    between atoms: C3_9  and  N5_13 
ROOT
HETATM    1  C3  UNL     1      25.651  41.613  71.963  1.00  0.00     0.091 C 
HETATM    2  N4  UNL     1      24.370  41.734  71.991  1.00  0.00    -0.388 N 
ATOM      3  H41 UNL     1      23.871  41.614  71.110  1.00  0.00     0.157 HD
ATOM      4  H42 UNL     1      23.863  41.941  72.852  1.00  0.00     0.157 HD
ENDROOT
BRANCH   1   5
HETATM    5  C2  UNL     1      26.380  41.788  73.250  1.00  0.00     0.198 C 
BRANCH   5   6
HETATM    6  N3  UNL     1      26.902  40.536  73.742  1.00  0.00    -0.358 N 
HETATM    7  C1  UNL     1      28.206  40.076  73.505  1.00  0.00     0.182 C 
HETATM    8  N1  UNL     1      28.427  38.786  73.494  1.00  0.00    -0.374 N 
HETATM    9  N2  UNL     1      29.313  40.946  73.275  1.00  0.00    -0.064 NA
ATOM     10  H12 UNL     1      29.374  38.452  73.322  1.00  0.00     0.158 HD
ATOM     11  H11 UNL     1      27.635  38.164  73.659  1.00  0.00     0.158 HD
ATOM     12  H3  UNL     1      26.283  39.947  74.298  1.00  0.00     0.162 HD
ENDBRANCH   5   6
ENDBRANCH   1   5
BRANCH   1  13
HETATM   13  N5  UNL     1      26.358  41.325  70.765  1.00  0.00    -0.360 N 
HETATM   14  C4  UNL     1      26.975  42.349  69.930  1.00  0.00     0.135 C 
HETATM   15  C5  UNL     1      28.472  42.013  69.999  1.00  0.00     0.095 C 
HETATM   16  S1  UNL     1      28.335  40.214  69.631  1.00  0.00    -0.148 SA
HETATM   17  C6  UNL     1      26.587  40.017  70.172  1.00  0.00     0.198 C 
ENDBRANCH   1  13
TORSDOF 3
ENDMDL
MODEL 2
REMARK VINA RESULT: -5.206401539      2.163      3.322
REMARK  3 active torsions:
REMARK  status: ('A' for Active; 'I' for Inactive)
REMARK       I    between atoms: C1_4  and  N3_6 
REMARK    1  A    between atoms: N3_6  and  C2_8 
REMARK    2  A    between atoms: C2_8  and  C3_9 
REMARK    3  A    between atoms: C3_9  and  N5_13 
ROOT
HETATM    1  C3  UNL     1      28.163  40.948  72.388  1.00  0.00     0.091 C 
HETATM    2  N4  UNL     1      29.261  41.373  72.907  1.00  0.00    -0.388 N 
ATOM      3  H41 UNL     1      29.388  42.383  72.967  1.00  0.00     0.157 HD
ATOM      4  H42 UNL     1      29.982  40.737  73.249  1.00  0.00     0.157 HD
ENDROOT
BRANCH   1   5
HETATM    5  C2  UNL     1      27.977  39.473  72.301  1.00  0.00     0.198 C 
BRANCH   5   6
HETATM    6  N3  UNL     1      27.243  38.960  73.433  1.00  0.00    -0.358 N 
HETATM    7  C1  UNL     1      25.848  38.817  73.471  1.00  0.00     0.182 C 
HETATM    8  N1  UNL     1      25.240  38.877  74.628  1.00  0.00    -0.374 N 
HETATM    9  N2  UNL     1      25.051  38.606  72.306  1.00  0.00    -0.064 NA
ATOM     10  H12 UNL     1      24.226  38.773  74.655  1.00  0.00     0.158 HD
ATOM     11  H11 UNL     1      25.810  39.028  75.460  1.00  0.00     0.158 HD
ATOM     12  H3  UNL     1      27.773  38.683  74.259  1.00  0.00     0.162 HD
ENDBRANCH   5   6
ENDBRANCH   1   5
BRANCH   1  13
HETATM   13  N5  UNL     1      27.159  41.833  71.913  1.00  0.00    -0.360 N 
HETATM   14  C4  UNL     1      26.978  42.160  70.503  1.00  0.00     0.135 C 
HETATM   15  C5  UNL     1      25.578  41.612  70.185  1.00  0.00     0.095 C 
HETATM   16  S1  UNL     1      24.694  42.355  71.620  1.00  0.00    -0.148 SA
HETATM   17  C6  UNL     1      26.169  42.547  72.704  1.00  0.00     0.198 C 
ENDBRANCH   1  13
TORSDOF 3
ENDMDL
MODEL 3
REMARK VINA RESULT: -5.198741282      0.835      1.547
REMARK  3 active torsions:
REMARK  status: ('A' for Active; 'I' for Inactive)
REMARK       I    between atoms: C1_4  and  N3_6 
REMARK    1  A    between atoms: N3_6  and  C2_8 
REMARK    2  A    between atoms: C2_8  and  C3_9 
REMARK    3  A    between atoms: C3_9  and  N5_13 
ROOT
HETATM    1  C3  UNL     1      25.662  41.577  71.971  1.00  0.00     0.091 C 
HETATM    2  N4  UNL     1      24.400  41.823  71.923  1.00  0.00    -0.388 N 
ATOM      3  H41 UNL     1      23.935  41.699  71.024  1.00  0.00     0.157 HD
ATOM      4  H42 UNL     1      23.874  42.130  72.742  1.00  0.00     0.157 HD
ENDROOT
BRANCH   1   5
HETATM    5  C2  UNL     1      26.341  41.757  73.285  1.00  0.00     0.198 C 
BRANCH   5   6
HETATM    6  N3  UNL     1      26.904  40.520  73.769  1.00  0.00    -0.358 N 
HETATM    7  C1  UNL     1      28.205  40.080  73.485  1.00  0.00     0.182 C 
HETATM    8  N1  UNL     1      28.447  38.794  73.478  1.00  0.00    -0.374 N 
HETATM    9  N2  UNL     1      29.287  40.966  73.201  1.00  0.00    -0.064 NA
ATOM     10  H12 UNL     1      29.393  38.474  73.272  1.00  0.00     0.158 HD
ATOM     11  H11 UNL     1      27.674  38.160  73.682  1.00  0.00     0.158 HD
ATOM     12  H3  UNL     1      26.318  39.927  74.356  1.00  0.00     0.162 HD
ENDBRANCH   5   6
ENDBRANCH   1   5
BRANCH   1  13
HETATM   13  N5  UNL     1      26.394  41.151  70.831  1.00  0.00    -0.360 N 
HETATM   14  C4  UNL     1      26.222  39.844  70.209  1.00  0.00     0.135 C 
HETATM   15  C5  UNL     1      25.696  40.182  68.805  1.00  0.00     0.095 C 
HETATM   16  S1  UNL     1      26.951  41.459  68.377  1.00  0.00    -0.148 SA
HETATM   17  C6  UNL     1      27.405  41.902  70.104  1.00  0.00     0.198 C 
ENDBRANCH   1  13
TORSDOF 3
ENDMDL
MODEL 4
REMARK VINA RESULT: -5.050977026      1.728      2.559
REMARK  3 active torsions:
REMARK  status: ('A' for Active; 'I' for Inactive)
REMARK       I    between atoms: C1_4  and  N3_6 
REMARK    1  A    between atoms: N3_6  and  C2_8 
REMARK    2  A    between atoms: C2_8  and  C3_9 
REMARK    3  A    between atoms: C3_9  and  N5_13 
ROOT
HETATM    1  C3  UNL     1      27.699  41.480  72.294  1.00  0.00     0.091 C 
HETATM    2  N4  UNL     1      28.867  41.385  72.825  1.00  0.00    -0.388 N 
ATOM      3  H41 UNL     1      29.669  41.423  72.196  1.00  0.00     0.157 HD
ATOM      4  H42 UNL     1      29.000  41.275  73.831  1.00  0.00     0.157 HD
ENDROOT
BRANCH   1   5
HETATM    5  C2  UNL     1      26.528  41.424  73.213  1.00  0.00     0.198 C 
BRANCH   5   6
HETATM    6  N3  UNL     1      26.505  40.198  73.975  1.00  0.00    -0.358 N 
HETATM    7  C1  UNL     1      25.738  39.073  73.638  1.00  0.00     0.182 C 
HETATM    8  N1  UNL     1      25.350  38.266  74.593  1.00  0.00    -0.374 N 
HETATM    9  N2  UNL     1      25.357  38.758  72.299  1.00  0.00    -0.064 NA
ATOM     10  H12 UNL     1      24.793  37.448  74.348  1.00  0.00     0.158 HD
ATOM     11  H11 UNL     1      25.624  38.491  75.549  1.00  0.00     0.158 HD
ATOM     12  H3  UNL     1      27.084  40.147  74.813  1.00  0.00     0.162 HD
ENDBRANCH   5   6
ENDBRANCH   1   5
BRANCH   1  13
HETATM   13  N5  UNL     1      27.513  41.632  70.895  1.00  0.00    -0.360 N 
HETATM   14  C4  UNL     1      28.608  41.859  69.959  1.00  0.00     0.135 C 
HETATM   15  C5  UNL     1      28.578  40.613  69.062  1.00  0.00     0.095 C 
HETATM   16  S1  UNL     1      26.775  40.627  68.686  1.00  0.00    -0.148 SA
HETATM   17  C6  UNL     1      26.256  41.592  70.165  1.00  0.00     0.198 C 
ENDBRANCH   1  13
TORSDOF 3
ENDMDL
MODEL 5
REMARK VINA RESULT: -5.050122617      1.829      2.888
REMARK  3 active torsions:
REMARK  status: ('A' for Active; 'I' for Inactive)
REMARK       I    between atoms: C1_4  and  N3_6 
REMARK    1  A    between atoms: N3_6  and  C2_8 
REMARK    2  A    between atoms: C2_8  and  C3_9 
REMARK    3  A    between atoms: C3_9  and  N5_13 
ROOT
HETATM    1  C3  UNL     1      27.776  41.280  72.237  1.00  0.00     0.091 C 
HETATM    2  N4  UNL     1      28.910  41.324  72.842  1.00  0.00    -0.388 N 
ATOM      3  H41 UNL     1      29.749  41.326  72.261  1.00  0.00     0.157 HD
ATOM      4  H42 UNL     1      28.984  41.356  73.860  1.00  0.00     0.157 HD
ENDROOT
BRANCH   1   5
HETATM    5  C2  UNL     1      26.552  41.277  73.086  1.00  0.00     0.198 C 
BRANCH   5   6
HETATM    6  N3  UNL     1      26.504  40.123  73.950  1.00  0.00    -0.358 N 
HETATM    7  C1  UNL     1      25.669  39.014  73.743  1.00  0.00     0.182 C 
HETATM    8  N1  UNL     1      25.286  38.312  74.778  1.00  0.00    -0.374 N 
HETATM    9  N2  UNL     1      25.213  38.609  72.452  1.00  0.00    -0.064 NA
ATOM     10  H12 UNL     1      24.680  37.506  74.626  1.00  0.00     0.158 HD
ATOM     11  H11 UNL     1      25.613  38.601  75.700  1.00  0.00     0.158 HD
ATOM     12  H3  UNL     1      27.117  40.112  74.765  1.00  0.00     0.162 HD
ENDBRANCH   5   6
ENDBRANCH   1   5
BRANCH   1  13
HETATM   13  N5  UNL     1      27.674  41.235  70.821  1.00  0.00    -0.360 N 
HETATM   14  C4  UNL     1      27.527  39.997  70.066  1.00  0.00     0.135 C 
HETATM   15  C5  UNL     1      26.149  40.144  69.403  1.00  0.00     0.095 C 
HETATM   16  S1  UNL     1      26.385  41.839  68.723  1.00  0.00    -0.148 SA
HETATM   17  C6  UNL     1      27.698  42.361  69.902  1.00  0.00     0.198 C 
ENDBRANCH   1  13
TORSDOF 3
ENDMDL
