MODEL 1
REMARK VINA RESULT: -5.358472845      0.000      0.000
REMARK  3 active torsions:
REMARK  status: ('A' for Active; 'I' for Inactive)
REMARK    1  A    between atoms: C2_2  and  N1_3 
REMARK    2  A    between atoms: C5_6  and  N2_7 
REMARK       I    between atoms: N2_7  and  C6_9 
REMARK    3  A    between atoms: C7_14  and  N5_15 
ROOT
HETATM    1  N1  UNL     1      24.666  42.163  69.692  1.00  0.00    -0.411 N 
HETATM    2  C3  UNL     1      25.489  41.028  69.441  1.00  0.00     0.119 C 
HETATM    3  C4  UNL     1      25.636  40.273  70.771  1.00  0.00     0.046 C 
HETATM    4  C5  UNL     1      26.595  41.157  71.587  1.00  0.00     0.117 C 
HETATM    5  C7  UNL     1      26.005  42.518  71.741  1.00  0.00     0.223 C 
HETATM    6  C8  UNL     1      24.649  42.634  71.026  1.00  0.00     0.151 C 
ENDROOT
BRANCH   4   7
HETATM    7  N2  UNL     1      26.922  40.478  72.781  1.00  0.00    -0.358 N 
HETATM    8  C6  UNL     1      28.195  40.059  73.212  1.00  0.00     0.182 C 
HETATM    9  N3  UNL     1      28.388  38.819  73.476  1.00  0.00    -0.374 N 
HETATM   10  N4  UNL     1      29.300  40.928  73.379  1.00  0.00    -0.064 NA
ATOM     11  H32 UNL     1      27.591  38.193  73.356  1.00  0.00     0.158 HD
ATOM     12  H31 UNL     1      29.310  38.515  73.789  1.00  0.00     0.158 HD
ATOM     13  H2  UNL     1      26.143  40.266  73.405  1.00  0.00     0.162 HD
ENDBRANCH   4   7
BRANCH   5  14
HETATM   14  N5  UNL     1      25.791  42.933  73.092  1.00  0.00    -0.071 N 
ATOM     15  H53 UNL     1      24.803  42.852  73.335  1.00  0.00     0.274 HD
ATOM     16  H52 UNL     1      26.188  42.250  73.738  1.00  0.00     0.274 HD
ATOM     17  H51 UNL     1      26.134  43.868  73.315  1.00  0.00     0.274 HD
ENDBRANCH   5  14
BRANCH   1  18
HETATM   18  C2  UNL     1      24.770  43.170  68.679  1.00  0.00     0.112 C 
HETATM   19  C1  UNL     1      24.373  44.532  69.104  1.00  0.00     0.026 C 
ENDBRANCH   1  18
TORSDOF 3
ENDMDL
MODEL 2
REMARK VINA RESULT: -5.006325359      1.445      1.537
REMARK  3 active torsions:
REMARK  status: ('A' for Active; 'I' for Inactive)
REMARK    1  A    between atoms: C2_2  and  N1_3 
REMARK    2  A    between atoms: C5_6  and  N2_7 
REMARK       I    between atoms: N2_7  and  C6_9 
REMARK    3  A    between atoms: C7_14  and  N5_15 
ROOT
HETATM    1  N1  UNL     1      26.192  42.426  68.956  1.00  0.00    -0.411 N 
HETATM    2  C3  UNL     1      27.535  42.315  69.420  1.00  0.00     0.119 C 
HETATM    3  C4  UNL     1      27.544  41.246  70.524  1.00  0.00     0.046 C 
HETATM    4  C5  UNL     1      26.878  41.951  71.718  1.00  0.00     0.117 C 
HETATM    5  C7  UNL     1      25.506  42.391  71.332  1.00  0.00     0.223 C 
HETATM    6  C8  UNL     1      25.186  42.037  69.871  1.00  0.00     0.151 C 
ENDROOT
BRANCH   4   7
HETATM    7  N2  UNL     1      26.969  41.105  72.844  1.00  0.00    -0.358 N 
HETATM    8  C6  UNL     1      28.079  40.346  73.262  1.00  0.00     0.182 C 
HETATM    9  N3  UNL     1      27.950  39.078  73.404  1.00  0.00    -0.374 N 
HETATM   10  N4  UNL     1      29.353  40.895  73.545  1.00  0.00    -0.064 NA
ATOM     11  H32 UNL     1      27.032  38.682  73.200  1.00  0.00     0.158 HD
ATOM     12  H31 UNL     1      28.754  38.527  73.707  1.00  0.00     0.158 HD
ATOM     13  H2  UNL     1      26.133  41.035  73.424  1.00  0.00     0.162 HD
ENDBRANCH   4   7
BRANCH   5  14
HETATM   14  N5  UNL     1      24.451  41.843  72.127  1.00  0.00    -0.071 N 
ATOM     15  H53 UNL     1      23.559  41.930  71.638  1.00  0.00     0.274 HD
ATOM     16  H52 UNL     1      24.532  40.827  72.168  1.00  0.00     0.274 HD
ATOM     17  H51 UNL     1      24.376  42.229  73.068  1.00  0.00     0.274 HD
ENDBRANCH   5  14
BRANCH   1  18
HETATM   18  C2  UNL     1      25.942  43.639  68.237  1.00  0.00     0.112 C 
HETATM   19  C1  UNL     1      27.021  44.650  68.316  1.00  0.00     0.026 C 
ENDBRANCH   1  18
TORSDOF 3
ENDMDL
MODEL 3
REMARK VINA RESULT: -4.881447018      1.255      1.449
REMARK  3 active torsions:
REMARK  status: ('A' for Active; 'I' for Inactive)
REMARK    1  A    between atoms: C2_2  and  N1_3 
REMARK    2  A    between atoms: C5_6  and  N2_7 
REMARK       I    between atoms: N2_7  and  C6_9 
REMARK    3  A    between atoms: C7_14  and  N5_15 
ROOT
HETATM    1  N1  UNL     1      25.894  41.276  68.617  1.00  0.00    -0.411 N 
HETATM    2  C3  UNL     1      27.263  41.049  68.941  1.00  0.00     0.119 C 
HETATM    3  C4  UNL     1      27.290  40.247  70.251  1.00  0.00     0.046 C 
HETATM    4  C5  UNL     1      26.904  41.283  71.320  1.00  0.00     0.117 C 
HETATM    5  C7  UNL     1      25.562  41.849  71.000  1.00  0.00     0.223 C 
HETATM    6  C8  UNL     1      24.989  41.255  69.704  1.00  0.00     0.151 C 
ENDROOT
BRANCH   4   7
HETATM    7  N2  UNL     1      27.045  40.687  72.592  1.00  0.00    -0.358 N 
HETATM    8  C6  UNL     1      28.220  40.185  73.182  1.00  0.00     0.182 C 
HETATM    9  N3  UNL     1      28.253  38.961  73.565  1.00  0.00    -0.374 N 
HETATM   10  N4  UNL     1      29.393  40.951  73.388  1.00  0.00    -0.064 NA
ATOM     11  H32 UNL     1      27.408  38.409  73.415  1.00  0.00     0.158 HD
ATOM     12  H31 UNL     1      29.104  38.597  73.992  1.00  0.00     0.158 HD
ATOM     13  H2  UNL     1      26.194  40.612  73.150  1.00  0.00     0.162 HD
ENDBRANCH   4   7
BRANCH   5  14
HETATM   14  N5  UNL     1      24.570  41.657  72.012  1.00  0.00    -0.071 N 
ATOM     15  H53 UNL     1      23.877  40.974  71.702  1.00  0.00     0.274 HD
ATOM     16  H52 UNL     1      24.969  41.156  72.806  1.00  0.00     0.274 HD
ATOM     17  H51 UNL     1      24.107  42.509  72.329  1.00  0.00     0.274 HD
ENDBRANCH   5  14
BRANCH   1  18
HETATM   18  C2  UNL     1      25.707  42.337  67.674  1.00  0.00     0.112 C 
HETATM   19  C1  UNL     1      24.318  42.835  67.556  1.00  0.00     0.026 C 
ENDBRANCH   1  18
TORSDOF 3
ENDMDL
MODEL 4
REMARK VINA RESULT: -4.857659952      1.269      2.099
REMARK  3 active torsions:
REMARK  status: ('A' for Active; 'I' for Inactive)
REMARK    1  A    between atoms: C2_2  and  N1_3 
REMARK    2  A    between atoms: C5_6  and  N2_7 
REMARK       I    between atoms: N2_7  and  C6_9 
REMARK    3  A    between atoms: C7_14  and  N5_15 
ROOT
HETATM    1  N1  UNL     1      25.487  42.325  70.355  1.00  0.00    -0.411 N 
HETATM    2  C3  UNL     1      25.796  43.053  71.541  1.00  0.00     0.119 C 
HETATM    3  C4  UNL     1      26.842  42.234  72.314  1.00  0.00     0.046 C 
HETATM    4  C5  UNL     1      26.031  41.061  72.892  1.00  0.00     0.117 C 
HETATM    5  C7  UNL     1      25.392  40.303  71.777  1.00  0.00     0.223 C 
HETATM    6  C8  UNL     1      25.709  40.929  70.410  1.00  0.00     0.151 C 
ENDROOT
BRANCH   4   7
HETATM    7  N2  UNL     1      26.870  40.320  73.752  1.00  0.00    -0.358 N 
HETATM    8  C6  UNL     1      28.217  39.967  73.546  1.00  0.00     0.182 C 
HETATM    9  N3  UNL     1      28.550  38.729  73.574  1.00  0.00    -0.374 N 
HETATM   10  N4  UNL     1      29.253  40.902  73.308  1.00  0.00    -0.064 NA
ATOM     11  H32 UNL     1      27.803  38.055  73.745  1.00  0.00     0.158 HD
ATOM     12  H31 UNL     1      29.526  38.473  73.425  1.00  0.00     0.158 HD
ATOM     13  H2  UNL     1      26.450  40.002  74.626  1.00  0.00     0.162 HD
ENDBRANCH   4   7
BRANCH   5  14
HETATM   14  N5  UNL     1      25.765  38.926  71.693  1.00  0.00    -0.071 N 
ATOM     15  H53 UNL     1      26.767  38.821  71.855  1.00  0.00     0.274 HD
ATOM     16  H52 UNL     1      25.401  38.413  72.497  1.00  0.00     0.274 HD
ATOM     17  H51 UNL     1      25.497  38.459  70.827  1.00  0.00     0.274 HD
ENDBRANCH   5  14
BRANCH   1  18
HETATM   18  C2  UNL     1      24.257  42.735  69.747  1.00  0.00     0.112 C 
HETATM   19  C1  UNL     1      23.824  41.917  68.592  1.00  0.00     0.026 C 
ENDBRANCH   1  18
TORSDOF 3
ENDMDL
MODEL 5
REMARK VINA RESULT: -4.844659889      1.707      2.630
REMARK  3 active torsions:
REMARK  status: ('A' for Active; 'I' for Inactive)
REMARK    1  A    between atoms: C2_2  and  N1_3 
REMARK    2  A    between atoms: C5_6  and  N2_7 
REMARK       I    between atoms: N2_7  and  C6_9 
REMARK    3  A    between atoms: C7_14  and  N5_15 
ROOT
HETATM    1  N1  UNL     1      25.368  43.526  69.995  1.00  0.00    -0.411 N 
HETATM    2  C3  UNL     1      24.596  42.844  70.979  1.00  0.00     0.119 C 
HETATM    3  C4  UNL     1      25.534  41.848  71.679  1.00  0.00     0.046 C 
HETATM    4  C5  UNL     1      25.727  40.735  70.634  1.00  0.00     0.117 C 
HETATM    5  C7  UNL     1      26.305  41.318  69.389  1.00  0.00     0.223 C 
HETATM    6  C8  UNL     1      26.506  42.837  69.513  1.00  0.00     0.151 C 
ENDROOT
BRANCH   4   7
HETATM    7  N2  UNL     1      26.457  39.684  71.230  1.00  0.00    -0.358 N 
HETATM    8  C6  UNL     1      26.193  39.040  72.453  1.00  0.00     0.182 C 
HETATM    9  N3  UNL     1      27.102  39.023  73.359  1.00  0.00    -0.374 N 
HETATM   10  N4  UNL     1      24.972  38.393  72.762  1.00  0.00    -0.064 NA
ATOM     11  H32 UNL     1      27.982  39.489  73.137  1.00  0.00     0.158 HD
ATOM     12  H31 UNL     1      26.911  38.555  74.246  1.00  0.00     0.158 HD
ATOM     13  H2  UNL     1      27.272  39.353  70.714  1.00  0.00     0.162 HD
ENDBRANCH   4   7
BRANCH   5  14
HETATM   14  N5  UNL     1      27.566  40.770  68.996  1.00  0.00    -0.071 N 
ATOM     15  H53 UNL     1      27.769  41.013  68.026  1.00  0.00     0.274 HD
ATOM     16  H52 UNL     1      28.326  41.262  69.465  1.00  0.00     0.274 HD
ATOM     17  H51 UNL     1      27.659  39.763  69.133  1.00  0.00     0.274 HD
ENDBRANCH   5  14
BRANCH   1  18
HETATM   18  C2  UNL     1      24.568  44.174  69.000  1.00  0.00     0.112 C 
HETATM   19  C1  UNL     1      23.972  45.464  69.414  1.00  0.00     0.026 C 
ENDBRANCH   1  18
TORSDOF 3
ENDMDL
