MODEL 1
REMARK VINA RESULT: -5.326531308      0.000      0.000
REMARK  3 active torsions:
REMARK  status: ('A' for Active; 'I' for Inactive)
REMARK    1  A    between atoms: C2_2  and  C3_3 
REMARK    2  A    between atoms: C3_3  and  N1_5 
REMARK    3  A    between atoms: C3_3  and  N2_9 
ROOT
HETATM    1  N2  UNL     1      27.800  41.128  70.856  1.00  0.00    -0.355 N 
HETATM    2  C5  UNL     1      26.400  41.175  70.733  1.00  0.00     0.088 C 
HETATM    3  C6  UNL     1      25.772  39.853  71.114  1.00  0.00     0.278 C 
HETATM    4  N3  UNL     1      25.063  39.927  72.373  1.00  0.00    -0.047 N 
ATOM      5  H31 UNL     1      24.065  39.773  72.231  1.00  0.00     0.279 HD
ATOM      6  H32 UNL     1      25.043  40.887  72.717  1.00  0.00     0.279 HD
HETATM    7  C7  UNL     1      25.569  39.042  73.381  1.00  0.00     0.463 C 
HETATM    8  N4  UNL     1      26.993  39.049  73.441  1.00  0.00    -0.050 N 
ATOM      9  H41 UNL     1      27.379  38.339  72.819  1.00  0.00     0.279 HD
ATOM     10  H42 UNL     1      27.314  38.687  74.339  1.00  0.00     0.279 HD
HETATM   11  C8  UNL     1      27.595  40.335  73.173  1.00  0.00     0.254 C 
HETATM   12  C9  UNL     1      28.369  40.380  71.908  1.00  0.00     0.152 C 
ENDROOT
BRANCH   1  13
HETATM   13  C3  UNL     1      28.595  41.206  69.694  1.00  0.00     0.211 C 
HETATM   14  C4  UNL     1      28.887  42.684  69.405  1.00  0.00     0.075 C 
BRANCH  13  15
HETATM   15  C2  UNL     1      29.915  40.543  69.792  1.00  0.00     0.023 C 
HETATM   16  C1  UNL     1      30.663  40.219  68.747  1.00  0.00     0.011 C 
ENDBRANCH  13  15
BRANCH  13  17
HETATM   17  N1  UNL     1      27.940  40.702  68.501  1.00  0.00    -0.049 N 
ATOM     18  H13 UNL     1      28.567  40.643  67.699  1.00  0.00     0.277 HD
ATOM     19  H12 UNL     1      27.710  39.710  68.563  1.00  0.00     0.277 HD
ATOM     20  H11 UNL     1      27.125  41.289  68.327  1.00  0.00     0.277 HD
ENDBRANCH  13  17
ENDBRANCH   1  13
TORSDOF 3
ENDMDL
MODEL 2
REMARK VINA RESULT: -5.238381688      0.713      1.855
REMARK  3 active torsions:
REMARK  status: ('A' for Active; 'I' for Inactive)
REMARK    1  A    between atoms: C2_2  and  C3_3 
REMARK    2  A    between atoms: C3_3  and  N1_5 
REMARK    3  A    between atoms: C3_3  and  N2_9 
ROOT
HETATM    1  N2  UNL     1      27.797  39.870  70.431  1.00  0.00    -0.355 N 
HETATM    2  C5  UNL     1      28.417  39.409  71.607  1.00  0.00     0.088 C 
HETATM    3  C6  UNL     1      27.767  40.003  72.837  1.00  0.00     0.278 C 
HETATM    4  N3  UNL     1      26.997  39.027  73.574  1.00  0.00    -0.047 N 
ATOM      5  H31 UNL     1      27.405  38.871  74.496  1.00  0.00     0.279 HD
ATOM      6  H32 UNL     1      27.118  38.097  73.172  1.00  0.00     0.279 HD
HETATM    7  C7  UNL     1      25.604  39.346  73.690  1.00  0.00     0.463 C 
HETATM    8  N4  UNL     1      25.052  39.807  72.459  1.00  0.00    -0.050 N 
ATOM      9  H41 UNL     1      25.137  40.821  72.388  1.00  0.00     0.279 HD
ATOM     10  H42 UNL     1      24.036  39.719  72.469  1.00  0.00     0.279 HD
HETATM   11  C8  UNL     1      25.601  39.172  71.284  1.00  0.00     0.254 C 
HETATM   12  C9  UNL     1      26.402  40.083  70.431  1.00  0.00     0.152 C 
ENDROOT
BRANCH   1  13
HETATM   13  C3  UNL     1      28.520  40.709  69.557  1.00  0.00     0.211 C 
HETATM   14  C4  UNL     1      28.171  42.166  69.888  1.00  0.00     0.075 C 
BRANCH  13  15
HETATM   15  C2  UNL     1      29.992  40.609  69.667  1.00  0.00     0.023 C 
HETATM   16  C1  UNL     1      30.781  40.172  68.696  1.00  0.00     0.011 C 
ENDBRANCH  13  15
BRANCH  13  17
HETATM   17  N1  UNL     1      28.172  40.537  68.159  1.00  0.00    -0.049 N 
ATOM     18  H13 UNL     1      27.380  39.910  68.021  1.00  0.00     0.277 HD
ATOM     19  H12 UNL     1      27.755  41.371  67.748  1.00  0.00     0.277 HD
ATOM     20  H11 UNL     1      29.012  40.230  67.670  1.00  0.00     0.277 HD
ENDBRANCH  13  17
ENDBRANCH   1  13
TORSDOF 3
ENDMDL
MODEL 3
REMARK VINA RESULT: -5.080047337      1.073      1.417
REMARK  3 active torsions:
REMARK  status: ('A' for Active; 'I' for Inactive)
REMARK    1  A    between atoms: C2_2  and  C3_3 
REMARK    2  A    between atoms: C3_3  and  N1_5 
REMARK    3  A    between atoms: C3_3  and  N2_9 
ROOT
HETATM    1  N2  UNL     1      27.789  41.191  70.989  1.00  0.00    -0.355 N 
HETATM    2  C5  UNL     1      26.394  41.207  70.819  1.00  0.00     0.088 C 
HETATM    3  C6  UNL     1      25.787  39.863  71.155  1.00  0.00     0.278 C 
HETATM    4  N3  UNL     1      25.035  39.895  72.390  1.00  0.00    -0.047 N 
ATOM      5  H31 UNL     1      24.047  39.720  72.212  1.00  0.00     0.279 HD
ATOM      6  H32 UNL     1      24.980  40.847  72.750  1.00  0.00     0.279 HD
HETATM    7  C7  UNL     1      25.529  39.004  73.399  1.00  0.00     0.463 C 
HETATM    8  N4  UNL     1      26.950  39.045  73.507  1.00  0.00    -0.050 N 
ATOM      9  H41 UNL     1      27.375  38.356  72.886  1.00  0.00     0.279 HD
ATOM     10  H42 UNL     1      27.250  38.674  74.408  1.00  0.00     0.279 HD
HETATM   11  C8  UNL     1      27.528  40.350  73.282  1.00  0.00     0.254 C 
HETATM   12  C9  UNL     1      28.343  40.438  72.046  1.00  0.00     0.152 C 
ENDROOT
BRANCH   1  13
HETATM   13  C3  UNL     1      28.621  41.311  69.855  1.00  0.00     0.211 C 
HETATM   14  C4  UNL     1      27.912  40.654  68.664  1.00  0.00     0.075 C 
BRANCH  13  15
HETATM   15  C2  UNL     1      28.915  42.699  69.437  1.00  0.00     0.023 C 
HETATM   16  C1  UNL     1      29.840  43.027  68.546  1.00  0.00     0.011 C 
ENDBRANCH  13  15
BRANCH  13  17
HETATM   17  N1  UNL     1      29.887  40.615  69.982  1.00  0.00    -0.049 N 
ATOM     18  H13 UNL     1      29.780  39.602  70.048  1.00  0.00     0.277 HD
ATOM     19  H12 UNL     1      30.439  40.634  69.125  1.00  0.00     0.277 HD
ATOM     20  H11 UNL     1      30.379  41.015  70.780  1.00  0.00     0.277 HD
ENDBRANCH  13  17
ENDBRANCH   1  13
TORSDOF 3
ENDMDL
MODEL 4
REMARK VINA RESULT: -5.070476237      1.336      4.575
REMARK  3 active torsions:
REMARK  status: ('A' for Active; 'I' for Inactive)
REMARK    1  A    between atoms: C2_2  and  C3_3 
REMARK    2  A    between atoms: C3_3  and  N1_5 
REMARK    3  A    between atoms: C3_3  and  N2_9 
ROOT
HETATM    1  N2  UNL     1      27.713  39.819  71.296  1.00  0.00    -0.355 N 
HETATM    2  C5  UNL     1      26.820  39.873  70.211  1.00  0.00     0.088 C 
HETATM    3  C6  UNL     1      26.809  41.246  69.578  1.00  0.00     0.278 C 
HETATM    4  N3  UNL     1      27.448  41.257  68.281  1.00  0.00    -0.047 N 
ATOM      5  H31 UNL     1      26.771  41.480  67.551  1.00  0.00     0.279 HD
ATOM      6  H32 UNL     1      27.700  40.310  67.998  1.00  0.00     0.279 HD
HETATM    7  C7  UNL     1      28.584  42.126  68.195  1.00  0.00     0.463 C 
HETATM    8  N4  UNL     1      29.437  42.015  69.332  1.00  0.00    -0.050 N 
ATOM      9  H41 UNL     1      29.157  42.679  70.053  1.00  0.00     0.279 HD
ATOM     10  H42 UNL     1      30.367  42.374  69.116  1.00  0.00     0.279 HD
HETATM   11  C8  UNL     1      29.527  40.682  69.881  1.00  0.00     0.254 C 
HETATM   12  C9  UNL     1      28.919  40.549  71.228  1.00  0.00     0.152 C 
ENDROOT
BRANCH   1  13
HETATM   13  C3  UNL     1      27.200  39.654  72.600  1.00  0.00     0.211 C 
HETATM   14  C4  UNL     1      27.108  41.035  73.262  1.00  0.00     0.075 C 
BRANCH  13  15
HETATM   15  C2  UNL     1      25.838  39.079  72.670  1.00  0.00     0.023 C 
HETATM   16  C1  UNL     1      25.244  38.709  73.795  1.00  0.00     0.011 C 
ENDBRANCH  13  15
BRANCH  13  17
HETATM   17  N1  UNL     1      28.052  38.865  73.469  1.00  0.00    -0.049 N 
ATOM     18  H13 UNL     1      27.589  38.587  74.334  1.00  0.00     0.277 HD
ATOM     19  H12 UNL     1      28.231  37.929  73.107  1.00  0.00     0.277 HD
ATOM     20  H11 UNL     1      28.906  39.399  73.629  1.00  0.00     0.277 HD
ENDBRANCH  13  17
ENDBRANCH   1  13
TORSDOF 3
ENDMDL
MODEL 5
REMARK VINA RESULT: -5.029168009      1.130      2.334
REMARK  3 active torsions:
REMARK  status: ('A' for Active; 'I' for Inactive)
REMARK    1  A    between atoms: C2_2  and  C3_3 
REMARK    2  A    between atoms: C3_3  and  N1_5 
REMARK    3  A    between atoms: C3_3  and  N2_9 
ROOT
HETATM    1  N2  UNL     1      27.891  39.884  70.472  1.00  0.00    -0.355 N 
HETATM    2  C5  UNL     1      28.460  39.414  71.669  1.00  0.00     0.088 C 
HETATM    3  C6  UNL     1      27.773  40.015  72.875  1.00  0.00     0.278 C 
HETATM    4  N3  UNL     1      26.963  39.049  73.582  1.00  0.00    -0.047 N 
ATOM      5  H31 UNL     1      27.335  38.886  74.518  1.00  0.00     0.279 HD
ATOM      6  H32 UNL     1      27.087  38.118  73.183  1.00  0.00     0.279 HD
HETATM    7  C7  UNL     1      25.571  39.385  73.646  1.00  0.00     0.463 C 
HETATM    8  N4  UNL     1      25.071  39.855  72.396  1.00  0.00    -0.050 N 
ATOM      9  H41 UNL     1      25.172  40.868  72.330  1.00  0.00     0.279 HD
ATOM     10  H42 UNL     1      24.054  39.779  72.368  1.00  0.00     0.279 HD
HETATM   11  C8  UNL     1      25.656  39.213  71.241  1.00  0.00     0.254 C 
HETATM   12  C9  UNL     1      26.500  40.116  70.420  1.00  0.00     0.152 C 
ENDROOT
BRANCH   1  13
HETATM   13  C3  UNL     1      28.656  40.715  69.627  1.00  0.00     0.211 C 
HETATM   14  C4  UNL     1      28.130  40.563  68.194  1.00  0.00     0.075 C 
BRANCH  13  15
HETATM   15  C2  UNL     1      28.582  42.161  69.935  1.00  0.00     0.023 C 
HETATM   16  C1  UNL     1      29.157  43.107  69.206  1.00  0.00     0.011 C 
ENDBRANCH  13  15
BRANCH  13  17
HETATM   17  N1  UNL     1      30.059  40.353  69.563  1.00  0.00    -0.049 N 
ATOM     18  H13 UNL     1      30.237  39.558  68.950  1.00  0.00     0.277 HD
ATOM     19  H12 UNL     1      30.624  41.038  69.061  1.00  0.00     0.277 HD
ATOM     20  H11 UNL     1      30.380  40.197  70.518  1.00  0.00     0.277 HD
ENDBRANCH  13  17
ENDBRANCH   1  13
TORSDOF 3
ENDMDL
