MODEL 1
REMARK VINA RESULT: -7.218492785      0.000      0.000
REMARK  1 active torsions:
REMARK  status: ('A' for Active; 'I' for Inactive)
REMARK    1  A    between atoms: N1_1  and  C1_4 
ROOT
HETATM    1  C1  UNL     1      25.786   7.707  40.153  1.00  0.00     0.681 A 
HETATM    2  N2  UNL     1      24.841   7.738  41.090  1.00  0.00    -0.141 N 
ATOM      3  H2  UNL     1      25.063   7.415  42.032  1.00  0.00     0.189 HD
HETATM    4  C2  UNL     1      23.611   8.182  40.829  1.00  0.00     0.348 A 
HETATM    5  O1  UNL     1      22.702   8.213  41.718  1.00  0.00    -0.245 OA
HETATM    6  N3  UNL     1      23.284   8.615  39.602  1.00  0.00    -0.231 N 
HETATM    7  C3  UNL     1      24.233   8.586  38.655  1.00  0.00     0.149 A 
HETATM    8  C4  UNL     1      23.706   9.067  37.477  1.00  0.00     0.147 A 
HETATM    9  N4  UNL     1      22.427   9.379  37.748  1.00  0.00    -0.315 N 
HETATM   10  C5  UNL     1      21.434   9.887  36.990  1.00  0.00     0.102 A 
HETATM   11  C6  UNL     1      20.167  10.143  37.455  1.00  0.00     0.072 A 
HETATM   12  C7  UNL     1      19.922   9.854  38.789  1.00  0.00     0.176 A 
HETATM   13  O2  UNL     1      18.754  10.082  39.246  1.00  0.00    -0.288 OA
HETATM   14  C8  UNL     1      20.913   9.334  39.594  1.00  0.00     0.104 A 
HETATM   15  C9  UNL     1      22.154   9.107  39.050  1.00  0.00     0.127 A 
HETATM   16  N5  UNL     1      25.471   8.135  38.935  1.00  0.00    -0.175 N 
ATOM     17  H5  UNL     1      26.178   8.121  38.200  1.00  0.00     0.186 HD
ENDROOT
BRANCH   1  18
HETATM   18  N1  UNL     1      26.971   7.272  40.439  1.00  0.00    -0.234 N 
ATOM     19  H12 UNL     1      27.629   7.824  40.990  1.00  0.00     0.174 HD
ATOM     20  H11 UNL     1      27.271   6.353  40.114  1.00  0.00     0.174 HD
ENDBRANCH   1  18
TORSDOF 1
ENDMDL
MODEL 2
REMARK VINA RESULT: -6.877289967      1.715      4.791
REMARK  1 active torsions:
REMARK  status: ('A' for Active; 'I' for Inactive)
REMARK    1  A    between atoms: N1_1  and  C1_4 
ROOT
HETATM    1  C1  UNL     1      20.885  10.711  37.511  1.00  0.00     0.681 A 
HETATM    2  N2  UNL     1      20.246  10.371  38.628  1.00  0.00    -0.141 N 
ATOM      3  H2  UNL     1      19.336  10.789  38.828  1.00  0.00     0.189 HD
HETATM    4  C2  UNL     1      20.763   9.499  39.493  1.00  0.00     0.348 A 
HETATM    5  O1  UNL     1      20.159   9.170  40.563  1.00  0.00    -0.245 OA
HETATM    6  N3  UNL     1      21.956   8.930  39.263  1.00  0.00    -0.231 N 
HETATM    7  C3  UNL     1      22.604   9.267  38.138  1.00  0.00     0.149 A 
HETATM    8  C4  UNL     1      23.797   8.582  38.085  1.00  0.00     0.147 A 
HETATM    9  N4  UNL     1      23.840   7.834  39.200  1.00  0.00    -0.315 N 
HETATM   10  C5  UNL     1      24.757   6.970  39.681  1.00  0.00     0.102 A 
HETATM   11  C6  UNL     1      24.621   6.285  40.865  1.00  0.00     0.072 A 
HETATM   12  C7  UNL     1      23.461   6.515  41.588  1.00  0.00     0.176 A 
HETATM   13  O2  UNL     1      23.309   5.892  42.691  1.00  0.00    -0.288 OA
HETATM   14  C8  UNL     1      22.502   7.393  41.128  1.00  0.00     0.104 A 
HETATM   15  C9  UNL     1      22.716   8.037  39.934  1.00  0.00     0.127 A 
HETATM   16  N5  UNL     1      22.067  10.151  37.274  1.00  0.00    -0.175 N 
ATOM     17  H5  UNL     1      22.577  10.395  36.425  1.00  0.00     0.186 HD
ENDROOT
BRANCH   1  18
HETATM   18  N1  UNL     1      20.355  11.560  36.691  1.00  0.00    -0.234 N 
ATOM     19  H12 UNL     1      20.040  12.480  36.998  1.00  0.00     0.174 HD
ATOM     20  H11 UNL     1      20.243  11.319  35.706  1.00  0.00     0.174 HD
ENDBRANCH   1  18
TORSDOF 1
ENDMDL
MODEL 3
REMARK VINA RESULT: -6.509206130      2.019      5.053
REMARK  1 active torsions:
REMARK  status: ('A' for Active; 'I' for Inactive)
REMARK    1  A    between atoms: N1_1  and  C1_4 
ROOT
HETATM    1  C1  UNL     1      21.083   9.738  36.770  1.00  0.00     0.681 A 
HETATM    2  N2  UNL     1      20.618   8.570  37.210  1.00  0.00    -0.141 N 
ATOM      3  H2  UNL     1      19.698   8.254  36.903  1.00  0.00     0.189 HD
HETATM    4  C2  UNL     1      21.324   7.805  38.042  1.00  0.00     0.348 A 
HETATM    5  O1  UNL     1      20.886   6.689  38.468  1.00  0.00    -0.245 OA
HETATM    6  N3  UNL     1      22.537   8.190  38.466  1.00  0.00    -0.231 N 
HETATM    7  C3  UNL     1      23.011   9.364  38.025  1.00  0.00     0.149 A 
HETATM    8  C4  UNL     1      24.258   9.577  38.569  1.00  0.00     0.147 A 
HETATM    9  N4  UNL     1      24.510   8.505  39.339  1.00  0.00    -0.315 N 
HETATM   10  C5  UNL     1      25.566   8.165  40.107  1.00  0.00     0.102 A 
HETATM   11  C6  UNL     1      25.642   7.002  40.835  1.00  0.00     0.072 A 
HETATM   12  C7  UNL     1      24.555   6.146  40.759  1.00  0.00     0.176 A 
HETATM   13  O2  UNL     1      24.600   5.060  41.425  1.00  0.00    -0.288 OA
HETATM   14  C8  UNL     1      23.458   6.461  39.984  1.00  0.00     0.104 A 
HETATM   15  C9  UNL     1      23.462   7.644  39.286  1.00  0.00     0.127 A 
HETATM   16  N5  UNL     1      22.285  10.127  37.184  1.00  0.00    -0.175 N 
ATOM     17  H5  UNL     1      22.663  11.017  36.861  1.00  0.00     0.186 HD
ENDROOT
BRANCH   1  18
HETATM   18  N1  UNL     1      20.374  10.457  35.962  1.00  0.00    -0.234 N 
ATOM     19  H12 UNL     1      19.387  10.264  35.793  1.00  0.00     0.174 HD
ATOM     20  H11 UNL     1      20.797  11.245  35.471  1.00  0.00     0.174 HD
ENDBRANCH   1  18
TORSDOF 1
ENDMDL
MODEL 4
REMARK VINA RESULT: -6.453263542      1.408      1.507
REMARK  1 active torsions:
REMARK  status: ('A' for Active; 'I' for Inactive)
REMARK    1  A    between atoms: N1_1  and  C1_4 
ROOT
HETATM    1  C1  UNL     1      24.789   8.062  39.609  1.00  0.00     0.681 A 
HETATM    2  N2  UNL     1      24.192   8.854  40.498  1.00  0.00    -0.141 N 
ATOM      3  H2  UNL     1      24.699   9.126  41.341  1.00  0.00     0.189 HD
HETATM    4  C2  UNL     1      22.949   9.299  40.315  1.00  0.00     0.348 A 
HETATM    5  O1  UNL     1      22.372  10.054  41.161  1.00  0.00    -0.245 OA
HETATM    6  N3  UNL     1      22.253   8.962  39.219  1.00  0.00    -0.231 N 
HETATM    7  C3  UNL     1      22.850   8.166  38.320  1.00  0.00     0.149 A 
HETATM    8  C4  UNL     1      21.980   7.937  37.277  1.00  0.00     0.147 A 
HETATM    9  N4  UNL     1      20.859   8.614  37.579  1.00  0.00    -0.315 N 
HETATM   10  C5  UNL     1      19.683   8.758  36.936  1.00  0.00     0.102 A 
HETATM   11  C6  UNL     1      18.634   9.507  37.413  1.00  0.00     0.072 A 
HETATM   12  C7  UNL     1      18.823  10.142  38.631  1.00  0.00     0.176 A 
HETATM   13  O2  UNL     1      17.866  10.843  39.096  1.00  0.00    -0.288 OA
HETATM   14  C8  UNL     1      20.013  10.016  39.317  1.00  0.00     0.104 A 
HETATM   15  C9  UNL     1      21.012   9.249  38.770  1.00  0.00     0.127 A 
HETATM   16  N5  UNL     1      24.107   7.723  38.519  1.00  0.00    -0.175 N 
ATOM     17  H5  UNL     1      24.542   7.118  37.823  1.00  0.00     0.186 HD
ENDROOT
BRANCH   1  18
HETATM   18  N1  UNL     1      25.997   7.648  39.815  1.00  0.00    -0.234 N 
ATOM     19  H12 UNL     1      26.728   8.269  40.161  1.00  0.00     0.174 HD
ATOM     20  H11 UNL     1      26.243   6.675  39.631  1.00  0.00     0.174 HD
ENDBRANCH   1  18
TORSDOF 1
ENDMDL
MODEL 5
REMARK VINA RESULT: -6.130268271      2.287      5.573
REMARK  1 active torsions:
REMARK  status: ('A' for Active; 'I' for Inactive)
REMARK    1  A    between atoms: N1_1  and  C1_4 
ROOT
HETATM    1  C1  UNL     1      21.028   8.964  38.553  1.00  0.00     0.681 A 
HETATM    2  N2  UNL     1      22.078   9.691  38.177  1.00  0.00    -0.141 N 
ATOM      3  H2  UNL     1      21.933  10.500  37.572  1.00  0.00     0.189 HD
HETATM    4  C2  UNL     1      23.315   9.389  38.571  1.00  0.00     0.348 A 
HETATM    5  O1  UNL     1      24.324  10.077  38.215  1.00  0.00    -0.245 OA
HETATM    6  N3  UNL     1      23.544   8.333  39.366  1.00  0.00    -0.231 N 
HETATM    7  C3  UNL     1      22.489   7.598  39.749  1.00  0.00     0.149 A 
HETATM    8  C4  UNL     1      22.927   6.571  40.554  1.00  0.00     0.147 A 
HETATM    9  N4  UNL     1      24.261   6.715  40.639  1.00  0.00    -0.315 N 
HETATM   10  C5  UNL     1      25.212   6.009  41.284  1.00  0.00     0.102 A 
HETATM   11  C6  UNL     1      26.551   6.317  41.252  1.00  0.00     0.072 A 
HETATM   12  C7  UNL     1      26.918   7.425  40.503  1.00  0.00     0.176 A 
HETATM   13  O2  UNL     1      28.154   7.732  40.455  1.00  0.00    -0.288 OA
HETATM   14  C8  UNL     1      25.972   8.169  39.829  1.00  0.00     0.104 A 
HETATM   15  C9  UNL     1      24.654   7.793  39.914  1.00  0.00     0.127 A 
HETATM   16  N5  UNL     1      21.245   7.916  39.342  1.00  0.00    -0.175 N 
ATOM     17  H5  UNL     1      20.456   7.344  39.644  1.00  0.00     0.186 HD
ENDROOT
BRANCH   1  18
HETATM   18  N1  UNL     1      19.840   9.284  38.154  1.00  0.00    -0.234 N 
ATOM     19  H12 UNL     1      19.606  10.234  37.864  1.00  0.00     0.174 HD
ATOM     20  H11 UNL     1      19.103   8.579  38.122  1.00  0.00     0.174 HD
ENDBRANCH   1  18
TORSDOF 1
ENDMDL
