MODEL 1
REMARK VINA RESULT: -7.315087976      0.000      0.000
REMARK  3 active torsions:
REMARK  status: ('A' for Active; 'I' for Inactive)
REMARK    1  A    between atoms: C3_4  and  N2_5 
REMARK    2  A    between atoms: C8_12  and  N4_13 
REMARK    3  A    between atoms: N5_16  and  N6_17 
ROOT
HETATM    1  N1  UNL     1      27.010   8.291  40.436  1.00  0.00    -0.191 NA
HETATM    2  C1  UNL     1      25.910   8.117  40.071  1.00  0.00     0.109 C 
HETATM    3  C2  UNL     1      24.567   7.935  39.594  1.00  0.00     0.159 A 
HETATM    4  C3  UNL     1      23.805   6.855  39.927  1.00  0.00     0.145 A 
HETATM    5  N3  UNL     1      22.567   6.826  39.376  1.00  0.00    -0.173 N 
ATOM      6  H3  UNL     1      21.962   6.036  39.597  1.00  0.00     0.186 HD
HETATM    7  C8  UNL     1      22.089   7.778  38.554  1.00  0.00     0.701 A 
HETATM    8  N5  UNL     1      22.840   8.853  38.219  1.00  0.00    -0.053 N 
HETATM    9  C9  UNL     1      24.066   8.934  38.731  1.00  0.00     0.306 A 
HETATM   10  O1  UNL     1      24.790   9.931  38.433  1.00  0.00    -0.264 OA
ENDROOT
BRANCH   4  11
HETATM   11  N2  UNL     1      24.284   5.864  40.803  1.00  0.00    -0.365 N 
HETATM   12  C4  UNL     1      23.855   5.910  42.223  1.00  0.00     0.124 C 
HETATM   13  C5  UNL     1      24.315   4.686  42.894  1.00  0.00     0.021 C 
HETATM   14  C6  UNL     1      25.484   4.232  42.060  1.00  0.00     0.021 C 
HETATM   15  C7  UNL     1      25.158   4.753  40.668  1.00  0.00     0.124 C 
ENDBRANCH   4  11
BRANCH   8  16
HETATM   16  N6  UNL     1      22.312   9.828  37.360  1.00  0.00    -0.321 N 
ATOM     17  H62 UNL     1      21.462   9.681  36.817  1.00  0.00     0.178 HD
ATOM     18  H61 UNL     1      22.785  10.726  37.263  1.00  0.00     0.178 HD
ENDBRANCH   8  16
BRANCH   7  19
HETATM   19  N4  UNL     1      20.883   7.669  38.069  1.00  0.00    -0.233 N 
ATOM     20  H42 UNL     1      20.594   6.783  37.655  1.00  0.00     0.174 HD
ATOM     21  H41 UNL     1      20.248   8.465  38.108  1.00  0.00     0.174 HD
ENDBRANCH   7  19
TORSDOF 3
ENDMDL
MODEL 2
REMARK VINA RESULT: -5.995567961      0.948      1.362
REMARK  3 active torsions:
REMARK  status: ('A' for Active; 'I' for Inactive)
REMARK    1  A    between atoms: C3_4  and  N2_5 
REMARK    2  A    between atoms: C8_12  and  N4_13 
REMARK    3  A    between atoms: N5_16  and  N6_17 
ROOT
HETATM    1  N1  UNL     1      25.802   9.153  40.499  1.00  0.00    -0.191 NA
HETATM    2  C1  UNL     1      24.855   8.669  40.007  1.00  0.00     0.109 C 
HETATM    3  C2  UNL     1      23.696   8.106  39.372  1.00  0.00     0.159 A 
HETATM    4  C3  UNL     1      23.172   6.899  39.730  1.00  0.00     0.145 A 
HETATM    5  N3  UNL     1      22.089   6.504  39.017  1.00  0.00    -0.173 N 
ATOM      6  H3  UNL     1      21.663   5.607  39.249  1.00  0.00     0.186 HD
HETATM    7  C8  UNL     1      21.542   7.223  38.021  1.00  0.00     0.701 A 
HETATM    8  N5  UNL     1      22.057   8.422  37.660  1.00  0.00    -0.053 N 
HETATM    9  C9  UNL     1      23.122   8.862  38.327  1.00  0.00     0.306 A 
HETATM   10  O1  UNL     1      23.625   9.982  38.009  1.00  0.00    -0.264 OA
ENDROOT
BRANCH   4  11
HETATM   11  N2  UNL     1      23.720   6.146  40.783  1.00  0.00    -0.365 N 
HETATM   12  C4  UNL     1      24.800   5.177  40.470  1.00  0.00     0.124 C 
HETATM   13  C5  UNL     1      25.344   4.654  41.731  1.00  0.00     0.021 C 
HETATM   14  C6  UNL     1      24.224   4.850  42.719  1.00  0.00     0.021 C 
HETATM   15  C7  UNL     1      23.473   6.057  42.178  1.00  0.00     0.124 C 
ENDBRANCH   4  11
BRANCH   8  16
HETATM   16  N6  UNL     1      21.463   9.148  36.618  1.00  0.00    -0.321 N 
ATOM     17  H62 UNL     1      21.266   8.740  35.705  1.00  0.00     0.178 HD
ATOM     18  H61 UNL     1      21.212  10.126  36.762  1.00  0.00     0.178 HD
ENDBRANCH   8  16
BRANCH   7  19
HETATM   19  N4  UNL     1      20.498   6.765  37.387  1.00  0.00    -0.233 N 
ATOM     20  H42 UNL     1      20.281   5.770  37.444  1.00  0.00     0.174 HD
ATOM     21  H41 UNL     1      19.914   7.402  36.846  1.00  0.00     0.174 HD
ENDBRANCH   7  19
TORSDOF 3
ENDMDL
MODEL 3
REMARK VINA RESULT: -5.921857336      2.282      3.483
REMARK  3 active torsions:
REMARK  status: ('A' for Active; 'I' for Inactive)
REMARK    1  A    between atoms: C3_4  and  N2_5 
REMARK    2  A    between atoms: C8_12  and  N4_13 
REMARK    3  A    between atoms: N5_16  and  N6_17 
ROOT
HETATM    1  N1  UNL     1      21.622   9.990  41.247  1.00  0.00    -0.191 NA
HETATM    2  C1  UNL     1      21.618   9.424  40.221  1.00  0.00     0.109 C 
HETATM    3  C2  UNL     1      21.580   8.755  38.951  1.00  0.00     0.159 A 
HETATM    4  C3  UNL     1      22.591   7.954  38.508  1.00  0.00     0.145 A 
HETATM    5  N3  UNL     1      22.405   7.414  37.278  1.00  0.00    -0.173 N 
ATOM      6  H3  UNL     1      23.136   6.807  36.906  1.00  0.00     0.186 HD
HETATM    7  C8  UNL     1      21.316   7.630  36.520  1.00  0.00     0.701 A 
HETATM    8  N5  UNL     1      20.309   8.425  36.953  1.00  0.00    -0.053 N 
HETATM    9  C9  UNL     1      20.436   8.982  38.155  1.00  0.00     0.306 A 
HETATM   10  O1  UNL     1      19.508   9.730  38.585  1.00  0.00    -0.264 OA
ENDROOT
BRANCH   4  11
HETATM   11  N2  UNL     1      23.725   7.701  39.300  1.00  0.00    -0.365 N 
HETATM   12  C4  UNL     1      23.727   6.496  40.166  1.00  0.00     0.124 C 
HETATM   13  C5  UNL     1      25.067   6.334  40.745  1.00  0.00     0.021 C 
HETATM   14  C6  UNL     1      25.651   7.721  40.704  1.00  0.00     0.021 C 
HETATM   15  C7  UNL     1      24.960   8.368  39.513  1.00  0.00     0.124 C 
ENDBRANCH   4  11
BRANCH   8  16
HETATM   16  N6  UNL     1      19.186   8.629  36.138  1.00  0.00    -0.321 N 
ATOM     17  H62 UNL     1      19.165   9.326  35.394  1.00  0.00     0.178 HD
ATOM     18  H61 UNL     1      18.348   8.066  36.282  1.00  0.00     0.178 HD
ENDBRANCH   8  16
BRANCH   7  19
HETATM   19  N4  UNL     1      21.221   7.068  35.346  1.00  0.00    -0.233 N 
ATOM     20  H42 UNL     1      21.848   6.298  35.113  1.00  0.00     0.174 HD
ATOM     21  H41 UNL     1      20.526   7.403  34.679  1.00  0.00     0.174 HD
ENDBRANCH   7  19
TORSDOF 3
ENDMDL
MODEL 4
REMARK VINA RESULT: -5.915321200      2.246      3.363
REMARK  3 active torsions:
REMARK  status: ('A' for Active; 'I' for Inactive)
REMARK    1  A    between atoms: C3_4  and  N2_5 
REMARK    2  A    between atoms: C8_12  and  N4_13 
REMARK    3  A    between atoms: N5_16  and  N6_17 
ROOT
HETATM    1  N1  UNL     1      21.836  10.183  41.498  1.00  0.00    -0.191 NA
HETATM    2  C1  UNL     1      21.730   9.601  40.487  1.00  0.00     0.109 C 
HETATM    3  C2  UNL     1      21.571   8.917  39.234  1.00  0.00     0.159 A 
HETATM    4  C3  UNL     1      22.409   7.921  38.825  1.00  0.00     0.145 A 
HETATM    5  N3  UNL     1      22.131   7.394  37.607  1.00  0.00    -0.173 N 
ATOM      6  H3  UNL     1      22.731   6.646  37.260  1.00  0.00     0.186 HD
HETATM    7  C8  UNL     1      21.112   7.799  36.829  1.00  0.00     0.701 A 
HETATM    8  N5  UNL     1      20.277   8.787  37.228  1.00  0.00    -0.053 N 
HETATM    9  C9  UNL     1      20.501   9.342  38.417  1.00  0.00     0.306 A 
HETATM   10  O1  UNL     1      19.734  10.270  38.814  1.00  0.00    -0.264 OA
ENDROOT
BRANCH   4  11
HETATM   11  N2  UNL     1      23.465   7.474  39.638  1.00  0.00    -0.365 N 
HETATM   12  C4  UNL     1      24.767   8.182  39.557  1.00  0.00     0.124 C 
HETATM   13  C5  UNL     1      25.647   7.673  40.617  1.00  0.00     0.021 C 
HETATM   14  C6  UNL     1      25.100   6.302  40.918  1.00  0.00     0.021 C 
HETATM   15  C7  UNL     1      23.621   6.422  40.580  1.00  0.00     0.124 C 
ENDBRANCH   4  11
BRANCH   8  16
HETATM   16  N6  UNL     1      19.223   9.185  36.392  1.00  0.00    -0.321 N 
ATOM     17  H62 UNL     1      19.369   9.728  35.542  1.00  0.00     0.178 HD
ATOM     18  H61 UNL     1      18.265   8.930  36.631  1.00  0.00     0.178 HD
ENDBRANCH   8  16
BRANCH   7  19
HETATM   19  N4  UNL     1      20.919   7.234  35.668  1.00  0.00    -0.233 N 
ATOM     20  H42 UNL     1      20.978   6.218  35.595  1.00  0.00     0.174 HD
ATOM     21  H41 UNL     1      20.712   7.811  34.853  1.00  0.00     0.174 HD
ENDBRANCH   7  19
TORSDOF 3
ENDMDL
MODEL 5
REMARK VINA RESULT: -5.661432530      2.357      3.789
REMARK  3 active torsions:
REMARK  status: ('A' for Active; 'I' for Inactive)
REMARK    1  A    between atoms: C3_4  and  N2_5 
REMARK    2  A    between atoms: C8_12  and  N4_13 
REMARK    3  A    between atoms: N5_16  and  N6_17 
ROOT
HETATM    1  N1  UNL     1      20.518   9.553  40.028  1.00  0.00    -0.191 NA
HETATM    2  C1  UNL     1      21.184   9.331  39.090  1.00  0.00     0.109 C 
HETATM    3  C2  UNL     1      21.977   9.089  37.917  1.00  0.00     0.159 A 
HETATM    4  C3  UNL     1      23.123   8.350  37.941  1.00  0.00     0.145 A 
HETATM    5  N3  UNL     1      23.763   8.235  36.751  1.00  0.00    -0.173 N 
ATOM      6  H3  UNL     1      24.625   7.691  36.721  1.00  0.00     0.186 HD
HETATM    7  C8  UNL     1      23.330   8.796  35.608  1.00  0.00     0.701 A 
HETATM    8  N5  UNL     1      22.194   9.532  35.578  1.00  0.00    -0.053 N 
HETATM    9  C9  UNL     1      21.522   9.679  36.718  1.00  0.00     0.306 A 
HETATM   10  O1  UNL     1      20.455  10.363  36.717  1.00  0.00    -0.264 OA
ENDROOT
BRANCH   4  11
HETATM   11  N2  UNL     1      23.575   7.739  39.124  1.00  0.00    -0.365 N 
HETATM   12  C4  UNL     1      24.945   8.055  39.602  1.00  0.00     0.124 C 
HETATM   13  C5  UNL     1      25.127   7.464  40.934  1.00  0.00     0.021 C 
HETATM   14  C6  UNL     1      24.126   6.339  40.973  1.00  0.00     0.021 C 
HETATM   15  C7  UNL     1      23.019   6.810  40.042  1.00  0.00     0.124 C 
ENDBRANCH   4  11
BRANCH   8  16
HETATM   16  N6  UNL     1      21.769  10.103  34.369  1.00  0.00    -0.321 N 
ATOM     17  H62 UNL     1      22.311  10.810  33.874  1.00  0.00     0.178 HD
ATOM     18  H61 UNL     1      20.884   9.811  33.956  1.00  0.00     0.178 HD
ENDBRANCH   8  16
BRANCH   7  19
HETATM   19  N4  UNL     1      24.011   8.634  34.507  1.00  0.00    -0.233 N 
ATOM     20  H42 UNL     1      24.835   8.033  34.518  1.00  0.00     0.174 HD
ATOM     21  H41 UNL     1      23.714   9.106  33.654  1.00  0.00     0.174 HD
ENDBRANCH   7  19
TORSDOF 3
ENDMDL
