MODEL 1
REMARK VINA RESULT: -6.965695259      0.000      0.000
REMARK  2 active torsions:
REMARK  status: ('A' for Active; 'I' for Inactive)
REMARK    1  A    between atoms: C4_5  and  N2_6 
REMARK    2  A    between atoms: C7_14  and  N4_15 
ROOT
HETATM    1  N1  UNL     1      25.176   8.815  35.891  1.00  0.00    -0.190 NA
HETATM    2  C1  UNL     1      24.425   8.764  36.770  1.00  0.00     0.119 C 
HETATM    3  C2  UNL     1      23.499   8.692  37.880  1.00  0.00     0.141 A 
HETATM    4  C3  UNL     1      22.318   9.394  38.045  1.00  0.00     0.083 A 
HETATM    5  C4  UNL     1      21.705   9.059  39.234  1.00  0.00     0.151 A 
HETATM    6  C5  UNL     1      22.545   8.125  39.801  1.00  0.00     0.164 A 
HETATM    7  N3  UNL     1      22.449   7.449  40.972  1.00  0.00    -0.303 N 
ATOM      8  H3  UNL     1      21.645   7.614  41.579  1.00  0.00     0.171 HD
HETATM    9  C6  UNL     1      23.391   6.564  41.353  1.00  0.00     0.292 A 
HETATM   10  O3  UNL     1      23.318   5.917  42.451  1.00  0.00    -0.264 OA
HETATM   11  C7  UNL     1      24.466   6.372  40.497  1.00  0.00     0.183 A 
HETATM   12  N5  UNL     1      24.534   7.057  39.342  1.00  0.00    -0.272 N 
ATOM     13  H5  UNL     1      25.330   6.908  38.721  1.00  0.00     0.189 HD
HETATM   14  N6  UNL     1      23.600   7.917  38.992  1.00  0.00    -0.225 N 
ENDROOT
BRANCH   5  15
HETATM   15  N2  UNL     1      20.487   9.546  39.778  1.00  0.00    -0.112 N 
HETATM   16  O1  UNL     1      20.064   9.191  40.897  1.00  0.00    -0.532 OA
HETATM   17  O2  UNL     1      19.703  10.444  39.093  1.00  0.00    -0.532 OA
ENDBRANCH   5  15
BRANCH  11  18
HETATM   18  N4  UNL     1      25.387   5.526  40.837  1.00  0.00    -0.380 N 
ATOM     19  H42 UNL     1      25.232   4.838  41.574  1.00  0.00     0.158 HD
ATOM     20  H41 UNL     1      26.283   5.557  40.351  1.00  0.00     0.158 HD
ENDBRANCH  11  18
TORSDOF 2
ENDMDL
MODEL 2
REMARK VINA RESULT: -6.625542692      2.049      3.980
REMARK  2 active torsions:
REMARK  status: ('A' for Active; 'I' for Inactive)
REMARK    1  A    between atoms: C4_5  and  N2_6 
REMARK    2  A    between atoms: C7_14  and  N4_15 
ROOT
HETATM    1  N1  UNL     1      27.354   7.801  40.418  1.00  0.00    -0.190 NA
HETATM    2  C1  UNL     1      26.275   8.149  40.186  1.00  0.00     0.119 C 
HETATM    3  C2  UNL     1      24.927   8.576  39.877  1.00  0.00     0.141 A 
HETATM    4  C3  UNL     1      23.909   8.877  40.764  1.00  0.00     0.083 A 
HETATM    5  C4  UNL     1      22.762   9.250  40.095  1.00  0.00     0.151 A 
HETATM    6  C5  UNL     1      23.103   9.168  38.761  1.00  0.00     0.164 A 
HETATM    7  N3  UNL     1      22.370   9.417  37.648  1.00  0.00    -0.303 N 
ATOM      8  H3  UNL     1      21.400   9.718  37.746  1.00  0.00     0.171 HD
HETATM    9  C6  UNL     1      22.894   9.276  36.415  1.00  0.00     0.292 A 
HETATM   10  O3  UNL     1      22.222   9.507  35.355  1.00  0.00    -0.264 OA
HETATM   11  C7  UNL     1      24.217   8.865  36.330  1.00  0.00     0.183 A 
HETATM   12  N5  UNL     1      24.918   8.625  37.452  1.00  0.00    -0.272 N 
ATOM     13  H5  UNL     1      25.889   8.321  37.377  1.00  0.00     0.189 HD
HETATM   14  N6  UNL     1      24.383   8.770  38.646  1.00  0.00    -0.225 N 
ENDROOT
BRANCH   5  15
HETATM   15  N2  UNL     1      21.502   9.633  40.628  1.00  0.00    -0.112 N 
HETATM   16  O1  UNL     1      21.267   9.636  41.853  1.00  0.00    -0.532 OA
HETATM   17  O2  UNL     1      20.468  10.025  39.812  1.00  0.00    -0.532 OA
ENDBRANCH   5  15
BRANCH  11  18
HETATM   18  N4  UNL     1      24.748   8.721  35.157  1.00  0.00    -0.380 N 
ATOM     19  H42 UNL     1      25.486   9.344  34.827  1.00  0.00     0.158 HD
ATOM     20  H41 UNL     1      24.415   7.966  34.557  1.00  0.00     0.158 HD
ENDBRANCH  11  18
TORSDOF 2
ENDMDL
MODEL 3
REMARK VINA RESULT: -6.413471600      1.991      4.013
REMARK  2 active torsions:
REMARK  status: ('A' for Active; 'I' for Inactive)
REMARK    1  A    between atoms: C4_5  and  N2_6 
REMARK    2  A    between atoms: C7_14  and  N4_15 
ROOT
HETATM    1  N1  UNL     1      26.830   8.272  40.613  1.00  0.00    -0.190 NA
HETATM    2  C1  UNL     1      25.759   8.490  40.234  1.00  0.00     0.119 C 
HETATM    3  C2  UNL     1      24.423   8.754  39.742  1.00  0.00     0.141 A 
HETATM    4  C3  UNL     1      23.290   9.044  40.480  1.00  0.00     0.083 A 
HETATM    5  C4  UNL     1      22.199   9.236  39.659  1.00  0.00     0.151 A 
HETATM    6  C5  UNL     1      22.694   9.055  38.385  1.00  0.00     0.164 A 
HETATM    7  N3  UNL     1      22.074   9.121  37.181  1.00  0.00    -0.303 N 
ATOM      8  H3  UNL     1      21.077   9.336  37.144  1.00  0.00     0.171 HD
HETATM    9  C6  UNL     1      22.745   8.909  36.032  1.00  0.00     0.292 A 
HETATM   10  O3  UNL     1      22.179   8.967  34.889  1.00  0.00    -0.264 OA
HETATM   11  C7  UNL     1      24.098   8.619  36.130  1.00  0.00     0.183 A 
HETATM   12  N5  UNL     1      24.685   8.560  37.339  1.00  0.00    -0.272 N 
ATOM     13  H5  UNL     1      25.681   8.345  37.398  1.00  0.00     0.189 HD
HETATM   14  N6  UNL     1      24.008   8.772  38.447  1.00  0.00    -0.225 N 
ENDROOT
BRANCH   5  15
HETATM   15  N2  UNL     1      20.860   9.549  40.013  1.00  0.00    -0.112 N 
HETATM   16  O1  UNL     1      20.124  10.253  39.292  1.00  0.00    -0.532 OA
HETATM   17  O2  UNL     1      20.300   9.088  41.180  1.00  0.00    -0.532 OA
ENDBRANCH   5  15
BRANCH  11  18
HETATM   18  N4  UNL     1      24.769   8.410  35.041  1.00  0.00    -0.380 N 
ATOM     19  H42 UNL     1      24.829   7.482  34.623  1.00  0.00     0.158 HD
ATOM     20  H41 UNL     1      25.245   9.198  34.601  1.00  0.00     0.158 HD
ENDBRANCH  11  18
TORSDOF 2
ENDMDL
MODEL 4
REMARK VINA RESULT: -6.411473764      2.882      5.265
REMARK  2 active torsions:
REMARK  status: ('A' for Active; 'I' for Inactive)
REMARK    1  A    between atoms: C4_5  and  N2_6 
REMARK    2  A    between atoms: C7_14  and  N4_15 
ROOT
HETATM    1  N1  UNL     1      19.987   9.268  40.821  1.00  0.00    -0.190 NA
HETATM    2  C1  UNL     1      21.078   9.031  40.517  1.00  0.00     0.119 C 
HETATM    3  C2  UNL     1      22.441   8.746  40.121  1.00  0.00     0.141 A 
HETATM    4  C3  UNL     1      23.485   8.320  40.922  1.00  0.00     0.083 A 
HETATM    5  C4  UNL     1      24.639   8.153  40.186  1.00  0.00     0.151 A 
HETATM    6  C5  UNL     1      24.276   8.493  38.900  1.00  0.00     0.164 A 
HETATM    7  N3  UNL     1      25.004   8.518  37.757  1.00  0.00    -0.303 N 
ATOM      8  H3  UNL     1      25.989   8.253  37.786  1.00  0.00     0.171 HD
HETATM    9  C6  UNL     1      24.456   8.885  36.582  1.00  0.00     0.292 A 
HETATM   10  O3  UNL     1      25.124   8.914  35.494  1.00  0.00    -0.264 OA
HETATM   11  C7  UNL     1      23.114   9.237  36.589  1.00  0.00     0.183 A 
HETATM   12  N5  UNL     1      22.418   9.203  37.739  1.00  0.00    -0.272 N 
ATOM     13  H5  UNL     1      21.432   9.465  37.732  1.00  0.00     0.189 HD
HETATM   14  N6  UNL     1      22.976   8.840  38.875  1.00  0.00    -0.225 N 
ENDROOT
BRANCH   5  15
HETATM   15  N2  UNL     1      25.924   7.732  40.622  1.00  0.00    -0.112 N 
HETATM   16  O1  UNL     1      26.112   6.637  41.190  1.00  0.00    -0.532 OA
HETATM   17  O2  UNL     1      27.036   8.517  40.440  1.00  0.00    -0.532 OA
ENDBRANCH   5  15
BRANCH  11  18
HETATM   18  N4  UNL     1      22.559   9.594  35.473  1.00  0.00    -0.380 N 
ATOM     19  H42 UNL     1      22.185   8.905  34.821  1.00  0.00     0.158 HD
ATOM     20  H41 UNL     1      22.501  10.588  35.251  1.00  0.00     0.158 HD
ENDBRANCH  11  18
TORSDOF 2
ENDMDL
MODEL 5
REMARK VINA RESULT: -5.986213846      2.766      5.151
REMARK  2 active torsions:
REMARK  status: ('A' for Active; 'I' for Inactive)
REMARK    1  A    between atoms: C4_5  and  N2_6 
REMARK    2  A    between atoms: C7_14  and  N4_15 
ROOT
HETATM    1  N1  UNL     1      19.281   9.969  39.397  1.00  0.00    -0.190 NA
HETATM    2  C1  UNL     1      20.391   9.647  39.334  1.00  0.00     0.119 C 
HETATM    3  C2  UNL     1      21.780   9.253  39.236  1.00  0.00     0.141 A 
HETATM    4  C3  UNL     1      22.636   8.904  40.265  1.00  0.00     0.083 A 
HETATM    5  C4  UNL     1      23.889   8.587  39.782  1.00  0.00     0.151 A 
HETATM    6  C5  UNL     1      23.781   8.752  38.417  1.00  0.00     0.164 A 
HETATM    7  N3  UNL     1      24.699   8.582  37.434  1.00  0.00    -0.303 N 
ATOM      8  H3  UNL     1      25.644   8.285  37.679  1.00  0.00     0.171 HD
HETATM    9  C6  UNL     1      24.391   8.798  36.141  1.00  0.00     0.292 A 
HETATM   10  O3  UNL     1      25.240   8.643  35.200  1.00  0.00    -0.264 OA
HETATM   11  C7  UNL     1      23.095   9.202  35.854  1.00  0.00     0.183 A 
HETATM   12  N5  UNL     1      22.206   9.362  36.851  1.00  0.00    -0.272 N 
ATOM     13  H5  UNL     1      21.257   9.660  36.628  1.00  0.00     0.189 HD
HETATM   14  N6  UNL     1      22.531   9.144  38.108  1.00  0.00    -0.225 N 
ENDROOT
BRANCH   5  15
HETATM   15  N2  UNL     1      25.046   8.181  40.500  1.00  0.00    -0.112 N 
HETATM   16  O1  UNL     1      26.090   8.863  40.525  1.00  0.00    -0.532 OA
HETATM   17  O2  UNL     1      25.074   7.005  41.209  1.00  0.00    -0.532 OA
ENDBRANCH   5  15
BRANCH  11  18
HETATM   18  N4  UNL     1      22.770   9.416  34.618  1.00  0.00    -0.380 N 
ATOM     19  H42 UNL     1      22.025  10.068  34.369  1.00  0.00     0.158 HD
ATOM     20  H41 UNL     1      23.275   8.918  33.885  1.00  0.00     0.158 HD
ENDBRANCH  11  18
TORSDOF 2
ENDMDL
