MODEL 1
REMARK VINA RESULT: -7.006220601      0.000      0.000
REMARK  1 active torsions:
REMARK  status: ('A' for Active; 'I' for Inactive)
REMARK    1  A    between atoms: C4_7  and  N3_8 
ROOT
HETATM    1  N1  UNL     1      26.927   8.268  40.359  1.00  0.00    -0.100 NA
HETATM    2  C1  UNL     1      25.626   7.698  40.321  1.00  0.00     0.075 A 
HETATM    3  C2  UNL     1      25.355   6.467  40.884  1.00  0.00     0.045 A 
HETATM    4  C3  UNL     1      24.062   6.006  40.792  1.00  0.00     0.091 A 
HETATM    5  N2  UNL     1      23.064   6.666  40.199  1.00  0.00    -0.350 N 
ATOM      6  H2  UNL     1      22.125   6.270  40.164  1.00  0.00     0.166 HD
HETATM    7  C4  UNL     1      23.327   7.872  39.648  1.00  0.00     0.142 A 
HETATM    8  C9  UNL     1      24.593   8.385  39.706  1.00  0.00     0.115 A 
HETATM    9  N5  UNL     1      24.878   9.666  39.121  1.00  0.00    -0.096 NA
ENDROOT
BRANCH   7  10
HETATM   10  N3  UNL     1      22.296   8.630  38.997  1.00  0.00    -0.258 N 
HETATM   11  C5  UNL     1      22.143   8.626  37.657  1.00  0.00     0.109 A 
HETATM   12  C6  UNL     1      21.145   9.359  37.033  1.00  0.00     0.092 A 
HETATM   13  C7  UNL     1      20.318  10.093  37.864  1.00  0.00     0.250 A 
HETATM   14  O1  UNL     1      19.400  10.776  37.376  1.00  0.00    -0.268 OA
HETATM   15  N4  UNL     1      20.484  10.086  39.201  1.00  0.00    -0.275 N 
HETATM   16  C8  UNL     1      21.475   9.354  39.778  1.00  0.00     0.335 A 
ATOM     17  H4  UNL     1      19.859  10.638  39.788  1.00  0.00     0.173 HD
HETATM   18  O2  UNL     1      21.593   9.376  41.024  1.00  0.00    -0.246 OA
ENDBRANCH   7  10
TORSDOF 1
ENDMDL
MODEL 2
REMARK VINA RESULT: -6.896486520      2.167      5.566
REMARK  1 active torsions:
REMARK  status: ('A' for Active; 'I' for Inactive)
REMARK    1  A    between atoms: C4_7  and  N3_8 
ROOT
HETATM    1  N1  UNL     1      18.080  10.689  39.254  1.00  0.00    -0.100 NA
HETATM    2  C1  UNL     1      19.287  10.423  38.554  1.00  0.00     0.075 A 
HETATM    3  C2  UNL     1      19.483  10.848  37.256  1.00  0.00     0.045 A 
HETATM    4  C3  UNL     1      20.688  10.538  36.670  1.00  0.00     0.091 A 
HETATM    5  N2  UNL     1      21.669   9.860  37.270  1.00  0.00    -0.350 N 
ATOM      6  H2  UNL     1      22.542   9.661  36.781  1.00  0.00     0.166 HD
HETATM    7  C4  UNL     1      21.480   9.444  38.542  1.00  0.00     0.142 A 
HETATM    8  C9  UNL     1      20.303   9.720  39.181  1.00  0.00     0.115 A 
HETATM    9  N5  UNL     1      20.095   9.280  40.532  1.00  0.00    -0.096 NA
ENDROOT
BRANCH   7  10
HETATM   10  N3  UNL     1      22.498   8.711  39.242  1.00  0.00    -0.258 N 
HETATM   11  C5  UNL     1      23.388   9.321  40.052  1.00  0.00     0.109 A 
HETATM   12  C6  UNL     1      24.367   8.609  40.727  1.00  0.00     0.092 A 
HETATM   13  C7  UNL     1      24.379   7.241  40.521  1.00  0.00     0.250 A 
HETATM   14  O1  UNL     1      25.230   6.536  41.093  1.00  0.00    -0.268 OA
HETATM   15  N4  UNL     1      23.482   6.649  39.709  1.00  0.00    -0.275 N 
HETATM   16  C8  UNL     1      22.534   7.380  39.064  1.00  0.00     0.335 A 
ATOM     17  H4  UNL     1      23.516   5.638  39.576  1.00  0.00     0.173 HD
HETATM   18  O2  UNL     1      21.720   6.788  38.318  1.00  0.00    -0.246 OA
ENDBRANCH   7  10
TORSDOF 1
ENDMDL
MODEL 3
REMARK VINA RESULT: -6.687780559      2.473      5.543
REMARK  1 active torsions:
REMARK  status: ('A' for Active; 'I' for Inactive)
REMARK    1  A    between atoms: C4_7  and  N3_8 
ROOT
HETATM    1  N1  UNL     1      20.434  10.019  39.702  1.00  0.00    -0.100 NA
HETATM    2  C1  UNL     1      21.462   9.281  39.057  1.00  0.00     0.075 A 
HETATM    3  C2  UNL     1      21.634   9.318  37.688  1.00  0.00     0.045 A 
HETATM    4  C3  UNL     1      22.660   8.567  37.164  1.00  0.00     0.091 A 
HETATM    5  N2  UNL     1      23.492   7.812  37.888  1.00  0.00    -0.350 N 
ATOM      6  H2  UNL     1      24.235   7.277  37.439  1.00  0.00     0.166 HD
HETATM    7  C4  UNL     1      23.326   7.776  39.229  1.00  0.00     0.142 A 
HETATM    8  C9  UNL     1      22.323   8.501  39.811  1.00  0.00     0.115 A 
HETATM    9  N5  UNL     1      22.142   8.465  41.236  1.00  0.00    -0.096 NA
ENDROOT
BRANCH   7  10
HETATM   10  N3  UNL     1      24.188   6.985  40.062  1.00  0.00    -0.258 N 
HETATM   11  C5  UNL     1      23.742   5.896  40.721  1.00  0.00     0.109 A 
HETATM   12  C6  UNL     1      24.578   5.134  41.523  1.00  0.00     0.092 A 
HETATM   13  C7  UNL     1      25.893   5.556  41.606  1.00  0.00     0.250 A 
HETATM   14  O1  UNL     1      26.703   4.923  42.307  1.00  0.00    -0.268 OA
HETATM   15  N4  UNL     1      26.322   6.646  40.941  1.00  0.00    -0.275 N 
HETATM   16  C8  UNL     1      25.472   7.368  40.162  1.00  0.00     0.335 A 
ATOM     17  H4  UNL     1      27.297   6.933  41.022  1.00  0.00     0.173 HD
HETATM   18  O2  UNL     1      25.913   8.374  39.561  1.00  0.00    -0.246 OA
ENDBRANCH   7  10
TORSDOF 1
ENDMDL
MODEL 4
REMARK VINA RESULT: -6.509079981      1.487      2.146
REMARK  1 active torsions:
REMARK  status: ('A' for Active; 'I' for Inactive)
REMARK    1  A    between atoms: C4_7  and  N3_8 
ROOT
HETATM    1  N1  UNL     1      24.311   5.736  40.229  1.00  0.00    -0.100 NA
HETATM    2  C1  UNL     1      24.076   7.136  40.171  1.00  0.00     0.075 A 
HETATM    3  C2  UNL     1      24.930   8.042  40.766  1.00  0.00     0.045 A 
HETATM    4  C3  UNL     1      24.611   9.375  40.651  1.00  0.00     0.091 A 
HETATM    5  N2  UNL     1      23.539   9.843  40.006  1.00  0.00    -0.350 N 
ATOM      6  H2  UNL     1      23.356  10.846  39.956  1.00  0.00     0.166 HD
HETATM    7  C4  UNL     1      22.701   8.958  39.422  1.00  0.00     0.142 A 
HETATM    8  C9  UNL     1      22.963   7.618  39.501  1.00  0.00     0.115 A 
HETATM    9  N5  UNL     1      22.076   6.673  38.882  1.00  0.00    -0.096 NA
ENDROOT
BRANCH   7  10
HETATM   10  N3  UNL     1      21.532   9.399  38.713  1.00  0.00    -0.258 N 
HETATM   11  C5  UNL     1      21.543   9.616  37.382  1.00  0.00     0.109 A 
HETATM   12  C6  UNL     1      20.412  10.040  36.702  1.00  0.00     0.092 A 
HETATM   13  C7  UNL     1      19.275  10.229  37.468  1.00  0.00     0.250 A 
HETATM   14  O1  UNL     1      18.221  10.609  36.928  1.00  0.00    -0.268 OA
HETATM   15  N4  UNL     1      19.282  10.008  38.797  1.00  0.00    -0.275 N 
HETATM   16  C8  UNL     1      20.411   9.590  39.430  1.00  0.00     0.335 A 
ATOM     17  H4  UNL     1      18.429  10.156  39.336  1.00  0.00     0.173 HD
HETATM   18  O2  UNL     1      20.373   9.397  40.666  1.00  0.00    -0.246 OA
ENDBRANCH   7  10
TORSDOF 1
ENDMDL
MODEL 5
REMARK VINA RESULT: -6.505277694      1.965      5.407
REMARK  1 active torsions:
REMARK  status: ('A' for Active; 'I' for Inactive)
REMARK    1  A    between atoms: C4_7  and  N3_8 
ROOT
HETATM    1  N1  UNL     1      18.779  10.251  39.316  1.00  0.00    -0.100 NA
HETATM    2  C1  UNL     1      19.972   9.958  38.602  1.00  0.00     0.075 A 
HETATM    3  C2  UNL     1      20.147  10.344  37.289  1.00  0.00     0.045 A 
HETATM    4  C3  UNL     1      21.340  10.011  36.690  1.00  0.00     0.091 A 
HETATM    5  N2  UNL     1      22.329   9.346  37.293  1.00  0.00    -0.350 N 
ATOM      6  H2  UNL     1      23.192   9.129  36.794  1.00  0.00     0.166 HD
HETATM    7  C4  UNL     1      22.160   8.968  38.580  1.00  0.00     0.142 A 
HETATM    8  C9  UNL     1      20.996   9.269  39.231  1.00  0.00     0.115 A 
HETATM    9  N5  UNL     1      20.811   8.869  40.598  1.00  0.00    -0.096 NA
ENDROOT
BRANCH   7  10
HETATM   10  N3  UNL     1      23.187   8.251  39.283  1.00  0.00    -0.258 N 
HETATM   11  C5  UNL     1      22.986   7.010  39.770  1.00  0.00     0.109 A 
HETATM   12  C6  UNL     1      23.981   6.321  40.447  1.00  0.00     0.092 A 
HETATM   13  C7  UNL     1      25.188   6.981  40.594  1.00  0.00     0.250 A 
HETATM   14  O1  UNL     1      26.128   6.426  41.190  1.00  0.00    -0.268 OA
HETATM   15  N4  UNL     1      25.371   8.221  40.101  1.00  0.00    -0.275 N 
HETATM   16  C8  UNL     1      24.372   8.866  39.441  1.00  0.00     0.335 A 
ATOM     17  H4  UNL     1      26.272   8.683  40.225  1.00  0.00     0.173 HD
HETATM   18  O2  UNL     1      24.586  10.017  38.999  1.00  0.00    -0.246 OA
ENDBRANCH   7  10
TORSDOF 1
ENDMDL
