MODEL 1
REMARK VINA RESULT: -6.215138394      0.000      0.000
REMARK  3 active torsions:
REMARK  status: ('A' for Active; 'I' for Inactive)
REMARK    1  A    between atoms: C2_3  and  N2_4 
REMARK    2  A    between atoms: N2_4  and  N3_6 
REMARK    3  A    between atoms: C9_19  and  N6_20 
ROOT
HETATM    1  C1  UNL     1      19.215  10.121  38.973  1.00  0.00     0.177 C 
HETATM    2  N1  UNL     1      20.620   9.776  38.886  1.00  0.00    -0.171 N 
HETATM    3  C2  UNL     1      21.306  10.024  37.756  1.00  0.00     0.701 A 
HETATM    4  N4  UNL     1      22.636   9.684  37.712  1.00  0.00    -0.174 N 
ATOM      5  H4  UNL     1      23.162   9.870  36.858  1.00  0.00     0.186 HD
HETATM    6  C3  UNL     1      23.254   9.128  38.729  1.00  0.00     0.139 A 
HETATM    7  C4  UNL     1      22.524   8.877  39.895  1.00  0.00     0.053 A 
HETATM    8  C5  UNL     1      23.163   8.303  40.948  1.00  0.00     0.024 A 
HETATM    9  C6  UNL     1      24.500   7.975  40.865  1.00  0.00     0.075 A 
HETATM   10  C7  UNL     1      25.155   8.250  39.688  1.00  0.00     0.248 A 
HETATM   11  O1  UNL     1      26.373   7.960  39.592  1.00  0.00    -0.268 OA
HETATM   12  N5  UNL     1      24.556   8.815  38.632  1.00  0.00    -0.303 N 
HETATM   13  C8  UNL     1      25.263   9.099  37.399  1.00  0.00     0.161 C 
HETATM   14  C9  UNL     1      21.194   9.205  39.973  1.00  0.00     0.131 A 
ENDROOT
BRANCH   3  15
HETATM   15  N2  UNL     1      20.836  10.557  36.695  1.00  0.00    -0.138 N 
ATOM     16  H2  UNL     1      20.319   9.916  36.092  1.00  0.00     0.205 HD
BRANCH  15  17
HETATM   17  N3  UNL     1      20.908  11.840  36.231  1.00  0.00    -0.331 N 
ATOM     18  H32 UNL     1      20.029  12.350  36.316  1.00  0.00     0.177 HD
ATOM     19  H31 UNL     1      21.685  12.359  35.822  1.00  0.00     0.177 HD
ENDBRANCH  15  17
ENDBRANCH   3  15
BRANCH  14  20
HETATM   20  N6  UNL     1      20.509   8.998  40.993  1.00  0.00    -0.384 N 
ATOM     21  H62 UNL     1      19.762   9.624  41.291  1.00  0.00     0.157 HD
ATOM     22  H61 UNL     1      20.693   8.173  41.564  1.00  0.00     0.157 HD
ENDBRANCH  14  20
TORSDOF 3
ENDMDL
MODEL 2
REMARK VINA RESULT: -5.835735666      2.472      4.484
REMARK  3 active torsions:
REMARK  status: ('A' for Active; 'I' for Inactive)
REMARK    1  A    between atoms: C2_3  and  N2_4 
REMARK    2  A    between atoms: N2_4  and  N3_6 
REMARK    3  A    between atoms: C9_19  and  N6_20 
ROOT
HETATM    1  C1  UNL     1      23.283   6.528  41.664  1.00  0.00     0.177 C 
HETATM    2  N1  UNL     1      23.295   7.177  40.368  1.00  0.00    -0.171 N 
HETATM    3  C2  UNL     1      24.423   7.204  39.637  1.00  0.00     0.701 A 
HETATM    4  N4  UNL     1      24.395   7.826  38.413  1.00  0.00    -0.174 N 
ATOM      5  H4  UNL     1      25.248   7.850  37.855  1.00  0.00     0.186 HD
HETATM    6  C3  UNL     1      23.309   8.392  37.937  1.00  0.00     0.139 A 
HETATM    7  C4  UNL     1      22.145   8.355  38.711  1.00  0.00     0.053 A 
HETATM    8  C5  UNL     1      21.022   8.940  38.219  1.00  0.00     0.024 A 
HETATM    9  C6  UNL     1      21.032   9.556  36.985  1.00  0.00     0.075 A 
HETATM   10  C7  UNL     1      22.212   9.555  36.280  1.00  0.00     0.248 A 
HETATM   11  O1  UNL     1      22.243  10.111  35.153  1.00  0.00    -0.268 OA
HETATM   12  N5  UNL     1      23.336   8.988  36.734  1.00  0.00    -0.303 N 
HETATM   13  C8  UNL     1      24.571   8.996  35.976  1.00  0.00     0.161 C 
HETATM   14  C9  UNL     1      22.139   7.740  39.938  1.00  0.00     0.131 A 
ENDROOT
BRANCH   3  15
HETATM   15  N2  UNL     1      25.546   6.697  39.974  1.00  0.00    -0.138 N 
ATOM     16  H2  UNL     1      25.582   5.678  39.930  1.00  0.00     0.205 HD
BRANCH  15  17
HETATM   17  N3  UNL     1      26.708   7.290  40.382  1.00  0.00    -0.331 N 
ATOM     18  H32 UNL     1      27.118   7.903  39.678  1.00  0.00     0.177 HD
ATOM     19  H31 UNL     1      27.219   7.219  41.262  1.00  0.00     0.177 HD
ENDBRANCH  15  17
ENDBRANCH   3  15
BRANCH  14  20
HETATM   20  N6  UNL     1      21.123   7.686  40.657  1.00  0.00    -0.384 N 
ATOM     21  H62 UNL     1      20.614   6.819  40.826  1.00  0.00     0.157 HD
ATOM     22  H61 UNL     1      20.774   8.535  41.101  1.00  0.00     0.157 HD
ENDBRANCH  14  20
TORSDOF 3
ENDMDL
MODEL 3
REMARK VINA RESULT: -5.828035982      2.088      3.244
REMARK  3 active torsions:
REMARK  status: ('A' for Active; 'I' for Inactive)
REMARK    1  A    between atoms: C2_3  and  N2_4 
REMARK    2  A    between atoms: N2_4  and  N3_6 
REMARK    3  A    between atoms: C9_19  and  N6_20 
ROOT
HETATM    1  C1  UNL     1      21.930  10.095  35.692  1.00  0.00     0.177 C 
HETATM    2  N1  UNL     1      22.295   9.333  36.870  1.00  0.00    -0.171 N 
HETATM    3  C2  UNL     1      23.268   8.408  36.800  1.00  0.00     0.701 A 
HETATM    4  N4  UNL     1      23.587   7.707  37.937  1.00  0.00    -0.174 N 
ATOM      5  H4  UNL     1      24.324   7.004  37.890  1.00  0.00     0.186 HD
HETATM    6  C3  UNL     1      22.977   7.909  39.082  1.00  0.00     0.139 A 
HETATM    7  C4  UNL     1      21.967   8.876  39.137  1.00  0.00     0.053 A 
HETATM    8  C5  UNL     1      21.336   9.087  40.321  1.00  0.00     0.024 A 
HETATM    9  C6  UNL     1      21.684   8.362  41.443  1.00  0.00     0.075 A 
HETATM   10  C7  UNL     1      22.685   7.429  41.315  1.00  0.00     0.248 A 
HETATM   11  O1  UNL     1      23.017   6.758  42.325  1.00  0.00    -0.268 OA
HETATM   12  N5  UNL     1      23.327   7.196  40.164  1.00  0.00    -0.303 N 
HETATM   13  C8  UNL     1      24.381   6.208  40.049  1.00  0.00     0.161 C 
HETATM   14  C9  UNL     1      21.624   9.595  38.019  1.00  0.00     0.131 A 
ENDROOT
BRANCH   3  15
HETATM   15  N2  UNL     1      23.942   8.107  35.757  1.00  0.00    -0.138 N 
ATOM     16  H2  UNL     1      23.415   7.604  35.043  1.00  0.00     0.205 HD
BRANCH  15  17
HETATM   17  N3  UNL     1      25.249   8.345  35.438  1.00  0.00    -0.331 N 
ATOM     18  H32 UNL     1      25.905   8.007  36.142  1.00  0.00     0.177 HD
ATOM     19  H31 UNL     1      25.665   8.798  34.625  1.00  0.00     0.177 HD
ENDBRANCH  15  17
ENDBRANCH   3  15
BRANCH  14  20
HETATM   20  N6  UNL     1      20.731  10.463  38.027  1.00  0.00    -0.384 N 
ATOM     21  H62 UNL     1      19.813  10.311  37.611  1.00  0.00     0.157 HD
ATOM     22  H61 UNL     1      20.911  11.368  38.462  1.00  0.00     0.157 HD
ENDBRANCH  14  20
TORSDOF 3
ENDMDL
MODEL 4
REMARK VINA RESULT: -5.580639473      2.224      3.102
REMARK  3 active torsions:
REMARK  status: ('A' for Active; 'I' for Inactive)
REMARK    1  A    between atoms: C2_3  and  N2_4 
REMARK    2  A    between atoms: N2_4  and  N3_6 
REMARK    3  A    between atoms: C9_19  and  N6_20 
ROOT
HETATM    1  C1  UNL     1      19.030   9.982  35.720  1.00  0.00     0.177 C 
HETATM    2  N1  UNL     1      19.791   9.734  36.929  1.00  0.00    -0.171 N 
HETATM    3  C2  UNL     1      19.856  10.674  37.888  1.00  0.00     0.701 A 
HETATM    4  N4  UNL     1      20.586  10.404  39.020  1.00  0.00    -0.174 N 
ATOM      5  H4  UNL     1      20.639  11.112  39.751  1.00  0.00     0.186 HD
HETATM    6  C3  UNL     1      21.217   9.265  39.194  1.00  0.00     0.139 A 
HETATM    7  C4  UNL     1      21.138   8.299  38.185  1.00  0.00     0.053 A 
HETATM    8  C5  UNL     1      21.791   7.121  38.364  1.00  0.00     0.024 A 
HETATM    9  C6  UNL     1      22.514   6.885  39.515  1.00  0.00     0.075 A 
HETATM   10  C7  UNL     1      22.548   7.879  40.464  1.00  0.00     0.248 A 
HETATM   11  O1  UNL     1      23.201   7.685  41.520  1.00  0.00    -0.268 OA
HETATM   12  N5  UNL     1      21.917   9.051  40.320  1.00  0.00    -0.303 N 
HETATM   13  C8  UNL     1      21.963  10.088  41.332  1.00  0.00     0.161 C 
HETATM   14  C9  UNL     1      20.417   8.537  37.042  1.00  0.00     0.131 A 
ENDROOT
BRANCH   3  15
HETATM   15  N2  UNL     1      19.295  11.822  37.853  1.00  0.00    -0.138 N 
ATOM     16  H2  UNL     1      18.316  11.823  38.137  1.00  0.00     0.205 HD
BRANCH  15  17
HETATM   17  N3  UNL     1      19.788  13.047  37.500  1.00  0.00    -0.331 N 
ATOM     18  H32 UNL     1      20.321  13.497  38.243  1.00  0.00     0.177 HD
ATOM     19  H31 UNL     1      19.709  13.571  36.629  1.00  0.00     0.177 HD
ENDBRANCH  15  17
ENDBRANCH   3  15
BRANCH  14  20
HETATM   20  N6  UNL     1      20.323   7.703  36.121  1.00  0.00    -0.384 N 
ATOM     21  H62 UNL     1      20.695   6.757  36.196  1.00  0.00     0.157 HD
ATOM     22  H61 UNL     1      19.858   7.964  35.252  1.00  0.00     0.157 HD
ENDBRANCH  14  20
TORSDOF 3
ENDMDL
MODEL 5
REMARK VINA RESULT: -5.567067662      1.523      1.999
REMARK  3 active torsions:
REMARK  status: ('A' for Active; 'I' for Inactive)
REMARK    1  A    between atoms: C2_3  and  N2_4 
REMARK    2  A    between atoms: N2_4  and  N3_6 
REMARK    3  A    between atoms: C9_19  and  N6_20 
ROOT
HETATM    1  C1  UNL     1      18.691  10.721  36.521  1.00  0.00     0.177 C 
HETATM    2  N1  UNL     1      19.890  10.304  37.220  1.00  0.00    -0.171 N 
HETATM    3  C2  UNL     1      21.068  10.267  36.575  1.00  0.00     0.701 A 
HETATM    4  N4  UNL     1      22.183   9.867  37.270  1.00  0.00    -0.174 N 
ATOM      5  H4  UNL     1      23.080   9.837  36.785  1.00  0.00     0.186 HD
HETATM    6  C3  UNL     1      22.135   9.523  38.537  1.00  0.00     0.139 A 
HETATM    7  C4  UNL     1      20.901   9.568  39.193  1.00  0.00     0.053 A 
HETATM    8  C5  UNL     1      20.850   9.212  40.503  1.00  0.00     0.024 A 
HETATM    9  C6  UNL     1      21.992   8.816  41.169  1.00  0.00     0.075 A 
HETATM   10  C7  UNL     1      23.170   8.796  40.461  1.00  0.00     0.248 A 
HETATM   11  O1  UNL     1      24.222   8.438  41.049  1.00  0.00    -0.268 OA
HETATM   12  N5  UNL     1      23.255   9.140  39.170  1.00  0.00    -0.303 N 
HETATM   13  C8  UNL     1      24.507   9.113  38.440  1.00  0.00     0.161 C 
HETATM   14  C9  UNL     1      19.768   9.963  38.527  1.00  0.00     0.131 A 
ENDROOT
BRANCH   3  15
HETATM   15  N2  UNL     1      21.261  10.572  35.349  1.00  0.00    -0.138 N 
ATOM     16  H2  UNL     1      21.014   9.838  34.685  1.00  0.00     0.205 HD
BRANCH  15  17
HETATM   17  N3  UNL     1      21.743  11.716  34.778  1.00  0.00    -0.331 N 
ATOM     18  H32 UNL     1      22.761  11.775  34.787  1.00  0.00     0.177 HD
ATOM     19  H31 UNL     1      21.257  12.505  34.353  1.00  0.00     0.177 HD
ENDBRANCH  15  17
ENDBRANCH   3  15
BRANCH  14  20
HETATM   20  N6  UNL     1      18.650  10.015  39.075  1.00  0.00    -0.384 N 
ATOM     21  H62 UNL     1      17.838  10.442  38.629  1.00  0.00     0.157 HD
ATOM     22  H61 UNL     1      18.527   9.620  40.007  1.00  0.00     0.157 HD
ENDBRANCH  14  20
TORSDOF 3
ENDMDL
