MODEL 1
REMARK VINA RESULT: -7.493146581      0.000      0.000
REMARK  6 active torsions:
REMARK  status: ('A' for Active; 'I' for Inactive)
REMARK       I    between atoms: N1_2  and  C2_4 
REMARK    1  A    between atoms: C2_4  and  C3_6 
REMARK       I    between atoms: C3_6  and  N2_8 
REMARK    2  A    between atoms: N2_8  and  C4_10 
REMARK    3  A    between atoms: C8_14  and  C9_15 
REMARK    4  A    between atoms: C10_16  and  C11_17 
REMARK    5  A    between atoms: C12_18  and  C13_19 
REMARK    6  A    between atoms: C13_19  and  O4_21 
ROOT
HETATM    1  C4  UNL     1       9.979   9.628   2.002  1.00  0.00     0.097 A 
HETATM    2  C5  UNL     1       9.441   9.865   0.433  1.00  0.00     0.053 A 
HETATM    3  C6  UNL     1      10.568  10.519   0.093  1.00  0.00    -0.028 A 
HETATM    4  C7  UNL     1      11.370  10.829   0.356  1.00  0.00    -0.021 A 
HETATM    5  C8  UNL     1      12.263  10.953   1.362  1.00  0.00     0.041 A 
HETATM    6  C15 UNL     1      11.268  10.158   2.432  1.00  0.00    -0.017 A 
HETATM    7  C16 UNL     1      11.125  11.189   3.527  1.00  0.00     0.018 C 
HETATM    8  C17 UNL     1      12.184   9.094   2.966  1.00  0.00     0.018 C 
ENDROOT
BRANCH   1   9
HETATM    9  N2  UNL     1       8.857  10.143   2.748  1.00  0.00    -0.347 N 
HETATM   10  C3  UNL     1       8.227   9.371   3.759  1.00  0.00     0.310 C 
HETATM   11  O2  UNL     1       8.675   8.219   3.986  1.00  0.00    -0.262 OA
ATOM     12  H2  UNL     1       8.510  11.080   2.546  1.00  0.00     0.163 HD
BRANCH  10  13
HETATM   13  C2  UNL     1       7.098   9.845   4.533  1.00  0.00     0.312 C 
HETATM   14  N1  UNL     1       5.755   9.690   4.112  1.00  0.00    -0.339 N 
HETATM   15  C1  UNL     1       5.296  10.143   3.003  1.00  0.00     0.121 C 
ATOM     16  H1  UNL     1       5.113   9.187   4.726  1.00  0.00     0.167 HD
HETATM   17  O1  UNL     1       7.283  10.432   5.650  1.00  0.00    -0.262 OA
ENDBRANCH  10  13
ENDBRANCH   1   9
BRANCH   5  18
HETATM   18  C9  UNL     1      13.490  10.195   1.231  1.00  0.00    -0.009 C 
HETATM   19  C10 UNL     1      14.333  10.362   0.198  1.00  0.00     0.061 C 
BRANCH  19  20
HETATM   20  C11 UNL     1      15.514   9.558   0.173  1.00  0.00    -0.068 C 
HETATM   21  C12 UNL     1      16.509   8.875   0.161  1.00  0.00     0.007 C 
BRANCH  21  22
HETATM   22  C13 UNL     1      17.701   8.044   0.168  1.00  0.00     0.339 C 
HETATM   23  O3  UNL     1      17.583   6.852   0.533  1.00  0.00    -0.249 OA
BRANCH  22  24
HETATM   24  O4  UNL     1      18.935   8.501  -0.202  1.00  0.00    -0.316 OA
HETATM   25  C14 UNL     1      19.570   9.629   0.378  1.00  0.00     0.214 C 
ENDBRANCH  22  24
ENDBRANCH  21  22
ENDBRANCH  19  20
ENDBRANCH   5  18
TORSDOF 6
ENDMDL
MODEL 2
REMARK VINA RESULT: -7.488572667      1.192      1.266
REMARK  6 active torsions:
REMARK  status: ('A' for Active; 'I' for Inactive)
REMARK       I    between atoms: N1_2  and  C2_4 
REMARK    1  A    between atoms: C2_4  and  C3_6 
REMARK       I    between atoms: C3_6  and  N2_8 
REMARK    2  A    between atoms: N2_8  and  C4_10 
REMARK    3  A    between atoms: C8_14  and  C9_15 
REMARK    4  A    between atoms: C10_16  and  C11_17 
REMARK    5  A    between atoms: C12_18  and  C13_19 
REMARK    6  A    between atoms: C13_19  and  O4_21 
ROOT
HETATM    1  C4  UNL     1      10.370   9.553   2.014  1.00  0.00     0.097 A 
HETATM    2  C5  UNL     1       9.566   9.679   0.550  1.00  0.00     0.053 A 
HETATM    3  C6  UNL     1      10.532  10.462   0.031  1.00  0.00    -0.028 A 
HETATM    4  C7  UNL     1      11.318  10.877   0.161  1.00  0.00    -0.021 A 
HETATM    5  C8  UNL     1      12.335  11.140   1.011  1.00  0.00     0.041 A 
HETATM    6  C15 UNL     1      11.632  10.252   2.230  1.00  0.00    -0.017 A 
HETATM    7  C16 UNL     1      11.533  11.284   3.329  1.00  0.00     0.018 C 
HETATM    8  C17 UNL     1      12.751   9.327   2.616  1.00  0.00     0.018 C 
ENDROOT
BRANCH   1   9
HETATM    9  N2  UNL     1       9.324   9.940   2.928  1.00  0.00    -0.347 N 
HETATM   10  C3  UNL     1       8.884   9.069   3.958  1.00  0.00     0.310 C 
HETATM   11  O2  UNL     1       9.434   7.943   4.052  1.00  0.00    -0.262 OA
ATOM     12  H2  UNL     1       8.891  10.859   2.831  1.00  0.00     0.163 HD
BRANCH  10  13
HETATM   13  C2  UNL     1       7.837   9.414   4.898  1.00  0.00     0.312 C 
HETATM   14  N1  UNL     1       6.460   9.359   4.571  1.00  0.00    -0.339 N 
HETATM   15  C1  UNL     1       5.928  10.012   3.603  1.00  0.00     0.121 C 
ATOM     16  H1  UNL     1       5.855   8.764   5.138  1.00  0.00     0.167 HD
HETATM   17  O1  UNL     1       8.129   9.787   6.081  1.00  0.00    -0.262 OA
ENDBRANCH  10  13
ENDBRANCH   1   9
BRANCH   5  18
HETATM   18  C9  UNL     1      13.614  10.540   0.689  1.00  0.00    -0.009 C 
HETATM   19  C10 UNL     1      14.283  10.831  -0.439  1.00  0.00     0.061 C 
BRANCH  19  20
HETATM   20  C11 UNL     1      15.535  10.178  -0.651  1.00  0.00    -0.068 C 
HETATM   21  C12 UNL     1      16.598   9.635  -0.828  1.00  0.00     0.007 C 
BRANCH  21  22
HETATM   22  C13 UNL     1      17.889   9.002  -1.035  1.00  0.00     0.339 C 
HETATM   23  O3  UNL     1      18.322   8.244  -0.138  1.00  0.00    -0.249 OA
BRANCH  22  24
HETATM   24  O4  UNL     1      18.647   9.194  -2.158  1.00  0.00    -0.316 OA
HETATM   25  C14 UNL     1      18.106   9.405  -3.452  1.00  0.00     0.214 C 
ENDBRANCH  22  24
ENDBRANCH  21  22
ENDBRANCH  19  20
ENDBRANCH   5  18
TORSDOF 6
ENDMDL
MODEL 3
REMARK VINA RESULT: -7.408937760      1.098      1.242
REMARK  6 active torsions:
REMARK  status: ('A' for Active; 'I' for Inactive)
REMARK       I    between atoms: N1_2  and  C2_4 
REMARK    1  A    between atoms: C2_4  and  C3_6 
REMARK       I    between atoms: C3_6  and  N2_8 
REMARK    2  A    between atoms: N2_8  and  C4_10 
REMARK    3  A    between atoms: C8_14  and  C9_15 
REMARK    4  A    between atoms: C10_16  and  C11_17 
REMARK    5  A    between atoms: C12_18  and  C13_19 
REMARK    6  A    between atoms: C13_19  and  O4_21 
ROOT
HETATM    1  C4  UNL     1      10.424   9.577   2.004  1.00  0.00     0.097 A 
HETATM    2  C5  UNL     1       9.505   9.704   0.608  1.00  0.00     0.053 A 
HETATM    3  C6  UNL     1      10.429  10.483   0.012  1.00  0.00    -0.028 A 
HETATM    4  C7  UNL     1      11.224  10.895   0.078  1.00  0.00    -0.021 A 
HETATM    5  C8  UNL     1      12.307  11.156   0.844  1.00  0.00     0.041 A 
HETATM    6  C15 UNL     1      11.701  10.273   2.117  1.00  0.00    -0.017 A 
HETATM    7  C16 UNL     1      11.692  11.308   3.218  1.00  0.00     0.018 C 
HETATM    8  C17 UNL     1      12.844   9.345   2.415  1.00  0.00     0.018 C 
ENDROOT
BRANCH   1   9
HETATM    9  N2  UNL     1       9.454   9.970   2.997  1.00  0.00    -0.347 N 
HETATM   10  C3  UNL     1       8.863   9.017   3.866  1.00  0.00     0.310 C 
HETATM   11  O2  UNL     1       9.208   7.816   3.747  1.00  0.00    -0.262 OA
ATOM     12  H2  UNL     1       9.188  10.951   3.074  1.00  0.00     0.163 HD
BRANCH  10  13
HETATM   13  C2  UNL     1       7.885   9.364   4.878  1.00  0.00     0.312 C 
HETATM   14  N1  UNL     1       6.488   9.333   4.642  1.00  0.00    -0.339 N 
HETATM   15  C1  UNL     1       5.904  10.008   3.720  1.00  0.00     0.121 C 
ATOM     16  H1  UNL     1       5.913   8.740   5.240  1.00  0.00     0.167 HD
HETATM   17  O1  UNL     1       8.260   9.717   6.044  1.00  0.00    -0.262 OA
ENDBRANCH  10  13
ENDBRANCH   1   9
BRANCH   5  18
HETATM   18  C9  UNL     1      13.554  10.551   0.423  1.00  0.00    -0.009 C 
HETATM   19  C10 UNL     1      14.193  10.925  -0.699  1.00  0.00     0.061 C 
BRANCH  19  20
HETATM   20  C11 UNL     1      15.416  10.258  -1.015  1.00  0.00    -0.068 C 
HETATM   21  C12 UNL     1      16.454   9.704  -1.282  1.00  0.00     0.007 C 
BRANCH  21  22
HETATM   22  C13 UNL     1      17.715   9.058  -1.607  1.00  0.00     0.339 C 
HETATM   23  O3  UNL     1      17.997   8.896  -2.816  1.00  0.00    -0.249 OA
BRANCH  22  24
HETATM   24  O4  UNL     1      18.601   8.624  -0.659  1.00  0.00    -0.316 OA
HETATM   25  C14 UNL     1      18.857   9.305   0.557  1.00  0.00     0.214 C 
ENDBRANCH  22  24
ENDBRANCH  21  22
ENDBRANCH  19  20
ENDBRANCH   5  18
TORSDOF 6
ENDMDL
MODEL 4
REMARK VINA RESULT: -7.322238300      1.621      1.898
REMARK  6 active torsions:
REMARK  status: ('A' for Active; 'I' for Inactive)
REMARK       I    between atoms: N1_2  and  C2_4 
REMARK    1  A    between atoms: C2_4  and  C3_6 
REMARK       I    between atoms: C3_6  and  N2_8 
REMARK    2  A    between atoms: N2_8  and  C4_10 
REMARK    3  A    between atoms: C8_14  and  C9_15 
REMARK    4  A    between atoms: C10_16  and  C11_17 
REMARK    5  A    between atoms: C12_18  and  C13_19 
REMARK    6  A    between atoms: C13_19  and  O4_21 
ROOT
HETATM    1  C4  UNL     1       9.177   9.518   1.556  1.00  0.00     0.097 A 
HETATM    2  C5  UNL     1       9.158   9.900  -0.076  1.00  0.00     0.053 A 
HETATM    3  C6  UNL     1      10.374  10.475  -0.005  1.00  0.00    -0.028 A 
HETATM    4  C7  UNL     1      11.075  10.697   0.511  1.00  0.00    -0.021 A 
HETATM    5  C8  UNL     1      11.626  10.680   1.744  1.00  0.00     0.041 A 
HETATM    6  C15 UNL     1      10.305   9.906   2.395  1.00  0.00    -0.017 A 
HETATM    7  C16 UNL     1       9.901  10.872   3.484  1.00  0.00     0.018 C 
HETATM    8  C17 UNL     1      10.948   8.735   3.083  1.00  0.00     0.018 C 
ENDROOT
BRANCH   1   9
HETATM    9  N2  UNL     1       7.916  10.078   1.976  1.00  0.00    -0.347 N 
HETATM   10  C3  UNL     1       7.061   9.382   2.868  1.00  0.00     0.310 C 
HETATM   11  O2  UNL     1       7.433   8.256   3.284  1.00  0.00    -0.262 OA
ATOM     12  H2  UNL     1       7.635  10.993   1.624  1.00  0.00     0.163 HD
BRANCH  10  13
HETATM   13  C2  UNL     1       5.786   9.904   3.317  1.00  0.00     0.312 C 
HETATM   14  N1  UNL     1       4.575   9.690   2.614  1.00  0.00    -0.339 N 
HETATM   15  C1  UNL     1       4.386  10.036   1.393  1.00  0.00     0.121 C 
ATOM     16  H1  UNL     1       3.807   9.233   3.107  1.00  0.00     0.167 HD
HETATM   17  O1  UNL     1       5.711  10.590   4.389  1.00  0.00    -0.262 OA
ENDBRANCH  10  13
ENDBRANCH   1   9
BRANCH   5  18
HETATM   18  C9  UNL     1      12.785   9.828   1.920  1.00  0.00    -0.009 C 
HETATM   19  C10 UNL     1      13.907   9.981   1.195  1.00  0.00     0.061 C 
BRANCH  19  20
HETATM   20  C11 UNL     1      14.987   9.082   1.454  1.00  0.00    -0.068 C 
HETATM   21  C12 UNL     1      15.894   8.320   1.681  1.00  0.00     0.007 C 
BRANCH  21  22
HETATM   22  C13 UNL     1      16.975   7.395   1.975  1.00  0.00     0.339 C 
HETATM   23  O3  UNL     1      17.493   6.774   1.019  1.00  0.00    -0.249 OA
BRANCH  22  24
HETATM   24  O4  UNL     1      17.450   7.173   3.239  1.00  0.00    -0.316 OA
HETATM   25  C14 UNL     1      16.752   7.529   4.421  1.00  0.00     0.214 C 
ENDBRANCH  22  24
ENDBRANCH  21  22
ENDBRANCH  19  20
ENDBRANCH   5  18
TORSDOF 6
ENDMDL
MODEL 5
REMARK VINA RESULT: -7.191033258      1.832      2.142
REMARK  6 active torsions:
REMARK  status: ('A' for Active; 'I' for Inactive)
REMARK       I    between atoms: N1_2  and  C2_4 
REMARK    1  A    between atoms: C2_4  and  C3_6 
REMARK       I    between atoms: C3_6  and  N2_8 
REMARK    2  A    between atoms: N2_8  and  C4_10 
REMARK    3  A    between atoms: C8_14  and  C9_15 
REMARK    4  A    between atoms: C10_16  and  C11_17 
REMARK    5  A    between atoms: C12_18  and  C13_19 
REMARK    6  A    between atoms: C13_19  and  O4_21 
ROOT
HETATM    1  C4  UNL     1       9.172   9.544   1.327  1.00  0.00     0.097 A 
HETATM    2  C5  UNL     1       9.248  10.019  -0.278  1.00  0.00     0.053 A 
HETATM    3  C6  UNL     1      10.456  10.590  -0.102  1.00  0.00    -0.028 A 
HETATM    4  C7  UNL     1      11.124  10.782   0.467  1.00  0.00    -0.021 A 
HETATM    5  C8  UNL     1      11.601  10.694   1.728  1.00  0.00     0.041 A 
HETATM    6  C15 UNL     1      10.246   9.884   2.254  1.00  0.00    -0.017 A 
HETATM    7  C16 UNL     1       9.774  10.787   3.369  1.00  0.00     0.018 C 
HETATM    8  C17 UNL     1      10.851   8.676   2.911  1.00  0.00     0.018 C 
ENDROOT
BRANCH   1   9
HETATM    9  N2  UNL     1       7.886  10.079   1.702  1.00  0.00    -0.347 N 
HETATM   10  C3  UNL     1       6.989   9.340   2.516  1.00  0.00     0.310 C 
HETATM   11  O2  UNL     1       7.347   8.199   2.903  1.00  0.00    -0.262 OA
ATOM     12  H2  UNL     1       7.617  11.007   1.376  1.00  0.00     0.163 HD
BRANCH  10  13
HETATM   13  C2  UNL     1       5.688   9.835   2.917  1.00  0.00     0.312 C 
HETATM   14  N1  UNL     1       5.489  10.628   4.075  1.00  0.00    -0.339 N 
HETATM   15  C1  UNL     1       5.811  10.256   5.260  1.00  0.00     0.121 C 
ATOM     16  H1  UNL     1       5.065  11.548   3.960  1.00  0.00     0.167 HD
HETATM   17  O1  UNL     1       4.653   9.567   2.223  1.00  0.00    -0.262 OA
ENDBRANCH  10  13
ENDBRANCH   1   9
BRANCH   5  18
HETATM   18  C9  UNL     1      12.751   9.835   1.924  1.00  0.00    -0.009 C 
HETATM   19  C10 UNL     1      13.874   9.958   1.197  1.00  0.00     0.061 C 
BRANCH  19  20
HETATM   20  C11 UNL     1      14.944   9.054   1.477  1.00  0.00    -0.068 C 
HETATM   21  C12 UNL     1      15.850   8.296   1.723  1.00  0.00     0.007 C 
BRANCH  21  22
HETATM   22  C13 UNL     1      16.946   7.396   2.039  1.00  0.00     0.339 C 
HETATM   23  O3  UNL     1      17.481   6.769   1.097  1.00  0.00    -0.249 OA
BRANCH  22  24
HETATM   24  O4  UNL     1      17.416   7.204   3.309  1.00  0.00    -0.316 OA
HETATM   25  C14 UNL     1      16.638   7.399   4.480  1.00  0.00     0.214 C 
ENDBRANCH  22  24
ENDBRANCH  21  22
ENDBRANCH  19  20
ENDBRANCH   5  18
TORSDOF 6
ENDMDL
