MODEL 1
REMARK VINA RESULT: -7.276762641      0.000      0.000
REMARK  6 active torsions:
REMARK  status: ('A' for Active; 'I' for Inactive)
REMARK       I    between atoms: N1_2  and  C3_4 
REMARK       I    between atoms: C3_4  and  N2_6 
REMARK    1  A    between atoms: N2_6  and  C4_8 
REMARK    2  A    between atoms: C8_13  and  C9_14 
REMARK    3  A    between atoms: C9_14  and  N3_15 
REMARK    4  A    between atoms: C9_14  and  C11_20 
REMARK    5  A    between atoms: N3_15  and  C10_16 
REMARK    6  A    between atoms: C10_16  and  N4_17 
ROOT
HETATM    1  C4  UNL     1      12.209   8.276   3.071  1.00  0.00     0.086 C 
HETATM    2  C5  UNL     1      11.364   7.593   2.047  1.00  0.00     0.028 C 
HETATM    3  C6  UNL     1       9.931   7.455   2.395  1.00  0.00     0.034 C 
HETATM    4  C7  UNL     1       9.558   7.917   3.766  1.00  0.00     0.126 C 
HETATM    5  O2  UNL     1       8.183   8.031   3.820  1.00  0.00    -0.373 OA
HETATM    6  C8  UNL     1       7.853   9.305   4.185  1.00  0.00     0.192 C 
HETATM    7  C12 UNL     1       9.056  10.195   3.851  1.00  0.00     0.046 C 
HETATM    8  C13 UNL     1      10.166   9.207   4.180  1.00  0.00     0.019 C 
HETATM    9  C14 UNL     1      11.456   9.541   3.495  1.00  0.00     0.032 C 
ENDROOT
BRANCH   6  10
HETATM   10  C9  UNL     1       6.614   9.818   3.554  1.00  0.00     0.190 C 
BRANCH  10  11
HETATM   11  N3  UNL     1       5.643  10.152   4.271  1.00  0.00    -0.341 NA
BRANCH  11  12
HETATM   12  C10 UNL     1       4.618  10.102   4.984  1.00  0.00     0.132 C 
BRANCH  12  13
HETATM   13  N4  UNL     1       3.574   9.978   5.700  1.00  0.00    -0.340 N 
ATOM     14  H42 UNL     1       4.365   9.660   6.262  1.00  0.00     0.168 HD
ATOM     15  H41 UNL     1       2.706   9.899   6.230  1.00  0.00     0.168 HD
ENDBRANCH  12  13
ENDBRANCH  11  12
ENDBRANCH  10  11
BRANCH  10  16
HETATM   16  C11 UNL     1       6.455   9.960   2.119  1.00  0.00     0.294 C 
HETATM   17  N5  UNL     1       7.458  10.395   1.239  1.00  0.00    -0.055 NA
HETATM   18  O3  UNL     1       5.315   9.664   1.639  1.00  0.00    -0.268 OA
ENDBRANCH  10  16
ENDBRANCH   6  10
BRANCH   1  19
HETATM   19  N2  UNL     1      13.423   8.730   2.416  1.00  0.00    -0.338 N 
HETATM   20  C3  UNL     1      14.678   8.077   2.674  1.00  0.00     0.317 C 
HETATM   21  N1  UNL     1      15.872   8.487   2.059  1.00  0.00    -0.343 N 
HETATM   22  O1  UNL     1      14.694   7.111   3.478  1.00  0.00    -0.247 OA
HETATM   23  C1  UNL     1      15.869   9.597   1.134  1.00  0.00     0.154 C 
HETATM   24  C2  UNL     1      17.106   7.821   2.336  1.00  0.00     0.154 C 
ATOM     25  H2  UNL     1      13.386   9.517   1.768  1.00  0.00     0.164 HD
ENDBRANCH   1  19
TORSDOF 6
ENDMDL
MODEL 2
REMARK VINA RESULT: -7.273435477      1.495      2.420
REMARK  6 active torsions:
REMARK  status: ('A' for Active; 'I' for Inactive)
REMARK       I    between atoms: N1_2  and  C3_4 
REMARK       I    between atoms: C3_4  and  N2_6 
REMARK    1  A    between atoms: N2_6  and  C4_8 
REMARK    2  A    between atoms: C8_13  and  C9_14 
REMARK    3  A    between atoms: C9_14  and  N3_15 
REMARK    4  A    between atoms: C9_14  and  C11_20 
REMARK    5  A    between atoms: N3_15  and  C10_16 
REMARK    6  A    between atoms: C10_16  and  N4_17 
ROOT
HETATM    1  C4  UNL     1      11.246   8.500   3.458  1.00  0.00     0.086 C 
HETATM    2  C5  UNL     1      10.325   7.698   2.598  1.00  0.00     0.028 C 
HETATM    3  C6  UNL     1       8.923   7.622   3.069  1.00  0.00     0.034 C 
HETATM    4  C7  UNL     1       8.656   8.262   4.391  1.00  0.00     0.126 C 
HETATM    5  O2  UNL     1       7.288   8.396   4.534  1.00  0.00    -0.373 OA
HETATM    6  C8  UNL     1       6.988   9.710   4.754  1.00  0.00     0.192 C 
HETATM    7  C12 UNL     1       8.163  10.536   4.216  1.00  0.00     0.046 C 
HETATM    8  C13 UNL     1       9.294   9.588   4.587  1.00  0.00     0.019 C 
HETATM    9  C14 UNL     1      10.528   9.817   3.769  1.00  0.00     0.032 C 
ENDROOT
BRANCH   6  10
HETATM   10  C9  UNL     1       5.704  10.150   4.157  1.00  0.00     0.190 C 
BRANCH  10  11
HETATM   11  N3  UNL     1       5.666  10.504   2.956  1.00  0.00    -0.341 NA
BRANCH  11  12
HETATM   12  C10 UNL     1       5.635  10.473   1.708  1.00  0.00     0.132 C 
BRANCH  12  13
HETATM   13  N4  UNL     1       5.678  10.446   0.437  1.00  0.00    -0.340 N 
ATOM     14  H42 UNL     1       5.473  11.407   0.710  1.00  0.00     0.168 HD
ATOM     15  H41 UNL     1       5.724  10.365  -0.579  1.00  0.00     0.168 HD
ENDBRANCH  12  13
ENDBRANCH  11  12
ENDBRANCH  10  11
BRANCH  10  16
HETATM   16  C11 UNL     1       4.459  10.194   4.899  1.00  0.00     0.294 C 
HETATM   17  N5  UNL     1       3.206   9.820   4.388  1.00  0.00    -0.055 NA
HETATM   18  O3  UNL     1       4.524  10.603   6.100  1.00  0.00    -0.268 OA
ENDBRANCH  10  16
ENDBRANCH   6  10
BRANCH   1  19
HETATM   19  N2  UNL     1      12.407   8.852   2.659  1.00  0.00    -0.338 N 
HETATM   20  C3  UNL     1      13.550   7.981   2.612  1.00  0.00     0.317 C 
HETATM   21  N1  UNL     1      14.690   8.287   1.851  1.00  0.00    -0.343 N 
HETATM   22  O1  UNL     1      13.516   6.915   3.277  1.00  0.00    -0.247 OA
HETATM   23  C1  UNL     1      14.742   9.510   1.082  1.00  0.00     0.154 C 
HETATM   24  C2  UNL     1      15.813   7.404   1.823  1.00  0.00     0.154 C 
ATOM     25  H2  UNL     1      12.411   9.723   2.129  1.00  0.00     0.164 HD
ENDBRANCH   1  19
TORSDOF 6
ENDMDL
MODEL 3
REMARK VINA RESULT: -7.209024390      1.863      2.444
REMARK  6 active torsions:
REMARK  status: ('A' for Active; 'I' for Inactive)
REMARK       I    between atoms: N1_2  and  C3_4 
REMARK       I    between atoms: C3_4  and  N2_6 
REMARK    1  A    between atoms: N2_6  and  C4_8 
REMARK    2  A    between atoms: C8_13  and  C9_14 
REMARK    3  A    between atoms: C9_14  and  N3_15 
REMARK    4  A    between atoms: C9_14  and  C11_20 
REMARK    5  A    between atoms: N3_15  and  C10_16 
REMARK    6  A    between atoms: C10_16  and  N4_17 
ROOT
HETATM    1  C4  UNL     1      12.461   8.275   2.069  1.00  0.00     0.086 C 
HETATM    2  C5  UNL     1      12.203   9.732   1.867  1.00  0.00     0.028 C 
HETATM    3  C6  UNL     1      10.788  10.099   1.633  1.00  0.00     0.034 C 
HETATM    4  C7  UNL     1       9.839   8.951   1.520  1.00  0.00     0.126 C 
HETATM    5  O2  UNL     1       8.554   9.445   1.632  1.00  0.00    -0.373 OA
HETATM    6  C8  UNL     1       7.919   8.812   2.663  1.00  0.00     0.192 C 
HETATM    7  C12 UNL     1       9.008   8.254   3.587  1.00  0.00     0.046 C 
HETATM    8  C13 UNL     1      10.032   7.876   2.526  1.00  0.00     0.019 C 
HETATM    9  C14 UNL     1      11.422   7.775   3.077  1.00  0.00     0.032 C 
ENDROOT
BRANCH   6  10
HETATM   10  C9  UNL     1       6.968   9.669   3.411  1.00  0.00     0.190 C 
BRANCH  10  11
HETATM   11  N3  UNL     1       5.811   9.847   2.968  1.00  0.00    -0.341 NA
BRANCH  11  12
HETATM   12  C10 UNL     1       4.802   9.817   2.232  1.00  0.00     0.132 C 
BRANCH  12  13
HETATM   13  N4  UNL     1       3.797   9.851   1.452  1.00  0.00    -0.340 N 
ATOM     14  H42 UNL     1       4.394  10.640   1.207  1.00  0.00     0.168 HD
ATOM     15  H41 UNL     1       2.971   9.829   0.854  1.00  0.00     0.168 HD
ENDBRANCH  12  13
ENDBRANCH  11  12
ENDBRANCH  10  11
BRANCH  10  16
HETATM   16  C11 UNL     1       7.308  10.330   4.657  1.00  0.00     0.294 C 
HETATM   17  N5  UNL     1       8.581  10.820   4.985  1.00  0.00    -0.055 NA
HETATM   18  O3  UNL     1       6.370  10.466   5.505  1.00  0.00    -0.268 OA
ENDBRANCH  10  16
ENDBRANCH   6  10
BRANCH   1  19
HETATM   19  N2  UNL     1      13.753   8.137   2.720  1.00  0.00    -0.338 N 
HETATM   20  C3  UNL     1      14.933   7.861   1.946  1.00  0.00     0.317 C 
HETATM   21  N1  UNL     1      16.198   7.723   2.540  1.00  0.00    -0.343 N 
HETATM   22  O1  UNL     1      14.815   7.742   0.701  1.00  0.00    -0.247 OA
HETATM   23  C1  UNL     1      16.347   7.857   3.971  1.00  0.00     0.154 C 
HETATM   24  C2  UNL     1      17.354   7.447   1.746  1.00  0.00     0.154 C 
ATOM     25  H2  UNL     1      13.823   8.238   3.733  1.00  0.00     0.164 HD
ENDBRANCH   1  19
TORSDOF 6
ENDMDL
MODEL 4
REMARK VINA RESULT: -7.196438902      1.859      2.060
REMARK  6 active torsions:
REMARK  status: ('A' for Active; 'I' for Inactive)
REMARK       I    between atoms: N1_2  and  C3_4 
REMARK       I    between atoms: C3_4  and  N2_6 
REMARK    1  A    between atoms: N2_6  and  C4_8 
REMARK    2  A    between atoms: C8_13  and  C9_14 
REMARK    3  A    between atoms: C9_14  and  N3_15 
REMARK    4  A    between atoms: C9_14  and  C11_20 
REMARK    5  A    between atoms: N3_15  and  C10_16 
REMARK    6  A    between atoms: C10_16  and  N4_17 
ROOT
HETATM    1  C4  UNL     1      11.929   8.156   2.318  1.00  0.00     0.086 C 
HETATM    2  C5  UNL     1      10.887   7.099   2.149  1.00  0.00     0.028 C 
HETATM    3  C6  UNL     1       9.501   7.520   2.458  1.00  0.00     0.034 C 
HETATM    4  C7  UNL     1       9.358   8.904   3.000  1.00  0.00     0.126 C 
HETATM    5  O2  UNL     1       8.025   9.258   2.927  1.00  0.00    -0.373 OA
HETATM    6  C8  UNL     1       7.905  10.407   2.199  1.00  0.00     0.192 C 
HETATM    7  C12 UNL     1       9.162  10.520   1.327  1.00  0.00     0.046 C 
HETATM    8  C13 UNL     1      10.169   9.937   2.308  1.00  0.00     0.019 C 
HETATM    9  C14 UNL     1      11.399   9.416   1.628  1.00  0.00     0.032 C 
ENDROOT
BRANCH   6  10
HETATM   10  C9  UNL     1       6.673  10.482   1.378  1.00  0.00     0.190 C 
BRANCH  10  11
HETATM   11  N3  UNL     1       5.631   9.905   1.765  1.00  0.00    -0.341 NA
BRANCH  11  12
HETATM   12  C10 UNL     1       4.430   9.638   1.981  1.00  0.00     0.132 C 
BRANCH  12  13
HETATM   13  N4  UNL     1       3.208   9.417   2.255  1.00  0.00    -0.340 N 
ATOM     14  H42 UNL     1       3.549   8.613   1.728  1.00  0.00     0.168 HD
ATOM     15  H41 UNL     1       2.226   9.291   2.502  1.00  0.00     0.168 HD
ENDBRANCH  12  13
ENDBRANCH  11  12
ENDBRANCH  10  11
BRANCH  10  16
HETATM   16  C11 UNL     1       6.601  11.203   0.121  1.00  0.00     0.294 C 
HETATM   17  N5  UNL     1       6.884  10.652  -1.138  1.00  0.00    -0.055 NA
HETATM   18  O3  UNL     1       6.254  12.424   0.182  1.00  0.00    -0.268 OA
ENDBRANCH  10  16
ENDBRANCH   6  10
BRANCH   1  19
HETATM   19  N2  UNL     1      13.103   7.747   1.565  1.00  0.00    -0.338 N 
HETATM   20  C3  UNL     1      14.406   7.789   2.170  1.00  0.00     0.317 C 
HETATM   21  N1  UNL     1      15.563   7.401   1.475  1.00  0.00    -0.343 N 
HETATM   22  O1  UNL     1      14.500   8.186   3.359  1.00  0.00    -0.247 OA
HETATM   23  C1  UNL     1      15.470   6.943   0.108  1.00  0.00     0.154 C 
HETATM   24  C2  UNL     1      16.847   7.453   2.101  1.00  0.00     0.154 C 
ATOM     25  H2  UNL     1      13.001   7.429   0.601  1.00  0.00     0.164 HD
ENDBRANCH   1  19
TORSDOF 6
ENDMDL
MODEL 5
REMARK VINA RESULT: -7.178767290      1.864      8.006
REMARK  6 active torsions:
REMARK  status: ('A' for Active; 'I' for Inactive)
REMARK       I    between atoms: N1_2  and  C3_4 
REMARK       I    between atoms: C3_4  and  N2_6 
REMARK    1  A    between atoms: N2_6  and  C4_8 
REMARK    2  A    between atoms: C8_13  and  C9_14 
REMARK    3  A    between atoms: C9_14  and  N3_15 
REMARK    4  A    between atoms: C9_14  and  C11_20 
REMARK    5  A    between atoms: N3_15  and  C10_16 
REMARK    6  A    between atoms: C10_16  and  N4_17 
ROOT
HETATM    1  C4  UNL     1       8.724   9.276   3.783  1.00  0.00     0.086 C 
HETATM    2  C5  UNL     1       9.436  10.589   3.752  1.00  0.00     0.028 C 
HETATM    3  C6  UNL     1      10.915  10.509   3.775  1.00  0.00     0.034 C 
HETATM    4  C7  UNL     1      11.480   9.137   3.940  1.00  0.00     0.126 C 
HETATM    5  O2  UNL     1      12.822   9.184   3.619  1.00  0.00    -0.373 OA
HETATM    6  C8  UNL     1      13.077   8.286   2.622  1.00  0.00     0.192 C 
HETATM    7  C12 UNL     1      11.746   8.014   1.911  1.00  0.00     0.046 C 
HETATM    8  C13 UNL     1      10.825   8.086   3.121  1.00  0.00     0.019 C 
HETATM    9  C14 UNL     1       9.404   8.377   2.746  1.00  0.00     0.032 C 
ENDROOT
BRANCH   6  10
HETATM   10  C9  UNL     1      14.120   8.721   1.663  1.00  0.00     0.190 C 
BRANCH  10  11
HETATM   11  N3  UNL     1      14.025   9.838   1.105  1.00  0.00    -0.341 NA
BRANCH  11  12
HETATM   12  C10 UNL     1      13.617  10.782   0.396  1.00  0.00     0.132 C 
BRANCH  12  13
HETATM   13  N4  UNL     1      13.218  11.703  -0.386  1.00  0.00    -0.340 N 
ATOM     14  H42 UNL     1      13.048  10.814  -0.856  1.00  0.00     0.168 HD
ATOM     15  H41 UNL     1      12.913  12.481  -0.972  1.00  0.00     0.168 HD
ENDBRANCH  12  13
ENDBRANCH  11  12
ENDBRANCH  10  11
BRANCH  10  16
HETATM   16  C11 UNL     1      15.273   7.908   1.323  1.00  0.00     0.294 C 
HETATM   17  N5  UNL     1      15.246   6.789   0.477  1.00  0.00    -0.055 NA
HETATM   18  O3  UNL     1      16.383   8.249   1.840  1.00  0.00    -0.268 OA
ENDBRANCH  10  16
ENDBRANCH   6  10
BRANCH   1  19
HETATM   19  N2  UNL     1       7.370   9.492   3.305  1.00  0.00    -0.338 N 
HETATM   20  C3  UNL     1       6.304   9.761   4.231  1.00  0.00     0.317 C 
HETATM   21  N1  UNL     1       4.983   9.975   3.806  1.00  0.00    -0.343 N 
HETATM   22  O1  UNL     1       6.575   9.801   5.458  1.00  0.00    -0.247 OA
HETATM   23  C1  UNL     1       4.657   9.931   2.399  1.00  0.00     0.154 C 
HETATM   24  C2  UNL     1       3.942  10.239   4.749  1.00  0.00     0.154 C 
ATOM     25  H2  UNL     1       7.174   9.454   2.304  1.00  0.00     0.164 HD
ENDBRANCH   1  19
TORSDOF 6
ENDMDL
