MODEL 1
REMARK VINA RESULT: -7.686238745      0.000      0.000
REMARK  2 active torsions:
REMARK  status: ('A' for Active; 'I' for Inactive)
REMARK       I    between atoms: N1_12  and  C9_13 
REMARK    1  A    between atoms: C9_13  and  C10_15 
REMARK    2  A    between atoms: C10_15  and  N2_16 
REMARK       I    between atoms: N2_16  and  C11_18 
ROOT
HETATM    1  C1  UNL     1      10.632  10.945   3.869  1.00  0.00     0.012 C 
HETATM    2  C2  UNL     1      10.129   9.555   3.935  1.00  0.00     0.016 C 
HETATM    3  C3  UNL     1       8.676   9.381   4.111  1.00  0.00    -0.022 C 
HETATM    4  C4  UNL     1       8.310   9.767   5.544  1.00  0.00     0.017 C 
HETATM    5  C5  UNL     1       8.537   7.863   3.981  1.00  0.00     0.013 C 
HETATM    6  C6  UNL     1       9.647   7.446   3.024  1.00  0.00     0.028 C 
HETATM    7  C7  UNL     1      10.424   8.720   2.718  1.00  0.00     0.084 C 
HETATM    8  C8  UNL     1      11.874   8.418   2.536  1.00  0.00     0.034 C 
HETATM    9  S1  UNL     1       9.683   9.459   1.297  1.00  0.00     0.243 S 
HETATM   10  O1  UNL     1       9.326   8.371   0.300  1.00  0.00    -0.205 OA
HETATM   11  O2  UNL     1      10.615  10.457   0.678  1.00  0.00    -0.205 OA
HETATM   12  N1  UNL     1       8.199  10.164   1.804  1.00  0.00    -0.243 N 
HETATM   13  C9  UNL     1       7.393  10.883   0.895  1.00  0.00     0.251 C 
HETATM   14  O3  UNL     1       6.298  11.416   1.222  1.00  0.00    -0.271 OA
HETATM   15  C12 UNL     1       7.778  10.022   3.150  1.00  0.00     0.154 C 
ENDROOT
BRANCH  13  16
HETATM   16  C10 UNL     1       7.833  11.030  -0.515  1.00  0.00     0.227 C 
BRANCH  16  17
HETATM   17  N2  UNL     1       7.291   9.948  -1.338  1.00  0.00    -0.337 N 
HETATM   18  C11 UNL     1       6.844  10.186  -2.663  1.00  0.00     0.329 C 
HETATM   19  N3  UNL     1       6.329   9.091  -3.408  1.00  0.00    -0.040 NA
HETATM   20  O4  UNL     1       6.894  11.340  -3.189  1.00  0.00    -0.251 OA
ATOM     21  H2  UNL     1       7.234   9.006  -0.952  1.00  0.00     0.164 HD
ENDBRANCH  16  17
ENDBRANCH  13  16
TORSDOF 2
ENDMDL
MODEL 2
REMARK VINA RESULT: -7.374817367      3.900      6.119
REMARK  2 active torsions:
REMARK  status: ('A' for Active; 'I' for Inactive)
REMARK       I    between atoms: N1_12  and  C9_13 
REMARK    1  A    between atoms: C9_13  and  C10_15 
REMARK    2  A    between atoms: C10_15  and  N2_16 
REMARK       I    between atoms: N2_16  and  C11_18 
ROOT
HETATM    1  C1  UNL     1      15.112   6.822   0.111  1.00  0.00     0.012 C 
HETATM    2  C2  UNL     1      15.836   7.481   1.220  1.00  0.00     0.016 C 
HETATM    3  C3  UNL     1      16.298   8.861   0.986  1.00  0.00    -0.022 C 
HETATM    4  C4  UNL     1      17.473   8.822   0.009  1.00  0.00     0.017 C 
HETATM    5  C5  UNL     1      16.844   9.234   2.366  1.00  0.00     0.013 C 
HETATM    6  C6  UNL     1      15.990   8.448   3.354  1.00  0.00     0.028 C 
HETATM    7  C7  UNL     1      15.055   7.599   2.501  1.00  0.00     0.084 C 
HETATM    8  C8  UNL     1      14.790   6.288   3.164  1.00  0.00     0.034 C 
HETATM    9  S1  UNL     1      13.593   8.545   2.221  1.00  0.00     0.243 S 
HETATM   10  O1  UNL     1      13.218   9.273   3.499  1.00  0.00    -0.205 OA
HETATM   11  O2  UNL     1      12.472   7.658   1.771  1.00  0.00    -0.205 OA
HETATM   12  N1  UNL     1      13.984   9.757   1.064  1.00  0.00    -0.243 N 
HETATM   13  C9  UNL     1      12.997  10.648   0.591  1.00  0.00     0.251 C 
HETATM   14  O3  UNL     1      13.238  11.552  -0.255  1.00  0.00    -0.271 OA
HETATM   15  C12 UNL     1      15.312   9.864   0.582  1.00  0.00     0.154 C 
ENDROOT
BRANCH  13  16
HETATM   16  C10 UNL     1      11.607  10.537   1.098  1.00  0.00     0.227 C 
BRANCH  16  17
HETATM   17  N2  UNL     1      10.651  10.575  -0.011  1.00  0.00    -0.337 N 
HETATM   18  C11 UNL     1       9.456   9.813   0.022  1.00  0.00     0.329 C 
HETATM   19  N3  UNL     1       8.572   9.896  -1.087  1.00  0.00    -0.040 NA
HETATM   20  O4  UNL     1       9.164   9.068   1.008  1.00  0.00    -0.251 OA
ATOM     21  H2  UNL     1      10.849  11.161  -0.822  1.00  0.00     0.164 HD
ENDBRANCH  16  17
ENDBRANCH  13  16
TORSDOF 2
ENDMDL
MODEL 3
REMARK VINA RESULT: -6.849948906      1.021      1.021
REMARK  2 active torsions:
REMARK  status: ('A' for Active; 'I' for Inactive)
REMARK       I    between atoms: N1_12  and  C9_13 
REMARK    1  A    between atoms: C9_13  and  C10_15 
REMARK    2  A    between atoms: C10_15  and  N2_16 
REMARK       I    between atoms: N2_16  and  C11_18 
ROOT
HETATM    1  C1  UNL     1      10.778  10.943   3.770  1.00  0.00     0.012 C 
HETATM    2  C2  UNL     1      10.053   9.714   4.160  1.00  0.00     0.016 C 
HETATM    3  C3  UNL     1       8.581   9.791   4.188  1.00  0.00    -0.022 C 
HETATM    4  C4  UNL     1       8.160  10.632   5.393  1.00  0.00     0.017 C 
HETATM    5  C5  UNL     1       8.209   8.334   4.476  1.00  0.00     0.013 C 
HETATM    6  C6  UNL     1       9.316   7.510   3.830  1.00  0.00     0.028 C 
HETATM    7  C7  UNL     1      10.312   8.522   3.279  1.00  0.00     0.084 C 
HETATM    8  C8  UNL     1      11.705   7.993   3.381  1.00  0.00     0.034 C 
HETATM    9  S1  UNL     1       9.827   8.891   1.623  1.00  0.00     0.243 S 
HETATM   10  O1  UNL     1       9.386   7.611   0.937  1.00  0.00    -0.205 OA
HETATM   11  O2  UNL     1      10.959   9.528   0.875  1.00  0.00    -0.205 OA
HETATM   12  N1  UNL     1       8.439   9.902   1.713  1.00  0.00    -0.243 N 
HETATM   13  C9  UNL     1       7.842  10.414   0.540  1.00  0.00     0.251 C 
HETATM   14  O3  UNL     1       6.824  11.158   0.557  1.00  0.00    -0.271 OA
HETATM   15  C12 UNL     1       7.886  10.225   2.977  1.00  0.00     0.154 C 
ENDROOT
BRANCH  13  16
HETATM   16  C10 UNL     1       8.421  10.074  -0.784  1.00  0.00     0.227 C 
BRANCH  16  17
HETATM   17  N2  UNL     1       7.895  10.967  -1.818  1.00  0.00    -0.337 N 
HETATM   18  C11 UNL     1       7.050  10.482  -2.848  1.00  0.00     0.329 C 
HETATM   19  N3  UNL     1       6.574  11.402  -3.821  1.00  0.00    -0.040 NA
HETATM   20  O4  UNL     1       6.713   9.259  -2.917  1.00  0.00    -0.251 OA
ATOM     21  H2  UNL     1       8.143  11.956  -1.798  1.00  0.00     0.164 HD
ENDBRANCH  16  17
ENDBRANCH  13  16
TORSDOF 2
ENDMDL
MODEL 4
REMARK VINA RESULT: -6.548482388      1.531      3.106
REMARK  2 active torsions:
REMARK  status: ('A' for Active; 'I' for Inactive)
REMARK       I    between atoms: N1_12  and  C9_13 
REMARK    1  A    between atoms: C9_13  and  C10_15 
REMARK    2  A    between atoms: C10_15  and  N2_16 
REMARK       I    between atoms: N2_16  and  C11_18 
ROOT
HETATM    1  C1  UNL     1       8.761   7.344   3.578  1.00  0.00     0.012 C 
HETATM    2  C2  UNL     1       8.989   8.630   4.273  1.00  0.00     0.016 C 
HETATM    3  C3  UNL     1      10.007   9.526   3.695  1.00  0.00    -0.022 C 
HETATM    4  C4  UNL     1      11.389   8.933   3.968  1.00  0.00     0.017 C 
HETATM    5  C5  UNL     1       9.845  10.770   4.573  1.00  0.00     0.013 C 
HETATM    6  C6  UNL     1       8.373  10.787   4.965  1.00  0.00     0.028 C 
HETATM    7  C7  UNL     1       7.777   9.516   4.373  1.00  0.00     0.084 C 
HETATM    8  C8  UNL     1       6.710   8.973   5.267  1.00  0.00     0.034 C 
HETATM    9  S1  UNL     1       7.194   9.912   2.755  1.00  0.00     0.243 S 
HETATM   10  O1  UNL     1       6.531  11.277   2.786  1.00  0.00    -0.205 OA
HETATM   11  O2  UNL     1       6.232   8.869   2.275  1.00  0.00    -0.205 OA
HETATM   12  N1  UNL     1       8.574  10.060   1.739  1.00  0.00    -0.243 N 
HETATM   13  C9  UNL     1       8.430  10.322   0.360  1.00  0.00     0.251 C 
HETATM   14  O3  UNL     1       9.412  10.439  -0.423  1.00  0.00    -0.271 OA
HETATM   15  C12 UNL     1       9.872   9.918   2.292  1.00  0.00     0.154 C 
ENDROOT
BRANCH  13  16
HETATM   16  C10 UNL     1       7.071  10.472  -0.218  1.00  0.00     0.227 C 
BRANCH  16  17
HETATM   17  N2  UNL     1       7.143  11.084  -1.546  1.00  0.00    -0.337 N 
HETATM   18  C11 UNL     1       6.744  10.373  -2.706  1.00  0.00     0.329 C 
HETATM   19  N3  UNL     1       6.839  11.026  -3.965  1.00  0.00    -0.040 NA
HETATM   20  O4  UNL     1       6.310   9.181  -2.644  1.00  0.00    -0.251 OA
ATOM     21  H2  UNL     1       7.486  12.040  -1.639  1.00  0.00     0.164 HD
ENDBRANCH  16  17
ENDBRANCH  13  16
TORSDOF 2
ENDMDL
MODEL 5
REMARK VINA RESULT: -6.373926394      6.040      7.389
REMARK  2 active torsions:
REMARK  status: ('A' for Active; 'I' for Inactive)
REMARK       I    between atoms: N1_12  and  C9_13 
REMARK    1  A    between atoms: C9_13  and  C10_15 
REMARK    2  A    between atoms: C10_15  and  N2_16 
REMARK       I    between atoms: N2_16  and  C11_18 
ROOT
HETATM    1  C1  UNL     1      17.761  10.465   2.225  1.00  0.00     0.012 C 
HETATM    2  C2  UNL     1      17.534   9.030   1.944  1.00  0.00     0.016 C 
HETATM    3  C3  UNL     1      16.309   8.429   2.502  1.00  0.00    -0.022 C 
HETATM    4  C4  UNL     1      16.483   8.285   4.014  1.00  0.00     0.017 C 
HETATM    5  C5  UNL     1      16.353   7.029   1.886  1.00  0.00     0.013 C 
HETATM    6  C6  UNL     1      17.047   7.211   0.542  1.00  0.00     0.028 C 
HETATM    7  C7  UNL     1      17.446   8.680   0.483  1.00  0.00     0.084 C 
HETATM    8  C8  UNL     1      18.736   8.843  -0.251  1.00  0.00     0.034 C 
HETATM    9  S1  UNL     1      16.107   9.559  -0.259  1.00  0.00     0.243 S 
HETATM   10  O1  UNL     1      15.551   8.739  -1.409  1.00  0.00    -0.205 OA
HETATM   11  O2  UNL     1      16.565  10.902  -0.741  1.00  0.00    -0.205 OA
HETATM   12  N1  UNL     1      14.856   9.667   0.916  1.00  0.00    -0.243 N 
HETATM   13  C9  UNL     1      13.662  10.367   0.636  1.00  0.00     0.251 C 
HETATM   14  O3  UNL     1      12.718  10.472   1.466  1.00  0.00    -0.271 OA
HETATM   15  C12 UNL     1      15.023   9.046   2.179  1.00  0.00     0.154 C 
ENDROOT
BRANCH  13  16
HETATM   16  C10 UNL     1      13.487  11.016  -0.687  1.00  0.00     0.227 C 
BRANCH  16  17
HETATM   17  N2  UNL     1      13.806  12.442  -0.606  1.00  0.00    -0.337 N 
HETATM   18  C11 UNL     1      14.266  13.158  -1.741  1.00  0.00     0.329 C 
HETATM   19  N3  UNL     1      14.557  14.541  -1.593  1.00  0.00    -0.040 NA
HETATM   20  O4  UNL     1      14.419  12.597  -2.869  1.00  0.00    -0.251 OA
ATOM     21  H2  UNL     1      13.696  12.930   0.283  1.00  0.00     0.164 HD
ENDBRANCH  16  17
ENDBRANCH  13  16
TORSDOF 2
ENDMDL
