MODEL 1
REMARK VINA RESULT: -6.193093210      0.000      0.000
REMARK  7 active torsions:
REMARK  status: ('A' for Active; 'I' for Inactive)
REMARK    1  A    between atoms: C2_2  and  C3_3 
REMARK    2  A    between atoms: C3_3  and  N1_4 
REMARK    3  A    between atoms: C4_6  and  C5_7 
REMARK    4  A    between atoms: C6_8  and  N2_9 
REMARK    5  A    between atoms: N2_9  and  C7_10 
REMARK    6  A    between atoms: N2_9  and  C9_12 
REMARK    7  A    between atoms: C11_14  and  C12_15 
ROOT
HETATM    1  C5  UNL     1     -75.997 -66.948  52.765  1.00  0.00     0.087 C 
HETATM    2  C6  UNL     1     -76.907 -66.307  51.807  1.00  0.00     0.047 C 
HETATM    3  C11 UNL     1     -76.412 -65.786  50.730  1.00  0.00     0.090 C 
HETATM    4  N3  UNL     1     -75.060 -65.805  50.477  1.00  0.00    -0.374 N 
ATOM      5  H3  UNL     1     -74.611 -65.029  49.990  1.00  0.00     0.160 HD
HETATM    6  C13 UNL     1     -74.287 -66.944  50.914  1.00  0.00     0.061 C 
HETATM    7  C14 UNL     1     -72.930 -66.323  51.321  1.00  0.00     0.034 C 
HETATM    8  C15 UNL     1     -71.909 -67.360  51.664  1.00  0.00     0.002 C 
HETATM    9  C16 UNL     1     -72.486 -68.352  52.629  1.00  0.00     0.001 C 
HETATM   10  C17 UNL     1     -73.774 -67.761  53.165  1.00  0.00     0.013 C 
HETATM   11  C18 UNL     1     -74.836 -67.668  52.082  1.00  0.00     0.009 C 
HETATM   12  C19 UNL     1     -75.305 -69.078  51.859  1.00  0.00     0.124 C 
HETATM   13  C20 UNL     1     -75.375 -69.507  50.453  1.00  0.00     0.259 C 
HETATM   14  O2  UNL     1     -76.352 -70.191  50.067  1.00  0.00    -0.265 OA
HETATM   15  O3  UNL     1     -74.311 -69.088  49.700  1.00  0.00    -0.319 OA
HETATM   16  C21 UNL     1     -73.996 -67.739  49.689  1.00  0.00     0.210 C 
ENDROOT
BRANCH   1  17
HETATM   17  C4  UNL     1     -75.537 -65.889  53.691  1.00  0.00     0.072 C 
HETATM   18  N1  UNL     1     -75.976 -65.598  54.827  1.00  0.00    -0.378 N 
ATOM     19  H1  UNL     1     -75.501 -64.823  55.289  1.00  0.00     0.164 HD
BRANCH  18  20
HETATM   20  C3  UNL     1     -77.025 -66.180  55.559  1.00  0.00     0.086 C 
BRANCH  20  21
HETATM   21  C2  UNL     1     -76.610 -66.539  56.935  1.00  0.00     0.007 C 
HETATM   22  C1  UNL     1     -75.649 -67.429  57.111  1.00  0.00     0.012 C 
ENDBRANCH  20  21
ENDBRANCH  18  20
ENDBRANCH   1  17
BRANCH   2  23
HETATM   23  N2  UNL     1     -78.316 -66.275  52.119  1.00  0.00    -0.382 N 
BRANCH  23  24
HETATM   24  C7  UNL     1     -78.953 -65.092  52.606  1.00  0.00     0.118 C 
HETATM   25  C8  UNL     1     -80.448 -65.105  52.576  1.00  0.00     0.026 C 
ENDBRANCH  23  24
BRANCH  23  26
HETATM   26  C9  UNL     1     -79.062 -67.482  51.912  1.00  0.00     0.118 C 
HETATM   27  C10 UNL     1     -78.873 -68.115  50.559  1.00  0.00     0.026 C 
ENDBRANCH  23  26
ENDBRANCH   2  23
BRANCH   3  28
HETATM   28  C12 UNL     1     -77.318 -65.149  49.777  1.00  0.00     0.289 C 
HETATM   29  O1  UNL     1     -77.470 -63.902  49.788  1.00  0.00    -0.300 OA
ENDBRANCH   3  28
TORSDOF 7
ENDMDL
MODEL 2
REMARK VINA RESULT: -6.113976491      0.234      1.308
REMARK  7 active torsions:
REMARK  status: ('A' for Active; 'I' for Inactive)
REMARK    1  A    between atoms: C2_2  and  C3_3 
REMARK    2  A    between atoms: C3_3  and  N1_4 
REMARK    3  A    between atoms: C4_6  and  C5_7 
REMARK    4  A    between atoms: C6_8  and  N2_9 
REMARK    5  A    between atoms: N2_9  and  C7_10 
REMARK    6  A    between atoms: N2_9  and  C9_12 
REMARK    7  A    between atoms: C11_14  and  C12_15 
ROOT
HETATM    1  C5  UNL     1     -75.996 -66.966  52.772  1.00  0.00     0.087 C 
HETATM    2  C6  UNL     1     -76.902 -66.341  51.801  1.00  0.00     0.047 C 
HETATM    3  C11 UNL     1     -76.402 -65.827  50.722  1.00  0.00     0.090 C 
HETATM    4  N3  UNL     1     -75.049 -65.840  50.480  1.00  0.00    -0.374 N 
ATOM      5  H3  UNL     1     -74.601 -65.066  49.988  1.00  0.00     0.160 HD
HETATM    6  C13 UNL     1     -74.271 -66.970  50.934  1.00  0.00     0.061 C 
HETATM    7  C14 UNL     1     -72.922 -66.336  51.345  1.00  0.00     0.034 C 
HETATM    8  C15 UNL     1     -71.897 -67.363  51.704  1.00  0.00     0.002 C 
HETATM    9  C16 UNL     1     -72.474 -68.349  52.676  1.00  0.00     0.001 C 
HETATM   10  C17 UNL     1     -73.770 -67.761  53.196  1.00  0.00     0.013 C 
HETATM   11  C18 UNL     1     -74.825 -67.686  52.104  1.00  0.00     0.009 C 
HETATM   12  C19 UNL     1     -75.283 -69.101  51.892  1.00  0.00     0.124 C 
HETATM   13  C20 UNL     1     -75.340 -69.544  50.490  1.00  0.00     0.259 C 
HETATM   14  O2  UNL     1     -76.310 -70.238  50.104  1.00  0.00    -0.265 OA
HETATM   15  O3  UNL     1     -74.273 -69.125  49.740  1.00  0.00    -0.319 OA
HETATM   16  C21 UNL     1     -73.966 -67.775  49.719  1.00  0.00     0.210 C 
ENDROOT
BRANCH   1  17
HETATM   17  C4  UNL     1     -75.549 -65.896  53.691  1.00  0.00     0.072 C 
HETATM   18  N1  UNL     1     -75.926 -65.661  54.861  1.00  0.00    -0.378 N 
ATOM     19  H1  UNL     1     -75.477 -64.862  55.309  1.00  0.00     0.164 HD
BRANCH  18  20
HETATM   20  C3  UNL     1     -76.877 -66.334  55.649  1.00  0.00     0.086 C 
BRANCH  20  21
HETATM   21  C2  UNL     1     -76.240 -67.213  56.657  1.00  0.00     0.007 C 
HETATM   22  C1  UNL     1     -75.088 -66.853  57.195  1.00  0.00     0.012 C 
ENDBRANCH  20  21
ENDBRANCH  18  20
ENDBRANCH   1  17
BRANCH   2  23
HETATM   23  N2  UNL     1     -78.313 -66.315  52.102  1.00  0.00    -0.382 N 
BRANCH  23  24
HETATM   24  C7  UNL     1     -79.164 -67.429  51.821  1.00  0.00     0.118 C 
HETATM   25  C8  UNL     1     -78.819 -68.212  50.595  1.00  0.00     0.026 C 
ENDBRANCH  23  24
BRANCH  23  26
HETATM   26  C9  UNL     1     -78.835 -65.124  52.706  1.00  0.00     0.118 C 
HETATM   27  C10 UNL     1     -80.324 -64.949  52.570  1.00  0.00     0.026 C 
ENDBRANCH  23  26
ENDBRANCH   2  23
BRANCH   3  28
HETATM   28  C12 UNL     1     -77.306 -65.205  49.756  1.00  0.00     0.289 C 
HETATM   29  O1  UNL     1     -77.513 -63.967  49.795  1.00  0.00    -0.300 OA
ENDBRANCH   3  28
TORSDOF 7
ENDMDL
MODEL 3
REMARK VINA RESULT: -5.736623619      1.355      1.827
REMARK  7 active torsions:
REMARK  status: ('A' for Active; 'I' for Inactive)
REMARK    1  A    between atoms: C2_2  and  C3_3 
REMARK    2  A    between atoms: C3_3  and  N1_4 
REMARK    3  A    between atoms: C4_6  and  C5_7 
REMARK    4  A    between atoms: C6_8  and  N2_9 
REMARK    5  A    between atoms: N2_9  and  C7_10 
REMARK    6  A    between atoms: N2_9  and  C9_12 
REMARK    7  A    between atoms: C11_14  and  C12_15 
ROOT
HETATM    1  C5  UNL     1     -76.205 -67.013  52.669  1.00  0.00     0.087 C 
HETATM    2  C6  UNL     1     -77.244 -66.073  52.232  1.00  0.00     0.047 C 
HETATM    3  C11 UNL     1     -77.119 -65.495  51.080  1.00  0.00     0.090 C 
HETATM    4  N3  UNL     1     -76.030 -65.729  50.273  1.00  0.00    -0.374 N 
ATOM      5  H3  UNL     1     -75.647 -64.986  49.688  1.00  0.00     0.160 HD
HETATM    6  C13 UNL     1     -75.439 -67.047  50.268  1.00  0.00     0.061 C 
HETATM    7  C14 UNL     1     -73.928 -66.763  50.092  1.00  0.00     0.034 C 
HETATM    8  C15 UNL     1     -73.132 -68.013  49.903  1.00  0.00     0.002 C 
HETATM    9  C16 UNL     1     -73.486 -69.015  50.961  1.00  0.00     0.001 C 
HETATM   10  C17 UNL     1     -74.270 -68.282  52.030  1.00  0.00     0.013 C 
HETATM   11  C18 UNL     1     -75.624 -67.825  51.513  1.00  0.00     0.009 C 
HETATM   12  C19 UNL     1     -76.460 -69.070  51.428  1.00  0.00     0.124 C 
HETATM   13  C20 UNL     1     -77.191 -69.257  50.164  1.00  0.00     0.259 C 
HETATM   14  O2  UNL     1     -78.371 -69.678  50.193  1.00  0.00    -0.265 OA
HETATM   15  O3  UNL     1     -76.455 -68.935  49.055  1.00  0.00    -0.319 OA
HETATM   16  C21 UNL     1     -75.863 -67.685  48.991  1.00  0.00     0.210 C 
ENDROOT
BRANCH   1  17
HETATM   17  C4  UNL     1     -75.175 -66.215  53.371  1.00  0.00     0.072 C 
HETATM   18  N1  UNL     1     -74.790 -66.305  54.558  1.00  0.00    -0.378 N 
ATOM     19  H1  UNL     1     -74.061 -65.645  54.829  1.00  0.00     0.164 HD
BRANCH  18  20
HETATM   20  C3  UNL     1     -75.213 -67.181  55.574  1.00  0.00     0.086 C 
BRANCH  20  21
HETATM   21  C2  UNL     1     -75.067 -66.582  56.921  1.00  0.00     0.007 C 
HETATM   22  C1  UNL     1     -75.227 -65.278  57.070  1.00  0.00     0.012 C 
ENDBRANCH  20  21
ENDBRANCH  18  20
ENDBRANCH   1  17
BRANCH   2  23
HETATM   23  N2  UNL     1     -78.357 -65.825  53.117  1.00  0.00    -0.382 N 
BRANCH  23  24
HETATM   24  C7  UNL     1     -78.187 -65.169  54.376  1.00  0.00     0.118 C 
HETATM   25  C8  UNL     1     -78.656 -65.934  55.572  1.00  0.00     0.026 C 
ENDBRANCH  23  24
BRANCH  23  26
HETATM   26  C9  UNL     1     -79.653 -66.256  52.681  1.00  0.00     0.118 C 
HETATM   27  C10 UNL     1     -80.751 -65.244  52.872  1.00  0.00     0.026 C 
ENDBRANCH  23  26
ENDBRANCH   2  23
BRANCH   3  28
HETATM   28  C12 UNL     1     -78.155 -64.560  50.646  1.00  0.00     0.289 C 
HETATM   29  O1  UNL     1     -77.915 -63.736  49.729  1.00  0.00    -0.300 OA
ENDBRANCH   3  28
TORSDOF 7
ENDMDL
MODEL 4
REMARK VINA RESULT: -5.529547651      1.999      4.935
REMARK  7 active torsions:
REMARK  status: ('A' for Active; 'I' for Inactive)
REMARK    1  A    between atoms: C2_2  and  C3_3 
REMARK    2  A    between atoms: C3_3  and  N1_4 
REMARK    3  A    between atoms: C4_6  and  C5_7 
REMARK    4  A    between atoms: C6_8  and  N2_9 
REMARK    5  A    between atoms: N2_9  and  C7_10 
REMARK    6  A    between atoms: N2_9  and  C9_12 
REMARK    7  A    between atoms: C11_14  and  C12_15 
ROOT
HETATM    1  C5  UNL     1     -74.644 -67.121  51.284  1.00  0.00     0.087 C 
HETATM    2  C6  UNL     1     -75.290 -66.925  52.587  1.00  0.00     0.047 C 
HETATM    3  C11 UNL     1     -76.504 -66.475  52.621  1.00  0.00     0.090 C 
HETATM    4  N3  UNL     1     -77.187 -66.163  51.469  1.00  0.00    -0.374 N 
ATOM      5  H3  UNL     1     -77.848 -65.386  51.451  1.00  0.00     0.160 HD
HETATM    6  C13 UNL     1     -76.952 -66.956  50.285  1.00  0.00     0.061 C 
HETATM    7  C14 UNL     1     -77.061 -65.927  49.135  1.00  0.00     0.034 C 
HETATM    8  C15 UNL     1     -77.004 -66.570  47.788  1.00  0.00     0.002 C 
HETATM    9  C16 UNL     1     -75.835 -67.507  47.713  1.00  0.00     0.001 C 
HETATM   10  C17 UNL     1     -74.947 -67.212  48.904  1.00  0.00     0.013 C 
HETATM   11  C18 UNL     1     -75.621 -67.597  50.210  1.00  0.00     0.009 C 
HETATM   12  C19 UNL     1     -75.577 -69.099  50.256  1.00  0.00     0.124 C 
HETATM   13  C20 UNL     1     -76.847 -69.759  50.597  1.00  0.00     0.259 C 
HETATM   14  O2  UNL     1     -76.839 -70.740  51.377  1.00  0.00    -0.265 OA
HETATM   15  O3  UNL     1     -77.938 -69.195  49.990  1.00  0.00    -0.319 OA
HETATM   16  C21 UNL     1     -78.146 -67.833  50.132  1.00  0.00     0.210 C 
ENDROOT
BRANCH   1  17
HETATM   17  C4  UNL     1     -73.999 -65.838  50.929  1.00  0.00     0.072 C 
HETATM   18  N1  UNL     1     -72.779 -65.579  50.820  1.00  0.00    -0.378 N 
ATOM     19  H1  UNL     1     -72.561 -64.616  50.563  1.00  0.00     0.164 HD
BRANCH  18  20
HETATM   20  C3  UNL     1     -71.665 -66.418  50.998  1.00  0.00     0.086 C 
BRANCH  20  21
HETATM   21  C2  UNL     1     -71.079 -66.846  49.706  1.00  0.00     0.007 C 
HETATM   22  C1  UNL     1     -71.109 -66.019  48.676  1.00  0.00     0.012 C 
ENDBRANCH  20  21
ENDBRANCH  18  20
ENDBRANCH   1  17
BRANCH   2  23
HETATM   23  N2  UNL     1     -74.533 -67.231  53.778  1.00  0.00    -0.382 N 
BRANCH  23  24
HETATM   24  C7  UNL     1     -73.943 -66.205  54.579  1.00  0.00     0.118 C 
HETATM   25  C8  UNL     1     -74.239 -66.277  56.043  1.00  0.00     0.026 C 
ENDBRANCH  23  24
BRANCH  23  26
HETATM   26  C9  UNL     1     -74.400 -68.613  54.135  1.00  0.00     0.118 C 
HETATM   27  C10 UNL     1     -73.322 -69.355  53.393  1.00  0.00     0.026 C 
ENDBRANCH  23  26
ENDBRANCH   2  23
BRANCH   3  28
HETATM   28  C12 UNL     1     -77.145 -66.281  53.920  1.00  0.00     0.289 C 
HETATM   29  O1  UNL     1     -78.292 -65.773  53.986  1.00  0.00    -0.300 OA
ENDBRANCH   3  28
TORSDOF 7
ENDMDL
MODEL 5
REMARK VINA RESULT: -5.456550100      2.079      4.849
REMARK  7 active torsions:
REMARK  status: ('A' for Active; 'I' for Inactive)
REMARK    1  A    between atoms: C2_2  and  C3_3 
REMARK    2  A    between atoms: C3_3  and  N1_4 
REMARK    3  A    between atoms: C4_6  and  C5_7 
REMARK    4  A    between atoms: C6_8  and  N2_9 
REMARK    5  A    between atoms: N2_9  and  C7_10 
REMARK    6  A    between atoms: N2_9  and  C9_12 
REMARK    7  A    between atoms: C11_14  and  C12_15 
ROOT
HETATM    1  C5  UNL     1     -76.160 -66.701  52.135  1.00  0.00     0.087 C 
HETATM    2  C6  UNL     1     -75.462 -67.351  53.250  1.00  0.00     0.047 C 
HETATM    3  C11 UNL     1     -74.882 -68.491  53.044  1.00  0.00     0.090 C 
HETATM    4  N3  UNL     1     -74.924 -69.107  51.815  1.00  0.00    -0.374 N 
ATOM      5  H3  UNL     1     -74.962 -70.124  51.744  1.00  0.00     0.160 HD
HETATM    6  C13 UNL     1     -74.912 -68.287  50.625  1.00  0.00     0.061 C 
HETATM    7  C14 UNL     1     -75.824 -69.062  49.645  1.00  0.00     0.034 C 
HETATM    8  C15 UNL     1     -75.829 -68.462  48.276  1.00  0.00     0.002 C 
HETATM    9  C16 UNL     1     -76.073 -66.984  48.362  1.00  0.00     0.001 C 
HETATM   10  C17 UNL     1     -76.557 -66.690  49.767  1.00  0.00     0.013 C 
HETATM   11  C18 UNL     1     -75.462 -66.924  50.794  1.00  0.00     0.009 C 
HETATM   12  C19 UNL     1     -74.510 -65.773  50.633  1.00  0.00     0.124 C 
HETATM   13  C20 UNL     1     -73.086 -66.136  50.548  1.00  0.00     0.259 C 
HETATM   14  O2  UNL     1     -72.238 -65.442  51.156  1.00  0.00    -0.265 OA
HETATM   15  O3  UNL     1     -72.849 -67.242  49.775  1.00  0.00    -0.319 OA
HETATM   16  C21 UNL     1     -73.542 -68.408  50.055  1.00  0.00     0.210 C 
ENDROOT
BRANCH   1  17
HETATM   17  C4  UNL     1     -77.547 -67.216  52.140  1.00  0.00     0.072 C 
HETATM   18  N1  UNL     1     -78.620 -66.573  52.182  1.00  0.00    -0.378 N 
ATOM     19  H1  UNL     1     -79.467 -67.142  52.177  1.00  0.00     0.164 HD
BRANCH  18  20
HETATM   20  C3  UNL     1     -78.832 -65.184  52.236  1.00  0.00     0.086 C 
BRANCH  20  21
HETATM   21  C2  UNL     1     -79.830 -64.735  51.238  1.00  0.00     0.007 C 
HETATM   22  C1  UNL     1     -79.423 -64.358  50.038  1.00  0.00     0.012 C 
ENDBRANCH  20  21
ENDBRANCH  18  20
ENDBRANCH   1  17
BRANCH   2  23
HETATM   23  N2  UNL     1     -75.465 -66.694  54.535  1.00  0.00    -0.382 N 
BRANCH  23  24
HETATM   24  C7  UNL     1     -76.542 -66.856  55.461  1.00  0.00     0.118 C 
HETATM   25  C8  UNL     1     -77.479 -65.696  55.571  1.00  0.00     0.026 C 
ENDBRANCH  23  24
BRANCH  23  26
HETATM   26  C9  UNL     1     -74.334 -65.873  54.856  1.00  0.00     0.118 C 
HETATM   27  C10 UNL     1     -73.959 -65.860  56.313  1.00  0.00     0.026 C 
ENDBRANCH  23  26
ENDBRANCH   2  23
BRANCH   3  28
HETATM   28  C12 UNL     1     -74.187 -69.137  54.155  1.00  0.00     0.289 C 
HETATM   29  O1  UNL     1     -73.232 -69.922  53.929  1.00  0.00    -0.300 OA
ENDBRANCH   3  28
TORSDOF 7
ENDMDL
