MODEL 1
REMARK VINA RESULT: -8.066566368      0.000      0.000
REMARK  7 active torsions:
REMARK  status: ('A' for Active; 'I' for Inactive)
REMARK    1  A    between atoms: C1_2  and  C2_3 
REMARK       I    between atoms: C1_2  and  N3_18 
REMARK    2  A    between atoms: C2_3  and  N1_4 
REMARK    3  A    between atoms: N1_4  and  C3_5 
REMARK    4  A    between atoms: N1_4  and  C7_12 
REMARK    5  A    between atoms: C3_5  and  C4_6 
REMARK    6  A    between atoms: C7_12  and  C8_13 
REMARK    7  A    between atoms: N3_18  and  C12_20 
ROOT
HETATM    1  C2  UNL     1     -79.704 -65.080  52.700  1.00  0.00     0.165 C 
ENDROOT
BRANCH   1   2
HETATM    2  C1  UNL     1     -78.849 -65.473  53.812  1.00  0.00     0.257 C 
HETATM    3  O1  UNL     1     -79.451 -65.918  54.864  1.00  0.00    -0.267 OA
HETATM    4  N3  UNL     1     -77.446 -65.437  53.913  1.00  0.00    -0.347 N 
ATOM      5  H3  UNL     1     -76.917 -65.091  53.112  1.00  0.00     0.163 HD
BRANCH   4   6
HETATM    6  C12 UNL     1     -76.708 -65.861  55.083  1.00  0.00     0.034 C 
HETATM    7  C13 UNL     1     -77.572 -66.292  56.220  1.00  0.00     0.035 C 
HETATM    8  C14 UNL     1     -76.689 -66.715  57.374  1.00  0.00    -0.012 C 
HETATM    9  C15 UNL     1     -75.892 -65.568  57.895  1.00  0.00     0.009 C 
HETATM   10  C19 UNL     1     -75.795 -67.825  56.926  1.00  0.00     0.009 C 
HETATM   11  C16 UNL     1     -75.055 -65.007  56.770  1.00  0.00    -0.012 C 
HETATM   12  C17 UNL     1     -74.052 -66.086  56.392  1.00  0.00     0.009 C 
HETATM   13  C21 UNL     1     -75.914 -64.652  55.598  1.00  0.00     0.035 C 
HETATM   14  C18 UNL     1     -74.844 -67.260  55.897  1.00  0.00    -0.012 C 
HETATM   15  C20 UNL     1     -75.646 -66.879  54.702  1.00  0.00     0.035 C 
ENDBRANCH   4   6
ENDBRANCH   1   2
BRANCH   1  16
HETATM   16  N1  UNL     1     -79.458 -65.640  51.447  1.00  0.00    -0.355 N 
BRANCH  16  17
HETATM   17  C3  UNL     1     -80.249 -65.062  50.408  1.00  0.00     0.212 C 
BRANCH  17  18
HETATM   18  C4  UNL     1     -79.501 -64.117  49.527  1.00  0.00     0.141 A 
HETATM   19  N2  UNL     1     -79.911 -63.566  48.376  1.00  0.00    -0.347 N 
HETATM   20  C5  UNL     1     -78.923 -62.779  47.918  1.00  0.00     0.114 A 
ATOM     21  H2  UNL     1     -80.814 -63.717  47.927  1.00  0.00     0.167 HD
HETATM   22  C6  UNL     1     -77.898 -62.886  48.856  1.00  0.00     0.161 A 
HETATM   23  O2  UNL     1     -78.282 -63.689  49.793  1.00  0.00    -0.307 OA
ENDBRANCH  17  18
ENDBRANCH  16  17
BRANCH  16  24
HETATM   24  C7  UNL     1     -79.057 -66.963  51.300  1.00  0.00     0.095 C 
BRANCH  24  25
HETATM   25  C8  UNL     1     -77.804 -67.182  50.477  1.00  0.00     0.160 C 
HETATM   26  C9  UNL     1     -77.352 -68.622  50.521  1.00  0.00     0.039 C 
HETATM   27  C10 UNL     1     -76.142 -68.523  51.442  1.00  0.00     0.029 C 
HETATM   28  C11 UNL     1     -75.636 -67.143  51.030  1.00  0.00     0.168 C 
HETATM   29  O3  UNL     1     -76.806 -66.406  51.029  1.00  0.00    -0.381 OA
ENDBRANCH  24  25
ENDBRANCH  16  24
ENDBRANCH   1  16
TORSDOF 7
ENDMDL
MODEL 2
REMARK VINA RESULT: -8.036609675      1.500      3.943
REMARK  7 active torsions:
REMARK  status: ('A' for Active; 'I' for Inactive)
REMARK    1  A    between atoms: C1_2  and  C2_3 
REMARK       I    between atoms: C1_2  and  N3_18 
REMARK    2  A    between atoms: C2_3  and  N1_4 
REMARK    3  A    between atoms: N1_4  and  C3_5 
REMARK    4  A    between atoms: N1_4  and  C7_12 
REMARK    5  A    between atoms: C3_5  and  C4_6 
REMARK    6  A    between atoms: C7_12  and  C8_13 
REMARK    7  A    between atoms: N3_18  and  C12_20 
ROOT
HETATM    1  C2  UNL     1     -77.882 -65.903  51.386  1.00  0.00     0.165 C 
ENDROOT
BRANCH   1   2
HETATM    2  C1  UNL     1     -77.036 -65.982  52.568  1.00  0.00     0.257 C 
HETATM    3  O1  UNL     1     -75.769 -65.824  52.374  1.00  0.00    -0.267 OA
HETATM    4  N3  UNL     1     -77.398 -66.210  53.908  1.00  0.00    -0.347 N 
ATOM      5  H3  UNL     1     -78.386 -66.345  54.121  1.00  0.00     0.163 HD
BRANCH   4   6
HETATM    6  C12 UNL     1     -76.453 -66.265  55.003  1.00  0.00     0.034 C 
HETATM    7  C13 UNL     1     -75.384 -67.290  54.829  1.00  0.00     0.035 C 
HETATM    8  C14 UNL     1     -74.462 -67.246  56.028  1.00  0.00    -0.012 C 
HETATM    9  C15 UNL     1     -75.179 -67.630  57.278  1.00  0.00     0.009 C 
HETATM   10  C19 UNL     1     -73.879 -65.876  56.149  1.00  0.00     0.009 C 
HETATM   11  C16 UNL     1     -76.346 -66.692  57.477  1.00  0.00    -0.012 C 
HETATM   12  C17 UNL     1     -75.759 -65.312  57.729  1.00  0.00     0.009 C 
HETATM   13  C21 UNL     1     -77.225 -66.677  56.266  1.00  0.00     0.035 C 
HETATM   14  C18 UNL     1     -75.005 -64.928  56.489  1.00  0.00    -0.012 C 
HETATM   15  C20 UNL     1     -75.924 -64.877  55.318  1.00  0.00     0.035 C 
ENDBRANCH   4   6
ENDBRANCH   1   2
BRANCH   1  16
HETATM   16  N1  UNL     1     -79.010 -65.083  51.433  1.00  0.00    -0.355 N 
BRANCH  16  17
HETATM   17  C3  UNL     1     -80.005 -65.548  52.346  1.00  0.00     0.212 C 
BRANCH  17  18
HETATM   18  C4  UNL     1     -80.312 -64.593  53.451  1.00  0.00     0.141 A 
HETATM   19  N2  UNL     1     -81.452 -63.921  53.665  1.00  0.00    -0.347 N 
HETATM   20  C5  UNL     1     -81.293 -63.176  54.771  1.00  0.00     0.114 A 
ATOM     21  H2  UNL     1     -82.293 -63.968  53.089  1.00  0.00     0.167 HD
HETATM   22  C6  UNL     1     -79.997 -63.437  55.211  1.00  0.00     0.161 A 
HETATM   23  O2  UNL     1     -79.450 -64.282  54.400  1.00  0.00    -0.307 OA
ENDBRANCH  17  18
ENDBRANCH  16  17
BRANCH  16  24
HETATM   24  C7  UNL     1     -79.431 -64.348  50.331  1.00  0.00     0.095 C 
BRANCH  24  25
HETATM   25  C8  UNL     1     -78.526 -64.406  49.118  1.00  0.00     0.160 C 
HETATM   26  C9  UNL     1     -78.180 -63.026  48.613  1.00  0.00     0.039 C 
HETATM   27  C10 UNL     1     -79.042 -62.946  47.359  1.00  0.00     0.029 C 
HETATM   28  C11 UNL     1     -78.976 -64.408  46.926  1.00  0.00     0.168 C 
HETATM   29  O3  UNL     1     -79.215 -65.064  48.120  1.00  0.00    -0.381 OA
ENDBRANCH  24  25
ENDBRANCH  16  24
ENDBRANCH   1  16
TORSDOF 7
ENDMDL
MODEL 3
REMARK VINA RESULT: -8.036159033      0.192      1.387
REMARK  7 active torsions:
REMARK  status: ('A' for Active; 'I' for Inactive)
REMARK    1  A    between atoms: C1_2  and  C2_3 
REMARK       I    between atoms: C1_2  and  N3_18 
REMARK    2  A    between atoms: C2_3  and  N1_4 
REMARK    3  A    between atoms: N1_4  and  C3_5 
REMARK    4  A    between atoms: N1_4  and  C7_12 
REMARK    5  A    between atoms: C3_5  and  C4_6 
REMARK    6  A    between atoms: C7_12  and  C8_13 
REMARK    7  A    between atoms: N3_18  and  C12_20 
ROOT
HETATM    1  C2  UNL     1     -79.644 -64.958  52.773  1.00  0.00     0.165 C 
ENDROOT
BRANCH   1   2
HETATM    2  C1  UNL     1     -78.754 -65.253  53.886  1.00  0.00     0.257 C 
HETATM    3  O1  UNL     1     -79.297 -65.288  55.057  1.00  0.00    -0.267 OA
HETATM    4  N3  UNL     1     -77.370 -65.507  53.876  1.00  0.00    -0.347 N 
ATOM      5  H3  UNL     1     -76.886 -65.490  52.978  1.00  0.00     0.163 HD
BRANCH   4   6
HETATM    6  C12 UNL     1     -76.591 -65.792  55.062  1.00  0.00     0.034 C 
HETATM    7  C13 UNL     1     -75.859 -64.611  55.603  1.00  0.00     0.035 C 
HETATM    8  C14 UNL     1     -75.092 -65.032  56.838  1.00  0.00    -0.012 C 
HETATM    9  C15 UNL     1     -74.038 -66.034  56.506  1.00  0.00     0.009 C 
HETATM   10  C19 UNL     1     -76.048 -65.581  57.846  1.00  0.00     0.009 C 
HETATM   11  C16 UNL     1     -74.691 -67.231  55.857  1.00  0.00    -0.012 C 
HETATM   12  C17 UNL     1     -75.572 -67.875  56.918  1.00  0.00     0.009 C 
HETATM   13  C21 UNL     1     -75.510 -66.812  54.677  1.00  0.00     0.035 C 
HETATM   14  C18 UNL     1     -76.618 -66.864  57.286  1.00  0.00    -0.012 C 
HETATM   15  C20 UNL     1     -77.441 -66.512  56.095  1.00  0.00     0.035 C 
ENDBRANCH   4   6
ENDBRANCH   1   2
BRANCH   1  16
HETATM   16  N1  UNL     1     -79.416 -65.599  51.555  1.00  0.00    -0.355 N 
BRANCH  16  17
HETATM   17  C3  UNL     1     -80.222 -65.090  50.492  1.00  0.00     0.212 C 
BRANCH  17  18
HETATM   18  C4  UNL     1     -79.510 -64.137  49.591  1.00  0.00     0.141 A 
HETATM   19  N2  UNL     1     -79.968 -63.568  48.466  1.00  0.00    -0.347 N 
HETATM   20  C5  UNL     1     -78.998 -62.780  47.975  1.00  0.00     0.114 A 
ATOM     21  H2  UNL     1     -80.891 -63.709  48.056  1.00  0.00     0.167 HD
HETATM   22  C6  UNL     1     -77.932 -62.905  48.864  1.00  0.00     0.161 A 
HETATM   23  O2  UNL     1     -78.277 -63.718  49.807  1.00  0.00    -0.307 OA
ENDBRANCH  17  18
ENDBRANCH  16  17
BRANCH  16  24
HETATM   24  C7  UNL     1     -79.017 -66.929  51.489  1.00  0.00     0.095 C 
BRANCH  24  25
HETATM   25  C8  UNL     1     -77.837 -67.217  50.585  1.00  0.00     0.160 C 
HETATM   26  C9  UNL     1     -77.395 -68.657  50.684  1.00  0.00     0.039 C 
HETATM   27  C10 UNL     1     -76.114 -68.518  51.497  1.00  0.00     0.029 C 
HETATM   28  C11 UNL     1     -75.631 -67.174  50.960  1.00  0.00     0.168 C 
HETATM   29  O3  UNL     1     -76.791 -66.421  51.006  1.00  0.00    -0.381 OA
ENDBRANCH  24  25
ENDBRANCH  16  24
ENDBRANCH   1  16
TORSDOF 7
ENDMDL
MODEL 4
REMARK VINA RESULT: -7.910058989      1.377      3.858
REMARK  7 active torsions:
REMARK  status: ('A' for Active; 'I' for Inactive)
REMARK    1  A    between atoms: C1_2  and  C2_3 
REMARK       I    between atoms: C1_2  and  N3_18 
REMARK    2  A    between atoms: C2_3  and  N1_4 
REMARK    3  A    between atoms: N1_4  and  C3_5 
REMARK    4  A    between atoms: N1_4  and  C7_12 
REMARK    5  A    between atoms: C3_5  and  C4_6 
REMARK    6  A    between atoms: C7_12  and  C8_13 
REMARK    7  A    between atoms: N3_18  and  C12_20 
ROOT
HETATM    1  C2  UNL     1     -77.102 -66.046  51.122  1.00  0.00     0.165 C 
ENDROOT
BRANCH   1   2
HETATM    2  C1  UNL     1     -76.629 -66.339  52.467  1.00  0.00     0.257 C 
HETATM    3  O1  UNL     1     -76.247 -67.554  52.685  1.00  0.00    -0.267 OA
HETATM    4  N3  UNL     1     -76.526 -65.486  53.581  1.00  0.00    -0.347 N 
ATOM      5  H3  UNL     1     -76.816 -64.515  53.468  1.00  0.00     0.163 HD
BRANCH   4   6
HETATM    6  C12 UNL     1     -76.034 -65.902  54.876  1.00  0.00     0.034 C 
HETATM    7  C13 UNL     1     -75.061 -67.031  54.820  1.00  0.00     0.035 C 
HETATM    8  C14 UNL     1     -74.617 -67.368  56.227  1.00  0.00    -0.012 C 
HETATM    9  C15 UNL     1     -75.757 -67.869  57.049  1.00  0.00     0.009 C 
HETATM   10  C19 UNL     1     -74.003 -66.158  56.851  1.00  0.00     0.009 C 
HETATM   11  C16 UNL     1     -76.838 -66.814  57.075  1.00  0.00    -0.012 C 
HETATM   12  C17 UNL     1     -76.264 -65.620  57.824  1.00  0.00     0.009 C 
HETATM   13  C21 UNL     1     -77.231 -66.424  55.685  1.00  0.00     0.035 C 
HETATM   14  C18 UNL     1     -75.094 -65.128  57.024  1.00  0.00    -0.012 C 
HETATM   15  C20 UNL     1     -75.535 -64.704  55.666  1.00  0.00     0.035 C 
ENDBRANCH   4   6
ENDBRANCH   1   2
BRANCH   1  16
HETATM   16  N1  UNL     1     -78.413 -65.599  50.964  1.00  0.00    -0.355 N 
BRANCH  16  17
HETATM   17  C3  UNL     1     -79.323 -66.184  51.897  1.00  0.00     0.212 C 
BRANCH  17  18
HETATM   18  C4  UNL     1     -79.900 -65.216  52.875  1.00  0.00     0.141 A 
HETATM   19  N2  UNL     1     -81.180 -64.839  53.002  1.00  0.00    -0.347 N 
HETATM   20  C5  UNL     1     -81.254 -63.951  54.008  1.00  0.00     0.114 A 
ATOM     21  H2  UNL     1     -81.961 -65.167  52.434  1.00  0.00     0.167 HD
HETATM   22  C6  UNL     1     -79.949 -63.816  54.479  1.00  0.00     0.161 A 
HETATM   23  O2  UNL     1     -79.179 -64.583  53.780  1.00  0.00    -0.307 OA
ENDBRANCH  17  18
ENDBRANCH  16  17
BRANCH  16  24
HETATM   24  C7  UNL     1     -78.913 -65.207  49.728  1.00  0.00     0.095 C 
BRANCH  24  25
HETATM   25  C8  UNL     1     -79.106 -63.717  49.539  1.00  0.00     0.160 C 
HETATM   26  C9  UNL     1     -79.991 -63.414  48.354  1.00  0.00     0.039 C 
HETATM   27  C10 UNL     1     -78.968 -62.915  47.341  1.00  0.00     0.029 C 
HETATM   28  C11 UNL     1     -78.001 -62.220  48.296  1.00  0.00     0.168 C 
HETATM   29  O3  UNL     1     -77.865 -63.167  49.295  1.00  0.00    -0.381 OA
ENDBRANCH  24  25
ENDBRANCH  16  24
ENDBRANCH   1  16
TORSDOF 7
ENDMDL
MODEL 5
REMARK VINA RESULT: -7.864491316      1.610      2.309
REMARK  7 active torsions:
REMARK  status: ('A' for Active; 'I' for Inactive)
REMARK    1  A    between atoms: C1_2  and  C2_3 
REMARK       I    between atoms: C1_2  and  N3_18 
REMARK    2  A    between atoms: C2_3  and  N1_4 
REMARK    3  A    between atoms: N1_4  and  C3_5 
REMARK    4  A    between atoms: N1_4  and  C7_12 
REMARK    5  A    between atoms: C3_5  and  C4_6 
REMARK    6  A    between atoms: C7_12  and  C8_13 
REMARK    7  A    between atoms: N3_18  and  C12_20 
ROOT
HETATM    1  C2  UNL     1     -77.284 -65.517  51.097  1.00  0.00     0.165 C 
ENDROOT
BRANCH   1   2
HETATM    2  C1  UNL     1     -76.632 -65.773  52.374  1.00  0.00     0.257 C 
HETATM    3  O1  UNL     1     -75.369 -66.041  52.326  1.00  0.00    -0.267 OA
HETATM    4  N3  UNL     1     -77.181 -65.775  53.670  1.00  0.00    -0.347 N 
ATOM      5  H3  UNL     1     -78.176 -65.574  53.768  1.00  0.00     0.163 HD
BRANCH   4   6
HETATM    6  C12 UNL     1     -76.420 -66.047  54.870  1.00  0.00     0.034 C 
HETATM    7  C13 UNL     1     -75.506 -67.219  54.755  1.00  0.00     0.035 C 
HETATM    8  C14 UNL     1     -74.766 -67.395  56.064  1.00  0.00    -0.012 C 
HETATM    9  C15 UNL     1     -75.702 -67.731  57.174  1.00  0.00     0.009 C 
HETATM   10  C19 UNL     1     -74.005 -66.146  56.369  1.00  0.00     0.009 C 
HETATM   11  C16 UNL     1     -76.730 -66.630  57.294  1.00  0.00    -0.012 C 
HETATM   12  C17 UNL     1     -75.981 -65.380  57.731  1.00  0.00     0.009 C 
HETATM   13  C21 UNL     1     -77.416 -66.402  55.984  1.00  0.00     0.035 C 
HETATM   14  C18 UNL     1     -75.010 -65.051  56.635  1.00  0.00    -0.012 C 
HETATM   15  C20 UNL     1     -75.735 -64.783  55.362  1.00  0.00     0.035 C 
ENDBRANCH   4   6
ENDBRANCH   1   2
BRANCH   1  16
HETATM   16  N1  UNL     1     -78.517 -66.120  50.851  1.00  0.00    -0.355 N 
BRANCH  16  17
HETATM   17  C3  UNL     1     -79.590 -65.184  50.746  1.00  0.00     0.212 C 
BRANCH  17  18
HETATM   18  C4  UNL     1     -79.962 -64.840  49.342  1.00  0.00     0.141 A 
HETATM   19  N2  UNL     1     -80.341 -65.674  48.363  1.00  0.00    -0.347 N 
HETATM   20  C5  UNL     1     -80.581 -64.941  47.263  1.00  0.00     0.114 A 
ATOM     21  H2  UNL     1     -80.430 -66.687  48.439  1.00  0.00     0.167 HD
HETATM   22  C6  UNL     1     -80.328 -63.622  47.634  1.00  0.00     0.161 A 
HETATM   23  O2  UNL     1     -79.964 -63.606  48.874  1.00  0.00    -0.307 OA
ENDBRANCH  17  18
ENDBRANCH  16  17
BRANCH  16  24
HETATM   24  C7  UNL     1     -78.813 -67.399  51.307  1.00  0.00     0.095 C 
BRANCH  24  25
HETATM   25  C8  UNL     1     -78.492 -68.529  50.350  1.00  0.00     0.160 C 
HETATM   26  C9  UNL     1     -77.218 -69.241  50.734  1.00  0.00     0.039 C 
HETATM   27  C10 UNL     1     -76.257 -68.721  49.671  1.00  0.00     0.029 C 
HETATM   28  C11 UNL     1     -77.231 -68.600  48.503  1.00  0.00     0.168 C 
HETATM   29  O3  UNL     1     -78.309 -67.972  49.101  1.00  0.00    -0.381 OA
ENDBRANCH  24  25
ENDBRANCH  16  24
ENDBRANCH   1  16
TORSDOF 7
ENDMDL
