MODEL 1
REMARK VINA RESULT: -7.136476034      0.000      0.000
REMARK  7 active torsions:
REMARK  status: ('A' for Active; 'I' for Inactive)
REMARK    1  A    between atoms: C2_2  and  S1_4 
REMARK    2  A    between atoms: S1_4  and  C4_5 
REMARK       I    between atoms: N3_11  and  C6_13 
REMARK    3  A    between atoms: C6_13  and  C7_15 
REMARK    4  A    between atoms: C7_15  and  C8_16 
REMARK    5  A    between atoms: C8_16  and  C9_17 
REMARK    6  A    between atoms: N4_20  and  C12_21 
REMARK    7  A    between atoms: C12_21  and  C13_22 
ROOT
HETATM    1  C4  UNL     1     -76.480 -65.955  50.554  1.00  0.00     0.130 A 
HETATM    2  N1  UNL     1     -76.846 -66.160  51.811  1.00  0.00    -0.286 N 
ATOM      3  H1  UNL     1     -77.826 -66.065  52.075  1.00  0.00     0.188 HD
HETATM    4  N2  UNL     1     -75.985 -66.473  52.687  1.00  0.00    -0.278 N 
ATOM      5  H2  UNL     1     -76.265 -66.631  53.655  1.00  0.00     0.189 HD
HETATM    6  C5  UNL     1     -74.706 -66.591  52.321  1.00  0.00     0.168 A 
HETATM    7  N3  UNL     1     -73.664 -66.904  53.060  1.00  0.00    -0.306 N 
ATOM      8  H3  UNL     1     -72.729 -66.962  52.656  1.00  0.00     0.171 HD
HETATM    9  C6  UNL     1     -73.885 -67.157  54.439  1.00  0.00     0.223 C 
HETATM   10  O1  UNL     1     -74.025 -68.362  54.798  1.00  0.00    -0.273 OA
HETATM   11  S2  UNL     1     -74.788 -66.232  50.650  1.00  0.00    -0.026 SA
ENDROOT
BRANCH   9  12
HETATM   12  C7  UNL     1     -73.946 -66.022  55.407  1.00  0.00     0.103 C 
BRANCH  12  13
HETATM   13  C8  UNL     1     -74.411 -66.592  56.728  1.00  0.00     0.014 C 
BRANCH  13  14
HETATM   14  C9  UNL     1     -75.775 -66.063  57.064  1.00  0.00    -0.011 C 
HETATM   15  C10 UNL     1     -76.827 -67.076  56.625  1.00  0.00     0.035 C 
HETATM   16  C11 UNL     1     -78.165 -66.478  57.079  1.00  0.00     0.272 C 
HETATM   17  N4  UNL     1     -78.325 -65.150  56.555  1.00  0.00     0.088 N 
HETATM   18  C16 UNL     1     -77.288 -64.758  55.639  1.00  0.00     0.272 C 
HETATM   19  C17 UNL     1     -75.972 -64.749  56.358  1.00  0.00     0.035 C 
BRANCH  17  20
HETATM   20  C12 UNL     1     -79.590 -65.040  55.858  1.00  0.00     0.277 C 
BRANCH  20  21
HETATM   21  C13 UNL     1     -79.333 -64.884  54.365  1.00  0.00     0.014 A 
HETATM   22  C14 UNL     1     -80.492 -64.399  53.526  1.00  0.00     0.007 A 
HETATM   23  C15 UNL     1     -80.021 -65.800  53.413  1.00  0.00     0.007 A 
ENDBRANCH  20  21
ENDBRANCH  17  20
ENDBRANCH  13  14
ENDBRANCH  12  13
ENDBRANCH   9  12
BRANCH   1  24
HETATM   24  S1  UNL     1     -77.497 -65.508  49.135  1.00  0.00    -0.099 SA
BRANCH  24  25
HETATM   25  C2  UNL     1     -78.378 -63.994  49.581  1.00  0.00     0.046 C 
HETATM   26  C1  UNL     1     -78.293 -62.945  48.513  1.00  0.00     0.021 C 
HETATM   27  C3  UNL     1     -79.806 -64.362  49.916  1.00  0.00     0.021 C 
ENDBRANCH  24  25
ENDBRANCH   1  24
TORSDOF 7
ENDMDL
MODEL 2
REMARK VINA RESULT: -6.989057901      2.552      5.253
REMARK  7 active torsions:
REMARK  status: ('A' for Active; 'I' for Inactive)
REMARK    1  A    between atoms: C2_2  and  S1_4 
REMARK    2  A    between atoms: S1_4  and  C4_5 
REMARK       I    between atoms: N3_11  and  C6_13 
REMARK    3  A    between atoms: C6_13  and  C7_15 
REMARK    4  A    between atoms: C7_15  and  C8_16 
REMARK    5  A    between atoms: C8_16  and  C9_17 
REMARK    6  A    between atoms: N4_20  and  C12_21 
REMARK    7  A    between atoms: C12_21  and  C13_22 
ROOT
HETATM    1  C4  UNL     1     -79.211 -65.154  53.261  1.00  0.00     0.130 A 
HETATM    2  N1  UNL     1     -77.919 -65.439  53.337  1.00  0.00    -0.286 N 
ATOM      3  H1  UNL     1     -77.381 -65.580  52.483  1.00  0.00     0.188 HD
HETATM    4  N2  UNL     1     -77.349 -65.538  54.465  1.00  0.00    -0.278 N 
ATOM      5  H2  UNL     1     -76.355 -65.756  54.526  1.00  0.00     0.189 HD
HETATM    6  C5  UNL     1     -78.073 -65.351  55.572  1.00  0.00     0.168 A 
HETATM    7  N3  UNL     1     -77.686 -65.405  56.827  1.00  0.00    -0.306 N 
ATOM      8  H3  UNL     1     -78.342 -65.241  57.590  1.00  0.00     0.171 HD
HETATM    9  C6  UNL     1     -76.321 -65.700  57.084  1.00  0.00     0.223 C 
HETATM   10  O1  UNL     1     -75.538 -64.726  57.280  1.00  0.00    -0.273 OA
HETATM   11  S2  UNL     1     -79.622 -65.023  54.923  1.00  0.00    -0.026 SA
ENDROOT
BRANCH   9  12
HETATM   12  C7  UNL     1     -75.857 -67.119  57.116  1.00  0.00     0.103 C 
BRANCH  12  13
HETATM   13  C8  UNL     1     -74.539 -67.170  56.376  1.00  0.00     0.014 C 
BRANCH  13  14
HETATM   14  C9  UNL     1     -74.784 -67.320  54.903  1.00  0.00    -0.011 C 
HETATM   15  C10 UNL     1     -74.113 -68.597  54.410  1.00  0.00     0.035 C 
HETATM   16  C11 UNL     1     -74.486 -68.692  52.925  1.00  0.00     0.272 C 
HETATM   17  N4  UNL     1     -74.112 -67.488  52.236  1.00  0.00     0.088 N 
HETATM   18  C16 UNL     1     -73.368 -66.561  53.047  1.00  0.00     0.272 C 
HETATM   19  C17 UNL     1     -74.224 -66.116  54.195  1.00  0.00     0.035 C 
BRANCH  17  20
HETATM   20  C12 UNL     1     -73.298 -67.810  51.081  1.00  0.00     0.277 C 
BRANCH  20  21
HETATM   21  C13 UNL     1     -72.115 -66.853  51.014  1.00  0.00     0.014 A 
HETATM   22  C14 UNL     1     -71.746 -66.327  49.647  1.00  0.00     0.007 A 
HETATM   23  C15 UNL     1     -70.864 -67.297  50.337  1.00  0.00     0.007 A 
ENDBRANCH  20  21
ENDBRANCH  17  20
ENDBRANCH  13  14
ENDBRANCH  12  13
ENDBRANCH   9  12
BRANCH   1  24
HETATM   24  S1  UNL     1     -80.245 -64.959  51.798  1.00  0.00    -0.099 SA
BRANCH  24  25
HETATM   25  C2  UNL     1     -79.132 -64.900  50.375  1.00  0.00     0.046 C 
HETATM   26  C1  UNL     1     -78.900 -66.252  49.772  1.00  0.00     0.021 C 
HETATM   27  C3  UNL     1     -79.696 -63.912  49.378  1.00  0.00     0.021 C 
ENDBRANCH  24  25
ENDBRANCH   1  24
TORSDOF 7
ENDMDL
MODEL 3
REMARK VINA RESULT: -6.924969564      2.338      4.794
REMARK  7 active torsions:
REMARK  status: ('A' for Active; 'I' for Inactive)
REMARK    1  A    between atoms: C2_2  and  S1_4 
REMARK    2  A    between atoms: S1_4  and  C4_5 
REMARK       I    between atoms: N3_11  and  C6_13 
REMARK    3  A    between atoms: C6_13  and  C7_15 
REMARK    4  A    between atoms: C7_15  and  C8_16 
REMARK    5  A    between atoms: C8_16  and  C9_17 
REMARK    6  A    between atoms: N4_20  and  C12_21 
REMARK    7  A    between atoms: C12_21  and  C13_22 
ROOT
HETATM    1  C4  UNL     1     -78.784 -65.282  50.216  1.00  0.00     0.130 A 
HETATM    2  N1  UNL     1     -77.995 -64.993  51.240  1.00  0.00    -0.286 N 
ATOM      3  H1  UNL     1     -76.987 -64.927  51.101  1.00  0.00     0.188 HD
HETATM    4  N2  UNL     1     -78.485 -64.799  52.393  1.00  0.00    -0.278 N 
ATOM      5  H2  UNL     1     -77.880 -64.575  53.182  1.00  0.00     0.189 HD
HETATM    6  C5  UNL     1     -79.808 -64.891  52.555  1.00  0.00     0.168 A 
HETATM    7  N3  UNL     1     -80.516 -64.728  53.651  1.00  0.00    -0.306 N 
ATOM      8  H3  UNL     1     -81.531 -64.827  53.643  1.00  0.00     0.171 HD
HETATM    9  C6  UNL     1     -79.818 -64.411  54.846  1.00  0.00     0.223 C 
HETATM   10  O1  UNL     1     -79.737 -63.191  55.170  1.00  0.00    -0.273 OA
HETATM   11  S2  UNL     1     -80.327 -65.272  50.970  1.00  0.00    -0.026 SA
ENDROOT
BRANCH   9  12
HETATM   12  C7  UNL     1     -79.213 -65.499  55.670  1.00  0.00     0.103 C 
BRANCH  12  13
HETATM   13  C8  UNL     1     -78.009 -64.908  56.367  1.00  0.00     0.014 C 
BRANCH  13  14
HETATM   14  C9  UNL     1     -76.799 -65.760  56.112  1.00  0.00    -0.011 C 
HETATM   15  C10 UNL     1     -75.569 -64.866  56.010  1.00  0.00     0.035 C 
HETATM   16  C11 UNL     1     -74.392 -65.831  55.828  1.00  0.00     0.272 C 
HETATM   17  N4  UNL     1     -74.624 -66.701  54.707  1.00  0.00     0.088 N 
HETATM   18  C16 UNL     1     -75.805 -66.375  53.954  1.00  0.00     0.272 C 
HETATM   19  C17 UNL     1     -77.008 -66.528  54.836  1.00  0.00     0.035 C 
BRANCH  17  20
HETATM   20  C12 UNL     1     -73.497 -66.649  53.797  1.00  0.00     0.277 C 
BRANCH  20  21
HETATM   21  C13 UNL     1     -74.007 -66.530  52.367  1.00  0.00     0.014 A 
HETATM   22  C14 UNL     1     -73.312 -67.379  51.329  1.00  0.00     0.007 A 
HETATM   23  C15 UNL     1     -73.129 -65.909  51.336  1.00  0.00     0.007 A 
ENDBRANCH  20  21
ENDBRANCH  17  20
ENDBRANCH  13  14
ENDBRANCH  12  13
ENDBRANCH   9  12
BRANCH   1  24
HETATM   24  S1  UNL     1     -78.342 -65.598  48.497  1.00  0.00    -0.099 SA
BRANCH  24  25
HETATM   25  C2  UNL     1     -78.866 -64.152  47.549  1.00  0.00     0.046 C 
HETATM   26  C1  UNL     1     -80.341 -64.144  47.283  1.00  0.00     0.021 C 
HETATM   27  C3  UNL     1     -78.406 -62.914  48.285  1.00  0.00     0.021 C 
ENDBRANCH  24  25
ENDBRANCH   1  24
TORSDOF 7
ENDMDL
MODEL 4
REMARK VINA RESULT: -6.808262259      2.388      4.806
REMARK  7 active torsions:
REMARK  status: ('A' for Active; 'I' for Inactive)
REMARK    1  A    between atoms: C2_2  and  S1_4 
REMARK    2  A    between atoms: S1_4  and  C4_5 
REMARK       I    between atoms: N3_11  and  C6_13 
REMARK    3  A    between atoms: C6_13  and  C7_15 
REMARK    4  A    between atoms: C7_15  and  C8_16 
REMARK    5  A    between atoms: C8_16  and  C9_17 
REMARK    6  A    between atoms: N4_20  and  C12_21 
REMARK    7  A    between atoms: C12_21  and  C13_22 
ROOT
HETATM    1  C4  UNL     1     -78.745 -65.268  50.238  1.00  0.00     0.130 A 
HETATM    2  N1  UNL     1     -77.966 -65.047  51.287  1.00  0.00    -0.286 N 
ATOM      3  H1  UNL     1     -76.953 -65.040  51.172  1.00  0.00     0.188 HD
HETATM    4  N2  UNL     1     -78.472 -64.843  52.431  1.00  0.00    -0.278 N 
ATOM      5  H2  UNL     1     -77.874 -64.672  53.239  1.00  0.00     0.189 HD
HETATM    6  C5  UNL     1     -79.802 -64.857  52.559  1.00  0.00     0.168 A 
HETATM    7  N3  UNL     1     -80.526 -64.671  53.641  1.00  0.00    -0.306 N 
ATOM      8  H3  UNL     1     -81.544 -64.706  53.607  1.00  0.00     0.171 HD
HETATM    9  C6  UNL     1     -79.840 -64.419  54.858  1.00  0.00     0.223 C 
HETATM   10  O1  UNL     1     -79.692 -63.212  55.209  1.00  0.00    -0.273 OA
HETATM   11  S2  UNL     1     -80.303 -65.176  50.955  1.00  0.00    -0.026 SA
ENDROOT
BRANCH   9  12
HETATM   12  C7  UNL     1     -79.323 -65.557  55.675  1.00  0.00     0.103 C 
BRANCH  12  13
HETATM   13  C8  UNL     1     -78.206 -65.013  56.536  1.00  0.00     0.014 C 
BRANCH  13  14
HETATM   14  C9  UNL     1     -76.901 -65.095  55.797  1.00  0.00    -0.011 C 
HETATM   15  C10 UNL     1     -76.943 -66.276  54.835  1.00  0.00     0.035 C 
HETATM   16  C11 UNL     1     -75.607 -66.223  54.084  1.00  0.00     0.272 C 
HETATM   17  N4  UNL     1     -74.510 -66.216  55.013  1.00  0.00     0.088 N 
HETATM   18  C16 UNL     1     -74.907 -66.400  56.383  1.00  0.00     0.272 C 
HETATM   19  C17 UNL     1     -75.789 -65.260  56.796  1.00  0.00     0.035 C 
BRANCH  17  20
HETATM   20  C12 UNL     1     -73.574 -67.272  54.682  1.00  0.00     0.277 C 
BRANCH  20  21
HETATM   21  C13 UNL     1     -74.133 -68.102  53.535  1.00  0.00     0.014 A 
HETATM   22  C14 UNL     1     -74.025 -69.603  53.671  1.00  0.00     0.007 A 
HETATM   23  C15 UNL     1     -73.193 -68.880  52.681  1.00  0.00     0.007 A 
ENDBRANCH  20  21
ENDBRANCH  17  20
ENDBRANCH  13  14
ENDBRANCH  12  13
ENDBRANCH   9  12
BRANCH   1  24
HETATM   24  S1  UNL     1     -78.280 -65.579  48.525  1.00  0.00    -0.099 SA
BRANCH  24  25
HETATM   25  C2  UNL     1     -78.830 -64.149  47.566  1.00  0.00     0.046 C 
HETATM   26  C1  UNL     1     -80.292 -64.205  47.241  1.00  0.00     0.021 C 
HETATM   27  C3  UNL     1     -78.456 -62.898  48.330  1.00  0.00     0.021 C 
ENDBRANCH  24  25
ENDBRANCH   1  24
TORSDOF 7
ENDMDL
MODEL 5
REMARK VINA RESULT: -6.800153032      3.731      8.156
REMARK  7 active torsions:
REMARK  status: ('A' for Active; 'I' for Inactive)
REMARK    1  A    between atoms: C2_2  and  S1_4 
REMARK    2  A    between atoms: S1_4  and  C4_5 
REMARK       I    between atoms: N3_11  and  C6_13 
REMARK    3  A    between atoms: C6_13  and  C7_15 
REMARK    4  A    between atoms: C7_15  and  C8_16 
REMARK    5  A    between atoms: C8_16  and  C9_17 
REMARK    6  A    between atoms: N4_20  and  C12_21 
REMARK    7  A    between atoms: C12_21  and  C13_22 
ROOT
HETATM    1  C4  UNL     1     -77.510 -65.437  55.662  1.00  0.00     0.130 A 
HETATM    2  N1  UNL     1     -76.955 -65.478  54.459  1.00  0.00    -0.286 N 
ATOM      3  H1  UNL     1     -75.940 -65.436  54.368  1.00  0.00     0.188 HD
HETATM    4  N2  UNL     1     -77.677 -65.570  53.422  1.00  0.00    -0.278 N 
ATOM      5  H2  UNL     1     -77.252 -65.602  52.496  1.00  0.00     0.189 HD
HETATM    6  C5  UNL     1     -79.005 -65.622  53.563  1.00  0.00     0.168 A 
HETATM    7  N3  UNL     1     -79.928 -65.718  52.632  1.00  0.00    -0.306 N 
ATOM      8  H3  UNL     1     -80.919 -65.749  52.872  1.00  0.00     0.171 HD
HETATM    9  C6  UNL     1     -79.498 -65.774  51.280  1.00  0.00     0.223 C 
HETATM   10  O1  UNL     1     -79.383 -66.917  50.749  1.00  0.00    -0.273 OA
HETATM   11  S2  UNL     1     -79.177 -65.535  55.263  1.00  0.00    -0.026 SA
ENDROOT
BRANCH   9  12
HETATM   12  C7  UNL     1     -79.200 -64.514  50.536  1.00  0.00     0.103 C 
BRANCH  12  13
HETATM   13  C8  UNL     1     -77.980 -64.781  49.684  1.00  0.00     0.014 C 
BRANCH  13  14
HETATM   14  C9  UNL     1     -78.248 -64.376  48.264  1.00  0.00    -0.011 C 
HETATM   15  C10 UNL     1     -79.081 -63.100  48.254  1.00  0.00     0.035 C 
HETATM   16  C11 UNL     1     -79.231 -62.736  46.771  1.00  0.00     0.272 C 
HETATM   17  N4  UNL     1     -79.779 -63.842  46.036  1.00  0.00     0.088 N 
HETATM   18  C16 UNL     1     -80.181 -64.948  46.863  1.00  0.00     0.272 C 
HETATM   19  C17 UNL     1     -78.978 -65.495  47.571  1.00  0.00     0.035 C 
BRANCH  17  20
HETATM   20  C12 UNL     1     -80.942 -63.411  45.286  1.00  0.00     0.277 C 
BRANCH  20  21
HETATM   21  C13 UNL     1     -82.160 -63.407  46.200  1.00  0.00     0.014 A 
HETATM   22  C14 UNL     1     -83.507 -63.266  45.531  1.00  0.00     0.007 A 
HETATM   23  C15 UNL     1     -82.954 -62.155  46.340  1.00  0.00     0.007 A 
ENDBRANCH  20  21
ENDBRANCH  17  20
ENDBRANCH  13  14
ENDBRANCH  12  13
ENDBRANCH   9  12
BRANCH   1  24
HETATM   24  S1  UNL     1     -76.715 -65.311  57.274  1.00  0.00    -0.099 SA
BRANCH  24  25
HETATM   25  C2  UNL     1     -75.432 -66.584  57.325  1.00  0.00     0.046 C 
HETATM   26  C1  UNL     1     -75.953 -67.938  56.949  1.00  0.00     0.021 C 
HETATM   27  C3  UNL     1     -74.291 -66.137  56.438  1.00  0.00     0.021 C 
ENDBRANCH  24  25
ENDBRANCH   1  24
TORSDOF 7
ENDMDL
