MODEL 1
REMARK VINA RESULT: -7.459101408      0.000      0.000
REMARK  8 active torsions:
REMARK  status: ('A' for Active; 'I' for Inactive)
REMARK    1  A    between atoms: C2_2  and  C3_3 
REMARK    2  A    between atoms: C3_3  and  C4_4 
REMARK    3  A    between atoms: C3_3  and  O4_25 
REMARK    4  A    between atoms: C4_4  and  C5_5 
REMARK    5  A    between atoms: C5_5  and  C6_7 
REMARK    6  A    between atoms: C6_7  and  C7_8 
REMARK    7  A    between atoms: C7_8  and  C8_9 
REMARK    8  A    between atoms: O4_25  and  O5_26 
ROOT
HETATM    1  C8  UNL     1     -78.378 -66.450  52.163  1.00  0.00    -0.031 A 
HETATM    2  C9  UNL     1     -78.890 -67.422  51.193  1.00  0.00     0.019 C 
HETATM    3  C10 UNL     1     -79.145 -66.901  49.767  1.00  0.00     0.044 C 
HETATM    4  C11 UNL     1     -79.995 -65.736  49.886  1.00  0.00     0.279 C 
HETATM    5  N1  UNL     1     -80.200 -64.838  48.839  1.00  0.00     0.091 N 
HETATM    6  C12 UNL     1     -79.778 -65.192  47.536  1.00  0.00     0.279 C 
HETATM    7  C13 UNL     1     -78.263 -64.953  47.678  1.00  0.00     0.047 C 
HETATM    8  C14 UNL     1     -77.670 -66.291  47.785  1.00  0.00     0.041 C 
HETATM    9  C15 UNL     1     -77.845 -66.911  49.115  1.00  0.00     0.131 C 
HETATM   10  O2  UNL     1     -76.775 -66.481  49.895  1.00  0.00    -0.355 OA
HETATM   11  C16 UNL     1     -76.907 -65.259  50.459  1.00  0.00     0.265 C 
HETATM   12  O3  UNL     1     -77.615 -64.311  49.950  1.00  0.00    -0.353 OA
HETATM   13  C17 UNL     1     -78.070 -64.016  48.792  1.00  0.00     0.158 C 
HETATM   14  C18 UNL     1     -79.529 -63.536  49.004  1.00  0.00     0.304 C 
HETATM   15  C19 UNL     1     -77.358 -65.519  51.908  1.00  0.00     0.050 A 
HETATM   16  C20 UNL     1     -76.887 -66.741  52.544  1.00  0.00     0.020 A 
ENDROOT
BRANCH   1  17
HETATM   17  C7  UNL     1     -79.256 -66.257  53.383  1.00  0.00     0.017 C 
BRANCH  17  18
HETATM   18  C6  UNL     1     -79.703 -64.866  53.613  1.00  0.00     0.079 C 
BRANCH  18  19
HETATM   19  C5  UNL     1     -79.423 -64.423  55.023  1.00  0.00     0.129 C 
HETATM   20  O1  UNL     1     -79.613 -63.254  55.342  1.00  0.00    -0.298 OA
BRANCH  19  21
HETATM   21  C4  UNL     1     -78.918 -65.391  56.034  1.00  0.00     0.117 C 
BRANCH  21  22
HETATM   22  C3  UNL     1     -77.543 -65.002  56.464  1.00  0.00     0.189 C 
BRANCH  22  23
HETATM   23  C2  UNL     1     -76.942 -65.989  57.403  1.00  0.00    -0.002 C 
HETATM   24  C1  UNL     1     -76.528 -67.156  56.929  1.00  0.00     0.009 C 
ENDBRANCH  22  23
BRANCH  22  25
HETATM   25  O4  UNL     1     -76.698 -64.791  55.400  1.00  0.00    -0.234 OA
BRANCH  25  26
HETATM   26  O5  UNL     1     -75.653 -64.054  55.719  1.00  0.00    -0.250 OA
ATOM     27  H5  UNL     1     -74.948 -64.124  55.087  1.00  0.00     0.253 HD
ENDBRANCH  25  26
ENDBRANCH  22  25
ENDBRANCH  21  22
ENDBRANCH  19  21
ENDBRANCH  18  19
ENDBRANCH  17  18
ENDBRANCH   1  17
TORSDOF 8
ENDMDL
MODEL 2
REMARK VINA RESULT: -7.242372734      2.743      6.771
REMARK  8 active torsions:
REMARK  status: ('A' for Active; 'I' for Inactive)
REMARK    1  A    between atoms: C2_2  and  C3_3 
REMARK    2  A    between atoms: C3_3  and  C4_4 
REMARK    3  A    between atoms: C3_3  and  O4_25 
REMARK    4  A    between atoms: C4_4  and  C5_5 
REMARK    5  A    between atoms: C5_5  and  C6_7 
REMARK    6  A    between atoms: C6_7  and  C7_8 
REMARK    7  A    between atoms: C7_8  and  C8_9 
REMARK    8  A    between atoms: O4_25  and  O5_26 
ROOT
HETATM    1  C8  UNL     1     -75.128 -67.314  53.295  1.00  0.00    -0.031 A 
HETATM    2  C9  UNL     1     -75.491 -65.896  53.360  1.00  0.00     0.019 C 
HETATM    3  C10 UNL     1     -76.104 -65.403  54.683  1.00  0.00     0.044 C 
HETATM    4  C11 UNL     1     -77.217 -66.275  54.987  1.00  0.00     0.279 C 
HETATM    5  N1  UNL     1     -77.828 -66.314  56.240  1.00  0.00     0.091 N 
HETATM    6  C12 UNL     1     -77.533 -65.300  57.182  1.00  0.00     0.279 C 
HETATM    7  C13 UNL     1     -76.144 -65.773  57.650  1.00  0.00     0.047 C 
HETATM    8  C14 UNL     1     -75.189 -64.869  56.998  1.00  0.00     0.041 C 
HETATM    9  C15 UNL     1     -74.972 -65.170  55.567  1.00  0.00     0.131 C 
HETATM   10  O2  UNL     1     -73.958 -66.122  55.513  1.00  0.00    -0.355 OA
HETATM   11  C16 UNL     1     -74.338 -67.404  55.714  1.00  0.00     0.265 C 
HETATM   12  O3  UNL     1     -75.355 -67.743  56.428  1.00  0.00    -0.353 OA
HETATM   13  C17 UNL     1     -76.050 -67.210  57.360  1.00  0.00     0.158 C 
HETATM   14  C18 UNL     1     -77.533 -67.521  57.032  1.00  0.00     0.304 C 
HETATM   15  C19 UNL     1     -74.465 -68.022  54.310  1.00  0.00     0.050 A 
HETATM   16  C20 UNL     1     -73.575 -67.515  53.275  1.00  0.00     0.020 A 
ENDROOT
BRANCH   1  17
HETATM   17  C7  UNL     1     -75.822 -68.092  52.194  1.00  0.00     0.017 C 
BRANCH  17  18
HETATM   18  C6  UNL     1     -76.646 -67.272  51.279  1.00  0.00     0.079 C 
BRANCH  18  19
HETATM   19  C5  UNL     1     -77.954 -67.946  50.964  1.00  0.00     0.129 C 
HETATM   20  O1  UNL     1     -77.978 -69.149  50.730  1.00  0.00    -0.298 OA
BRANCH  19  21
HETATM   21  C4  UNL     1     -79.220 -67.163  50.935  1.00  0.00     0.117 C 
BRANCH  21  22
HETATM   22  C3  UNL     1     -79.199 -66.128  52.009  1.00  0.00     0.189 C 
BRANCH  22  23
HETATM   23  C2  UNL     1     -79.699 -64.809  51.535  1.00  0.00    -0.002 C 
HETATM   24  C1  UNL     1     -79.475 -64.450  50.279  1.00  0.00     0.009 C 
ENDBRANCH  22  23
BRANCH  22  25
HETATM   25  O4  UNL     1     -79.893 -66.518  53.131  1.00  0.00    -0.234 OA
BRANCH  25  26
HETATM   26  O5  UNL     1     -80.923 -65.738  53.388  1.00  0.00    -0.250 OA
ATOM     27  H5  UNL     1     -81.496 -65.629  52.638  1.00  0.00     0.253 HD
ENDBRANCH  25  26
ENDBRANCH  22  25
ENDBRANCH  21  22
ENDBRANCH  19  21
ENDBRANCH  18  19
ENDBRANCH  17  18
ENDBRANCH   1  17
TORSDOF 8
ENDMDL
MODEL 3
REMARK VINA RESULT: -7.016047797      1.251      1.445
REMARK  8 active torsions:
REMARK  status: ('A' for Active; 'I' for Inactive)
REMARK    1  A    between atoms: C2_2  and  C3_3 
REMARK    2  A    between atoms: C3_3  and  C4_4 
REMARK    3  A    between atoms: C3_3  and  O4_25 
REMARK    4  A    between atoms: C4_4  and  C5_5 
REMARK    5  A    between atoms: C5_5  and  C6_7 
REMARK    6  A    between atoms: C6_7  and  C7_8 
REMARK    7  A    between atoms: C7_8  and  C8_9 
REMARK    8  A    between atoms: O4_25  and  O5_26 
ROOT
HETATM    1  C8  UNL     1     -77.780 -66.156  52.706  1.00  0.00    -0.031 A 
HETATM    2  C9  UNL     1     -78.846 -67.013  52.181  1.00  0.00     0.019 C 
HETATM    3  C10 UNL     1     -79.356 -66.686  50.766  1.00  0.00     0.044 C 
HETATM    4  C11 UNL     1     -79.717 -65.285  50.757  1.00  0.00     0.279 C 
HETATM    5  N1  UNL     1     -79.946 -64.570  49.582  1.00  0.00     0.091 N 
HETATM    6  C12 UNL     1     -80.085 -65.275  48.363  1.00  0.00     0.279 C 
HETATM    7  C13 UNL     1     -78.607 -65.604  48.082  1.00  0.00     0.047 C 
HETATM    8  C14 UNL     1     -78.460 -67.027  48.408  1.00  0.00     0.041 C 
HETATM    9  C15 UNL     1     -78.397 -67.298  49.860  1.00  0.00     0.131 C 
HETATM   10  O2  UNL     1     -77.059 -67.177  50.226  1.00  0.00    -0.355 OA
HETATM   11  C16 UNL     1     -76.619 -65.918  50.452  1.00  0.00     0.265 C 
HETATM   12  O3  UNL     1     -77.116 -64.875  49.883  1.00  0.00    -0.353 OA
HETATM   13  C17 UNL     1     -77.792 -64.633  48.825  1.00  0.00     0.158 C 
HETATM   14  C18 UNL     1     -78.885 -63.610  49.229  1.00  0.00     0.304 C 
HETATM   15  C19 UNL     1     -76.653 -65.737  51.981  1.00  0.00     0.050 A 
HETATM   16  C20 UNL     1     -76.415 -66.918  52.798  1.00  0.00     0.020 A 
ENDROOT
BRANCH   1  17
HETATM   17  C7  UNL     1     -78.126 -65.440  53.997  1.00  0.00     0.017 C 
BRANCH  17  18
HETATM   18  C6  UNL     1     -79.067 -66.167  54.877  1.00  0.00     0.079 C 
BRANCH  18  19
HETATM   19  C5  UNL     1     -78.665 -66.059  56.322  1.00  0.00     0.129 C 
HETATM   20  O1  UNL     1     -79.106 -66.862  57.138  1.00  0.00    -0.298 OA
BRANCH  19  21
HETATM   21  C4  UNL     1     -77.735 -64.986  56.771  1.00  0.00     0.117 C 
BRANCH  21  22
HETATM   22  C3  UNL     1     -76.488 -65.595  57.317  1.00  0.00     0.189 C 
BRANCH  22  23
HETATM   23  C2  UNL     1     -76.168 -66.902  56.679  1.00  0.00    -0.002 C 
HETATM   24  C1  UNL     1     -74.908 -67.172  56.364  1.00  0.00     0.009 C 
ENDBRANCH  22  23
BRANCH  22  25
HETATM   25  O4  UNL     1     -75.405 -64.751  57.227  1.00  0.00    -0.234 OA
BRANCH  25  26
HETATM   26  O5  UNL     1     -75.500 -63.909  56.218  1.00  0.00    -0.250 OA
ATOM     27  H5  UNL     1     -75.013 -64.196  55.454  1.00  0.00     0.253 HD
ENDBRANCH  25  26
ENDBRANCH  22  25
ENDBRANCH  21  22
ENDBRANCH  19  21
ENDBRANCH  18  19
ENDBRANCH  17  18
ENDBRANCH   1  17
TORSDOF 8
ENDMDL
MODEL 4
REMARK VINA RESULT: -6.981206927      2.819      4.393
REMARK  8 active torsions:
REMARK  status: ('A' for Active; 'I' for Inactive)
REMARK    1  A    between atoms: C2_2  and  C3_3 
REMARK    2  A    between atoms: C3_3  and  C4_4 
REMARK    3  A    between atoms: C3_3  and  O4_25 
REMARK    4  A    between atoms: C4_4  and  C5_5 
REMARK    5  A    between atoms: C5_5  and  C6_7 
REMARK    6  A    between atoms: C6_7  and  C7_8 
REMARK    7  A    between atoms: C7_8  and  C8_9 
REMARK    8  A    between atoms: O4_25  and  O5_26 
ROOT
HETATM    1  C8  UNL     1     -77.637 -67.885  50.652  1.00  0.00    -0.031 A 
HETATM    2  C9  UNL     1     -77.129 -66.698  49.959  1.00  0.00     0.019 C 
HETATM    3  C10 UNL     1     -75.657 -66.330  50.216  1.00  0.00     0.044 C 
HETATM    4  C11 UNL     1     -75.482 -66.253  51.650  1.00  0.00     0.279 C 
HETATM    5  N1  UNL     1     -74.228 -66.226  52.260  1.00  0.00     0.091 N 
HETATM    6  C12 UNL     1     -73.079 -66.010  51.461  1.00  0.00     0.279 C 
HETATM    7  C13 UNL     1     -72.935 -67.406  50.828  1.00  0.00     0.047 C 
HETATM    8  C14 UNL     1     -73.412 -67.254  49.448  1.00  0.00     0.041 C 
HETATM    9  C15 UNL     1     -74.886 -67.193  49.336  1.00  0.00     0.131 C 
HETATM   10  O2  UNL     1     -75.328 -68.509  49.240  1.00  0.00    -0.355 OA
HETATM   11  C16 UNL     1     -75.457 -69.177  50.410  1.00  0.00     0.265 C 
HETATM   12  O3  UNL     1     -74.752 -68.923  51.457  1.00  0.00    -0.353 OA
HETATM   13  C17 UNL     1     -73.631 -68.359  51.703  1.00  0.00     0.158 C 
HETATM   14  C18 UNL     1     -73.853 -67.470  52.954  1.00  0.00     0.304 C 
HETATM   15  C19 UNL     1     -76.953 -69.105  50.765  1.00  0.00     0.050 A 
HETATM   16  C20 UNL     1     -77.899 -69.068  49.659  1.00  0.00     0.020 A 
ENDROOT
BRANCH   1  17
HETATM   17  C7  UNL     1     -78.822 -67.624  51.560  1.00  0.00     0.017 C 
BRANCH  17  18
HETATM   18  C6  UNL     1     -79.186 -66.199  51.714  1.00  0.00     0.079 C 
BRANCH  18  19
HETATM   19  C5  UNL     1     -79.535 -65.870  53.140  1.00  0.00     0.129 C 
HETATM   20  O1  UNL     1     -80.709 -65.868  53.494  1.00  0.00    -0.298 OA
BRANCH  19  21
HETATM   21  C4  UNL     1     -78.467 -65.548  54.125  1.00  0.00     0.117 C 
BRANCH  21  22
HETATM   22  C3  UNL     1     -79.080 -65.043  55.388  1.00  0.00     0.189 C 
BRANCH  22  23
HETATM   23  C2  UNL     1     -78.371 -65.539  56.600  1.00  0.00    -0.002 C 
HETATM   24  C1  UNL     1     -78.819 -66.629  57.207  1.00  0.00     0.009 C 
ENDBRANCH  22  23
BRANCH  22  25
HETATM   25  O4  UNL     1     -79.165 -63.671  55.422  1.00  0.00    -0.234 OA
BRANCH  25  26
HETATM   26  O5  UNL     1     -80.410 -63.239  55.415  1.00  0.00    -0.250 OA
ATOM     27  H5  UNL     1     -80.483 -62.327  55.674  1.00  0.00     0.253 HD
ENDBRANCH  25  26
ENDBRANCH  22  25
ENDBRANCH  21  22
ENDBRANCH  19  21
ENDBRANCH  18  19
ENDBRANCH  17  18
ENDBRANCH   1  17
TORSDOF 8
ENDMDL
MODEL 5
REMARK VINA RESULT: -6.967685974      2.755      6.622
REMARK  8 active torsions:
REMARK  status: ('A' for Active; 'I' for Inactive)
REMARK    1  A    between atoms: C2_2  and  C3_3 
REMARK    2  A    between atoms: C3_3  and  C4_4 
REMARK    3  A    between atoms: C3_3  and  O4_25 
REMARK    4  A    between atoms: C4_4  and  C5_5 
REMARK    5  A    between atoms: C5_5  and  C6_7 
REMARK    6  A    between atoms: C6_7  and  C7_8 
REMARK    7  A    between atoms: C7_8  and  C8_9 
REMARK    8  A    between atoms: O4_25  and  O5_26 
ROOT
HETATM    1  C8  UNL     1     -75.143 -67.458  53.256  1.00  0.00    -0.031 A 
HETATM    2  C9  UNL     1     -75.448 -66.025  53.239  1.00  0.00     0.019 C 
HETATM    3  C10 UNL     1     -76.072 -65.440  54.518  1.00  0.00     0.044 C 
HETATM    4  C11 UNL     1     -77.228 -66.249  54.836  1.00  0.00     0.279 C 
HETATM    5  N1  UNL     1     -77.871 -66.199  56.073  1.00  0.00     0.091 N 
HETATM    6  C12 UNL     1     -77.558 -65.149  56.969  1.00  0.00     0.279 C 
HETATM    7  C13 UNL     1     -76.202 -65.654  57.498  1.00  0.00     0.047 C 
HETATM    8  C14 UNL     1     -75.194 -64.824  56.827  1.00  0.00     0.041 C 
HETATM    9  C15 UNL     1     -74.954 -65.207  55.419  1.00  0.00     0.131 C 
HETATM   10  O2  UNL     1     -73.980 -66.201  55.442  1.00  0.00    -0.355 OA
HETATM   11  C16 UNL     1     -74.418 -67.455  55.697  1.00  0.00     0.265 C 
HETATM   12  O3  UNL     1     -75.466 -67.715  56.399  1.00  0.00    -0.353 OA
HETATM   13  C17 UNL     1     -76.161 -67.106  57.284  1.00  0.00     0.158 C 
HETATM   14  C18 UNL     1     -77.647 -67.374  56.932  1.00  0.00     0.304 C 
HETATM   15  C19 UNL     1     -74.535 -68.139  54.323  1.00  0.00     0.050 A 
HETATM   16  C20 UNL     1     -73.599 -67.722  53.288  1.00  0.00     0.020 A 
ENDROOT
BRANCH   1  17
HETATM   17  C7  UNL     1     -75.841 -68.263  52.178  1.00  0.00     0.017 C 
BRANCH  17  18
HETATM   18  C6  UNL     1     -76.340 -67.468  51.034  1.00  0.00     0.079 C 
BRANCH  18  19
HETATM   19  C5  UNL     1     -77.830 -67.604  50.878  1.00  0.00     0.129 C 
HETATM   20  O1  UNL     1     -78.286 -68.290  49.969  1.00  0.00    -0.298 OA
BRANCH  19  21
HETATM   21  C4  UNL     1     -78.756 -66.914  51.817  1.00  0.00     0.117 C 
BRANCH  21  22
HETATM   22  C3  UNL     1     -79.197 -65.615  51.229  1.00  0.00     0.189 C 
BRANCH  22  23
HETATM   23  C2  UNL     1     -80.350 -65.024  51.961  1.00  0.00    -0.002 C 
HETATM   24  C1  UNL     1     -80.198 -64.683  53.233  1.00  0.00     0.009 C 
ENDBRANCH  22  23
BRANCH  22  25
HETATM   25  O4  UNL     1     -78.174 -64.699  51.147  1.00  0.00    -0.234 OA
BRANCH  25  26
HETATM   26  O5  UNL     1     -78.243 -63.957  50.060  1.00  0.00    -0.250 OA
ATOM     27  H5  UNL     1     -78.362 -64.473  49.271  1.00  0.00     0.253 HD
ENDBRANCH  25  26
ENDBRANCH  22  25
ENDBRANCH  21  22
ENDBRANCH  19  21
ENDBRANCH  18  19
ENDBRANCH  17  18
ENDBRANCH   1  17
TORSDOF 8
ENDMDL
