MODEL 1
REMARK VINA RESULT: -6.959755736      0.000      0.000
REMARK  7 active torsions:
REMARK  status: ('A' for Active; 'I' for Inactive)
REMARK    1  A    between atoms: C3_3  and  C4_4 
REMARK    2  A    between atoms: N2_13  and  C10_14 
REMARK    3  A    between atoms: C10_14  and  C11_15 
REMARK    4  A    between atoms: N3_18  and  C14_19 
REMARK    5  A    between atoms: C14_19  and  C15_20 
REMARK    6  A    between atoms: C15_20  and  N4_21 
REMARK    7  A    between atoms: N4_21  and  C16_24 
ROOT
HETATM    1  C1  UNL     1     -74.320 -67.953  54.547  1.00  0.00     0.013 C 
HETATM    2  C2  UNL     1     -73.906 -68.586  53.628  1.00  0.00    -0.099 C 
HETATM    3  C3  UNL     1     -73.357 -69.388  52.513  1.00  0.00     0.087 C 
HETATM    4  C7  UNL     1     -73.345 -70.814  52.929  1.00  0.00     0.033 C 
HETATM    5  C8  UNL     1     -74.765 -71.260  53.158  1.00  0.00     0.022 C 
HETATM    6  C9  UNL     1     -75.533 -71.104  51.843  1.00  0.00     0.122 C 
HETATM    7  N2  UNL     1     -75.479 -69.797  51.363  1.00  0.00    -0.391 N 
HETATM    8  C21 UNL     1     -74.175 -69.219  51.276  1.00  0.00     0.151 C 
ENDROOT
BRANCH   3   9
HETATM    9  C4  UNL     1     -71.944 -68.924  52.277  1.00  0.00     0.073 A 
HETATM   10  N1  UNL     1     -70.782 -69.343  52.736  1.00  0.00    -0.362 N 
HETATM   11  C5  UNL     1     -69.687 -68.788  52.339  1.00  0.00     0.096 A 
ATOM     12  H1  UNL     1     -70.747 -70.110  53.408  1.00  0.00     0.165 HD
HETATM   13  C6  UNL     1     -69.761 -67.760  51.434  1.00  0.00     0.068 A 
HETATM   14  S1  UNL     1     -71.453 -67.649  51.213  1.00  0.00    -0.086 SA
ENDBRANCH   3   9
BRANCH   7  15
HETATM   15  C10 UNL     1     -76.554 -69.147  50.770  1.00  0.00     0.063 C 
BRANCH  15  16
HETATM   16  C11 UNL     1     -77.311 -68.108  51.494  1.00  0.00     0.027 C 
HETATM   17  C12 UNL     1     -78.711 -67.849  51.122  1.00  0.00     0.040 C 
HETATM   18  C13 UNL     1     -79.117 -66.466  51.678  1.00  0.00     0.273 C 
HETATM   19  N3  UNL     1     -78.440 -66.216  52.881  1.00  0.00     0.090 N 
HETATM   20  C19 UNL     1     -76.996 -66.072  52.767  1.00  0.00     0.273 C 
HETATM   21  C20 UNL     1     -76.570 -66.778  51.510  1.00  0.00     0.040 C 
BRANCH  19  22
HETATM   22  C14 UNL     1     -78.991 -65.194  53.734  1.00  0.00     0.299 C 
BRANCH  22  23
HETATM   23  C15 UNL     1     -78.784 -65.595  55.190  1.00  0.00     0.262 C 
BRANCH  23  24
HETATM   24  N4  UNL     1     -77.889 -64.624  55.828  1.00  0.00    -0.070 N 
ATOM     25  H42 UNL     1     -77.408 -64.059  55.128  1.00  0.00     0.277 HD
ATOM     26  H41 UNL     1     -78.423 -63.892  56.297  1.00  0.00     0.277 HD
BRANCH  24  27
HETATM   27  C16 UNL     1     -76.954 -65.227  56.725  1.00  0.00     0.177 C 
HETATM   28  C17 UNL     1     -75.574 -64.789  56.206  1.00  0.00     0.039 C 
HETATM   29  C18 UNL     1     -77.015 -66.701  56.824  1.00  0.00     0.039 C 
ENDBRANCH  24  27
ENDBRANCH  23  24
ENDBRANCH  22  23
ENDBRANCH  19  22
ENDBRANCH  15  16
ENDBRANCH   7  15
TORSDOF 7
ENDMDL
MODEL 2
REMARK VINA RESULT: -6.956743708      2.974      4.804
REMARK  7 active torsions:
REMARK  status: ('A' for Active; 'I' for Inactive)
REMARK    1  A    between atoms: C3_3  and  C4_4 
REMARK    2  A    between atoms: N2_13  and  C10_14 
REMARK    3  A    between atoms: C10_14  and  C11_15 
REMARK    4  A    between atoms: N3_18  and  C14_19 
REMARK    5  A    between atoms: C14_19  and  C15_20 
REMARK    6  A    between atoms: C15_20  and  N4_21 
REMARK    7  A    between atoms: N4_21  and  C16_24 
ROOT
HETATM    1  C1  UNL     1     -78.074 -68.754  50.420  1.00  0.00     0.013 C 
HETATM    2  C2  UNL     1     -77.626 -67.691  50.126  1.00  0.00    -0.099 C 
HETATM    3  C3  UNL     1     -77.042 -66.392  49.729  1.00  0.00     0.087 C 
HETATM    4  C7  UNL     1     -77.323 -66.178  48.286  1.00  0.00     0.033 C 
HETATM    5  C8  UNL     1     -78.814 -66.088  48.094  1.00  0.00     0.022 C 
HETATM    6  C9  UNL     1     -79.329 -64.898  48.910  1.00  0.00     0.122 C 
HETATM    7  N2  UNL     1     -78.992 -65.010  50.258  1.00  0.00    -0.391 N 
HETATM    8  C21 UNL     1     -77.616 -65.275  50.536  1.00  0.00     0.151 C 
ENDROOT
BRANCH   3   9
HETATM    9  C4  UNL     1     -75.553 -66.483  49.940  1.00  0.00     0.073 A 
HETATM   10  N1  UNL     1     -74.751 -65.968  50.851  1.00  0.00    -0.362 N 
HETATM   11  C5  UNL     1     -73.490 -66.238  50.834  1.00  0.00     0.096 A 
ATOM     12  H1  UNL     1     -75.129 -65.354  51.572  1.00  0.00     0.165 HD
HETATM   13  C6  UNL     1     -73.007 -67.068  49.853  1.00  0.00     0.068 A 
HETATM   14  S1  UNL     1     -74.443 -67.409  48.988  1.00  0.00    -0.086 SA
ENDBRANCH   3   9
BRANCH   7  15
HETATM   15  C10 UNL     1     -79.843 -64.657  51.298  1.00  0.00     0.063 C 
BRANCH  15  16
HETATM   16  C11 UNL     1     -79.447 -64.849  52.706  1.00  0.00     0.027 C 
HETATM   17  C12 UNL     1     -79.120 -66.202  53.182  1.00  0.00     0.040 C 
HETATM   18  C13 UNL     1     -79.190 -66.209  54.725  1.00  0.00     0.273 C 
HETATM   19  N3  UNL     1     -78.805 -64.957  55.227  1.00  0.00     0.090 N 
HETATM   20  C19 UNL     1     -79.695 -63.852  54.899  1.00  0.00     0.273 C 
HETATM   21  C20 UNL     1     -80.461 -64.241  53.666  1.00  0.00     0.040 C 
BRANCH  19  22
HETATM   22  C14 UNL     1     -78.415 -64.906  56.613  1.00  0.00     0.299 C 
BRANCH  22  23
HETATM   23  C15 UNL     1     -76.985 -65.414  56.747  1.00  0.00     0.262 C 
BRANCH  23  24
HETATM   24  N4  UNL     1     -76.127 -64.669  55.819  1.00  0.00    -0.070 N 
ATOM     25  H42 UNL     1     -76.662 -64.342  55.014  1.00  0.00     0.277 HD
ATOM     26  H41 UNL     1     -75.856 -63.770  56.217  1.00  0.00     0.277 HD
BRANCH  24  27
HETATM   27  C16 UNL     1     -74.978 -65.408  55.400  1.00  0.00     0.177 C 
HETATM   28  C17 UNL     1     -75.490 -66.327  54.278  1.00  0.00     0.039 C 
HETATM   29  C18 UNL     1     -74.310 -66.209  56.448  1.00  0.00     0.039 C 
ENDBRANCH  24  27
ENDBRANCH  23  24
ENDBRANCH  22  23
ENDBRANCH  19  22
ENDBRANCH  15  16
ENDBRANCH   7  15
TORSDOF 7
ENDMDL
MODEL 3
REMARK VINA RESULT: -6.800023540      2.176      4.652
REMARK  7 active torsions:
REMARK  status: ('A' for Active; 'I' for Inactive)
REMARK    1  A    between atoms: C3_3  and  C4_4 
REMARK    2  A    between atoms: N2_13  and  C10_14 
REMARK    3  A    between atoms: C10_14  and  C11_15 
REMARK    4  A    between atoms: N3_18  and  C14_19 
REMARK    5  A    between atoms: C14_19  and  C15_20 
REMARK    6  A    between atoms: C15_20  and  N4_21 
REMARK    7  A    between atoms: N4_21  and  C16_24 
ROOT
HETATM    1  C1  UNL     1     -72.443 -65.504  51.113  1.00  0.00     0.013 C 
HETATM    2  C2  UNL     1     -73.237 -66.391  51.132  1.00  0.00    -0.099 C 
HETATM    3  C3  UNL     1     -74.218 -67.497  51.109  1.00  0.00     0.087 C 
HETATM    4  C7  UNL     1     -73.522 -68.724  50.645  1.00  0.00     0.033 C 
HETATM    5  C8  UNL     1     -72.454 -69.079  51.646  1.00  0.00     0.022 C 
HETATM    6  C9  UNL     1     -73.130 -69.339  52.995  1.00  0.00     0.122 C 
HETATM    7  N2  UNL     1     -73.883 -68.244  53.416  1.00  0.00    -0.391 N 
HETATM    8  C21 UNL     1     -74.808 -67.720  52.462  1.00  0.00     0.151 C 
ENDROOT
BRANCH   3   9
HETATM    9  C4  UNL     1     -75.293 -67.128  50.121  1.00  0.00     0.073 A 
HETATM   10  N1  UNL     1     -76.249 -66.222  50.144  1.00  0.00    -0.362 N 
HETATM   11  C5  UNL     1     -77.032 -66.076  49.130  1.00  0.00     0.096 A 
ATOM     12  H1  UNL     1     -76.372 -65.634  50.968  1.00  0.00     0.165 HD
HETATM   13  C6  UNL     1     -76.845 -66.880  48.033  1.00  0.00     0.068 A 
HETATM   14  S1  UNL     1     -75.521 -67.828  48.554  1.00  0.00    -0.086 SA
ENDBRANCH   3   9
BRANCH   7  15
HETATM   15  C10 UNL     1     -73.943 -67.810  54.735  1.00  0.00     0.063 C 
BRANCH  15  16
HETATM   16  C11 UNL     1     -75.049 -66.954  55.207  1.00  0.00     0.027 C 
HETATM   17  C12 UNL     1     -74.884 -65.492  55.184  1.00  0.00     0.040 C 
HETATM   18  C13 UNL     1     -75.942 -64.866  56.119  1.00  0.00     0.273 C 
HETATM   19  N3  UNL     1     -77.110 -65.644  56.109  1.00  0.00     0.090 N 
HETATM   20  C19 UNL     1     -76.975 -66.979  56.674  1.00  0.00     0.273 C 
HETATM   21  C20 UNL     1     -75.522 -67.357  56.596  1.00  0.00     0.040 C 
BRANCH  19  22
HETATM   22  C14 UNL     1     -78.316 -65.010  56.577  1.00  0.00     0.299 C 
BRANCH  22  23
HETATM   23  C15 UNL     1     -79.406 -65.175  55.525  1.00  0.00     0.262 C 
BRANCH  23  24
HETATM   24  N4  UNL     1     -79.145 -64.244  54.422  1.00  0.00    -0.070 N 
ATOM     25  H42 UNL     1     -79.770 -63.439  54.471  1.00  0.00     0.277 HD
ATOM     26  H41 UNL     1     -78.251 -63.770  54.551  1.00  0.00     0.277 HD
BRANCH  24  27
HETATM   27  C16 UNL     1     -79.212 -64.863  53.136  1.00  0.00     0.177 C 
HETATM   28  C17 UNL     1     -80.701 -65.195  52.938  1.00  0.00     0.039 C 
HETATM   29  C18 UNL     1     -78.393 -66.082  52.964  1.00  0.00     0.039 C 
ENDBRANCH  24  27
ENDBRANCH  23  24
ENDBRANCH  22  23
ENDBRANCH  19  22
ENDBRANCH  15  16
ENDBRANCH   7  15
TORSDOF 7
ENDMDL
MODEL 4
REMARK VINA RESULT: -6.712783406      2.338      4.776
REMARK  7 active torsions:
REMARK  status: ('A' for Active; 'I' for Inactive)
REMARK    1  A    between atoms: C3_3  and  C4_4 
REMARK    2  A    between atoms: N2_13  and  C10_14 
REMARK    3  A    between atoms: C10_14  and  C11_15 
REMARK    4  A    between atoms: N3_18  and  C14_19 
REMARK    5  A    between atoms: C14_19  and  C15_20 
REMARK    6  A    between atoms: C15_20  and  N4_21 
REMARK    7  A    between atoms: N4_21  and  C16_24 
ROOT
HETATM    1  C1  UNL     1     -72.506 -65.515  51.019  1.00  0.00     0.013 C 
HETATM    2  C2  UNL     1     -73.364 -66.339  51.009  1.00  0.00    -0.099 C 
HETATM    3  C3  UNL     1     -74.427 -67.366  50.950  1.00  0.00     0.087 C 
HETATM    4  C7  UNL     1     -73.856 -68.590  50.333  1.00  0.00     0.033 C 
HETATM    5  C8  UNL     1     -72.762 -69.114  51.225  1.00  0.00     0.022 C 
HETATM    6  C9  UNL     1     -73.377 -69.452  52.587  1.00  0.00     0.122 C 
HETATM    7  N2  UNL     1     -74.017 -68.351  53.153  1.00  0.00    -0.391 N 
HETATM    8  C21 UNL     1     -74.953 -67.674  52.312  1.00  0.00     0.151 C 
ENDROOT
BRANCH   3   9
HETATM    9  C4  UNL     1     -75.526 -66.828  50.071  1.00  0.00     0.073 A 
HETATM   10  N1  UNL     1     -75.861 -67.068  48.820  1.00  0.00    -0.362 N 
HETATM   11  C5  UNL     1     -76.893 -66.494  48.301  1.00  0.00     0.096 A 
ATOM     12  H1  UNL     1     -75.303 -67.711  48.258  1.00  0.00     0.165 HD
HETATM   13  C6  UNL     1     -77.628 -65.634  49.078  1.00  0.00     0.068 A 
HETATM   14  S1  UNL     1     -76.754 -65.704  50.547  1.00  0.00    -0.086 SA
ENDBRANCH   3   9
BRANCH   7  15
HETATM   15  C10 UNL     1     -73.967 -68.041  54.507  1.00  0.00     0.063 C 
BRANCH  15  16
HETATM   16  C11 UNL     1     -74.954 -67.132  55.119  1.00  0.00     0.027 C 
HETATM   17  C12 UNL     1     -74.664 -65.691  55.177  1.00  0.00     0.040 C 
HETATM   18  C13 UNL     1     -75.591 -65.047  56.231  1.00  0.00     0.273 C 
HETATM   19  N3  UNL     1     -76.821 -65.723  56.265  1.00  0.00     0.090 N 
HETATM   20  C19 UNL     1     -76.762 -67.101  56.730  1.00  0.00     0.273 C 
HETATM   21  C20 UNL     1     -75.358 -67.592  56.513  1.00  0.00     0.040 C 
BRANCH  19  22
HETATM   22  C14 UNL     1     -77.928 -65.026  56.867  1.00  0.00     0.299 C 
BRANCH  22  23
HETATM   23  C15 UNL     1     -79.140 -65.131  55.949  1.00  0.00     0.262 C 
BRANCH  23  24
HETATM   24  N4  UNL     1     -78.700 -64.961  54.560  1.00  0.00    -0.070 N 
ATOM     25  H42 UNL     1     -77.837 -64.418  54.517  1.00  0.00     0.277 HD
ATOM     26  H41 UNL     1     -78.362 -65.844  54.176  1.00  0.00     0.277 HD
BRANCH  24  27
HETATM   27  C16 UNL     1     -79.703 -64.389  53.719  1.00  0.00     0.177 C 
HETATM   28  C17 UNL     1     -80.524 -63.481  54.649  1.00  0.00     0.039 C 
HETATM   29  C18 UNL     1     -80.593 -65.351  53.032  1.00  0.00     0.039 C 
ENDBRANCH  24  27
ENDBRANCH  23  24
ENDBRANCH  22  23
ENDBRANCH  19  22
ENDBRANCH  15  16
ENDBRANCH   7  15
TORSDOF 7
ENDMDL
MODEL 5
REMARK VINA RESULT: -6.646368965      4.348      7.228
REMARK  7 active torsions:
REMARK  status: ('A' for Active; 'I' for Inactive)
REMARK    1  A    between atoms: C3_3  and  C4_4 
REMARK    2  A    between atoms: N2_13  and  C10_14 
REMARK    3  A    between atoms: C10_14  and  C11_15 
REMARK    4  A    between atoms: N3_18  and  C14_19 
REMARK    5  A    between atoms: C14_19  and  C15_20 
REMARK    6  A    between atoms: C15_20  and  N4_21 
REMARK    7  A    between atoms: N4_21  and  C16_24 
ROOT
HETATM    1  C1  UNL     1     -78.486 -62.522  47.846  1.00  0.00     0.013 C 
HETATM    2  C2  UNL     1     -78.739 -63.681  47.938  1.00  0.00    -0.099 C 
HETATM    3  C3  UNL     1     -79.029 -65.130  48.015  1.00  0.00     0.087 C 
HETATM    4  C7  UNL     1     -77.738 -65.855  48.139  1.00  0.00     0.033 C 
HETATM    5  C8  UNL     1     -77.082 -65.449  49.433  1.00  0.00     0.022 C 
HETATM    6  C9  UNL     1     -78.015 -65.838  50.584  1.00  0.00     0.122 C 
HETATM    7  N2  UNL     1     -79.275 -65.259  50.447  1.00  0.00    -0.391 N 
HETATM    8  C21 UNL     1     -79.909 -65.441  49.179  1.00  0.00     0.151 C 
ENDROOT
BRANCH   3   9
HETATM    9  C4  UNL     1     -79.701 -65.524  46.726  1.00  0.00     0.073 A 
HETATM   10  N1  UNL     1     -80.715 -66.323  46.460  1.00  0.00    -0.362 N 
HETATM   11  C5  UNL     1     -81.132 -66.462  45.248  1.00  0.00     0.096 A 
ATOM     12  H1  UNL     1     -81.171 -66.833  47.215  1.00  0.00     0.165 HD
HETATM   13  C6  UNL     1     -80.502 -65.762  44.249  1.00  0.00     0.068 A 
HETATM   14  S1  UNL     1     -79.306 -64.932  45.148  1.00  0.00    -0.086 SA
ENDBRANCH   3   9
BRANCH   7  15
HETATM   15  C10 UNL     1     -80.009 -64.745  51.509  1.00  0.00     0.063 C 
BRANCH  15  16
HETATM   16  C11 UNL     1     -79.545 -64.897  52.901  1.00  0.00     0.027 C 
HETATM   17  C12 UNL     1     -79.258 -66.244  53.419  1.00  0.00     0.040 C 
HETATM   18  C13 UNL     1     -79.241 -66.182  54.962  1.00  0.00     0.273 C 
HETATM   19  N3  UNL     1     -78.768 -64.930  55.386  1.00  0.00     0.090 N 
HETATM   20  C19 UNL     1     -79.620 -63.797  55.057  1.00  0.00     0.273 C 
HETATM   21  C20 UNL     1     -80.472 -64.198  53.885  1.00  0.00     0.040 C 
BRANCH  19  22
HETATM   22  C14 UNL     1     -78.299 -64.840  56.745  1.00  0.00     0.299 C 
BRANCH  22  23
HETATM   23  C15 UNL     1     -76.862 -65.344  56.810  1.00  0.00     0.262 C 
BRANCH  23  24
HETATM   24  N4  UNL     1     -76.070 -64.651  55.788  1.00  0.00    -0.070 N 
ATOM     25  H42 UNL     1     -76.660 -64.356  55.010  1.00  0.00     0.277 HD
ATOM     26  H41 UNL     1     -75.765 -63.737  56.124  1.00  0.00     0.277 HD
BRANCH  24  27
HETATM   27  C16 UNL     1     -74.959 -65.419  55.323  1.00  0.00     0.177 C 
HETATM   28  C17 UNL     1     -75.515 -66.238  54.145  1.00  0.00     0.039 C 
HETATM   29  C18 UNL     1     -74.335 -66.318  56.317  1.00  0.00     0.039 C 
ENDBRANCH  24  27
ENDBRANCH  23  24
ENDBRANCH  22  23
ENDBRANCH  19  22
ENDBRANCH  15  16
ENDBRANCH   7  15
TORSDOF 7
ENDMDL
