MODEL 1
REMARK VINA RESULT: -8.792985122      0.000      0.000
REMARK  4 active torsions:
REMARK  status: ('A' for Active; 'I' for Inactive)
REMARK    1  A    between atoms: C5_6  and  C6_7 
REMARK       I    between atoms: C6_7  and  N2_9 
REMARK    2  A    between atoms: N2_9  and  C7_11 
REMARK    3  A    between atoms: N3_24  and  C20_25 
REMARK    4  A    between atoms: C20_25  and  C21_26 
ROOT
HETATM    1  C1  UNL     1       0.794   7.208  13.847  1.00  0.00     0.070 C 
HETATM    2  C2  UNL     1       0.022   8.456  13.527  1.00  0.00     0.029 A 
HETATM    3  C3  UNL     1      -0.981   8.960  14.327  1.00  0.00     0.084 A 
HETATM    4  C4  UNL     1      -1.451   8.349  15.566  1.00  0.00     0.102 C 
HETATM    5  N1  UNL     1      -1.818   7.840  16.533  1.00  0.00    -0.191 NA
HETATM    6  C5  UNL     1      -1.436  10.097  13.703  1.00  0.00     0.076 A 
HETATM    7  C18 UNL     1      -0.692  10.269  12.517  1.00  0.00     0.025 A 
HETATM    8  C19 UNL     1      -0.871  11.398  11.576  1.00  0.00     0.069 C 
HETATM    9  N3  UNL     1       0.164   9.266  12.455  1.00  0.00    -0.352 N 
ENDROOT
BRANCH   6  10
HETATM   10  C6  UNL     1      -2.465  11.029  14.145  1.00  0.00     0.255 C 
HETATM   11  O1  UNL     1      -2.051  12.125  14.659  1.00  0.00    -0.268 OA
HETATM   12  N2  UNL     1      -3.844  10.865  14.074  1.00  0.00    -0.347 N 
ATOM     13  H2  UNL     1      -4.207  10.000  13.673  1.00  0.00     0.163 HD
BRANCH  12  14
HETATM   14  C7  UNL     1      -4.802  11.865  14.543  1.00  0.00     0.037 C 
HETATM   15  C8  UNL     1      -4.041  12.869  15.422  1.00  0.00     0.036 C 
HETATM   16  C9  UNL     1      -4.946  13.958  15.878  1.00  0.00    -0.012 C 
HETATM   17  C10 UNL     1      -5.443  14.707  14.636  1.00  0.00     0.009 C 
HETATM   18  C14 UNL     1      -6.170  13.489  16.608  1.00  0.00     0.010 C 
HETATM   19  C11 UNL     1      -6.234  13.741  13.808  1.00  0.00    -0.012 C 
HETATM   20  C12 UNL     1      -7.367  13.090  14.531  1.00  0.00     0.010 C 
HETATM   21  C17 UNL     1      -5.282  12.641  13.363  1.00  0.00     0.036 C 
HETATM   22  C13 UNL     1      -6.824  12.418  15.797  1.00  0.00    -0.008 C 
HETATM   23  C15 UNL     1      -5.888  11.303  15.393  1.00  0.00     0.014 C 
HETATM   24  C16 UNL     1      -5.297  10.735  16.665  1.00  0.00     0.012 C 
ENDBRANCH  12  14
ENDBRANCH   6  10
BRANCH   9  25
HETATM   25  C20 UNL     1       1.171   8.985  11.453  1.00  0.00     0.133 C 
BRANCH  25  26
HETATM   26  C21 UNL     1       2.564   9.341  11.823  1.00  0.00    -0.004 C 
HETATM   27  C22 UNL     1       2.779  10.864  11.763  1.00  0.00     0.011 C 
HETATM   28  C23 UNL     1       3.541   8.763  10.838  1.00  0.00     0.011 C 
ENDBRANCH  25  26
ENDBRANCH   9  25
TORSDOF 4
ENDMDL
MODEL 2
REMARK VINA RESULT: -8.757793074     10.634     12.670
REMARK  4 active torsions:
REMARK  status: ('A' for Active; 'I' for Inactive)
REMARK    1  A    between atoms: C5_6  and  C6_7 
REMARK       I    between atoms: C6_7  and  N2_9 
REMARK    2  A    between atoms: N2_9  and  C7_11 
REMARK    3  A    between atoms: N3_24  and  C20_25 
REMARK    4  A    between atoms: C20_25  and  C21_26 
ROOT
HETATM    1  C1  UNL     1      -3.250  -1.409  20.858  1.00  0.00     0.070 C 
HETATM    2  C2  UNL     1      -3.328   0.059  21.163  1.00  0.00     0.029 A 
HETATM    3  C3  UNL     1      -3.137   0.590  22.421  1.00  0.00     0.084 A 
HETATM    4  C4  UNL     1      -2.865  -0.188  23.625  1.00  0.00     0.102 C 
HETATM    5  N1  UNL     1      -2.667  -0.823  24.567  1.00  0.00    -0.191 NA
HETATM    6  C5  UNL     1      -3.287   1.950  22.292  1.00  0.00     0.076 A 
HETATM    7  C18 UNL     1      -3.570   2.229  20.938  1.00  0.00     0.025 A 
HETATM    8  C19 UNL     1      -3.776   3.591  20.393  1.00  0.00     0.069 C 
HETATM    9  N3  UNL     1      -3.585   1.072  20.305  1.00  0.00    -0.352 N 
ENDROOT
BRANCH   6  10
HETATM   10  C6  UNL     1      -3.151   2.982  23.311  1.00  0.00     0.255 C 
HETATM   11  O1  UNL     1      -3.923   2.878  24.327  1.00  0.00    -0.268 OA
HETATM   12  N2  UNL     1      -2.282   4.068  23.307  1.00  0.00    -0.347 N 
ATOM     13  H2  UNL     1      -1.656   4.182  22.510  1.00  0.00     0.163 HD
BRANCH  12  14
HETATM   14  C7  UNL     1      -2.218   5.055  24.384  1.00  0.00     0.037 C 
HETATM   15  C8  UNL     1      -3.656   5.358  24.832  1.00  0.00     0.036 C 
HETATM   16  C9  UNL     1      -3.660   6.307  25.977  1.00  0.00    -0.012 C 
HETATM   17  C10 UNL     1      -2.938   5.631  27.150  1.00  0.00     0.009 C 
HETATM   18  C14 UNL     1      -2.938   7.597  25.723  1.00  0.00     0.010 C 
HETATM   19  C11 UNL     1      -1.520   5.388  26.732  1.00  0.00    -0.012 C 
HETATM   20  C12 UNL     1      -0.789   6.612  26.285  1.00  0.00     0.010 C 
HETATM   21  C17 UNL     1      -1.552   4.420  25.559  1.00  0.00     0.036 C 
HETATM   22  C13 UNL     1      -1.589   7.283  25.163  1.00  0.00    -0.008 C 
HETATM   23  C15 UNL     1      -1.625   6.356  23.971  1.00  0.00     0.014 C 
HETATM   24  C16 UNL     1      -2.506   7.009  22.927  1.00  0.00     0.012 C 
ENDBRANCH  12  14
ENDBRANCH   6  10
BRANCH   9  25
HETATM   25  C20 UNL     1      -3.804   0.802  18.899  1.00  0.00     0.133 C 
BRANCH  25  26
HETATM   26  C21 UNL     1      -5.088   1.295  18.342  1.00  0.00    -0.004 C 
HETATM   27  C22 UNL     1      -6.285   0.683  19.091  1.00  0.00     0.011 C 
HETATM   28  C23 UNL     1      -5.250   0.859  16.912  1.00  0.00     0.011 C 
ENDBRANCH  25  26
ENDBRANCH   9  25
TORSDOF 4
ENDMDL
MODEL 3
REMARK VINA RESULT: -8.740628273      1.393      3.300
REMARK  4 active torsions:
REMARK  status: ('A' for Active; 'I' for Inactive)
REMARK    1  A    between atoms: C5_6  and  C6_7 
REMARK       I    between atoms: C6_7  and  N2_9 
REMARK    2  A    between atoms: N2_9  and  C7_11 
REMARK    3  A    between atoms: N3_24  and  C20_25 
REMARK    4  A    between atoms: C20_25  and  C21_26 
ROOT
HETATM    1  C1  UNL     1       1.317   8.531  11.410  1.00  0.00     0.070 C 
HETATM    2  C2  UNL     1       0.361   8.758  12.545  1.00  0.00     0.029 A 
HETATM    3  C3  UNL     1      -0.378   9.911  12.701  1.00  0.00     0.084 A 
HETATM    4  C4  UNL     1      -0.318  11.071  11.818  1.00  0.00     0.102 C 
HETATM    5  N1  UNL     1      -0.241  11.983  11.117  1.00  0.00    -0.191 NA
HETATM    6  C5  UNL     1      -1.125   9.738  13.843  1.00  0.00     0.076 A 
HETATM    7  C18 UNL     1      -0.823   8.464  14.369  1.00  0.00     0.025 A 
HETATM    8  C19 UNL     1      -1.445   7.897  15.588  1.00  0.00     0.069 C 
HETATM    9  N3  UNL     1       0.067   7.919  13.562  1.00  0.00    -0.352 N 
ENDROOT
BRANCH   6  10
HETATM   10  C6  UNL     1      -2.100  10.640  14.439  1.00  0.00     0.255 C 
HETATM   11  O1  UNL     1      -1.790  11.135  15.578  1.00  0.00    -0.268 OA
HETATM   12  N2  UNL     1      -3.329  11.026  13.916  1.00  0.00    -0.347 N 
ATOM     13  H2  UNL     1      -3.609  10.647  13.011  1.00  0.00     0.163 HD
BRANCH  12  14
HETATM   14  C7  UNL     1      -4.244  11.945  14.593  1.00  0.00     0.037 C 
HETATM   15  C8  UNL     1      -4.765  11.245  15.857  1.00  0.00     0.036 C 
HETATM   16  C9  UNL     1      -5.650  12.153  16.633  1.00  0.00    -0.012 C 
HETATM   17  C10 UNL     1      -4.811  13.358  17.078  1.00  0.00     0.009 C 
HETATM   18  C14 UNL     1      -6.810  12.707  15.860  1.00  0.00     0.010 C 
HETATM   19  C11 UNL     1      -4.351  14.073  15.845  1.00  0.00    -0.012 C 
HETATM   20  C12 UNL     1      -5.452  14.495  14.928  1.00  0.00     0.010 C 
HETATM   21  C17 UNL     1      -3.455  13.117  15.074  1.00  0.00     0.036 C 
HETATM   22  C13 UNL     1      -6.297  13.266  14.573  1.00  0.00    -0.008 C 
HETATM   23  C15 UNL     1      -5.443  12.300  13.786  1.00  0.00     0.014 C 
HETATM   24  C16 UNL     1      -6.279  11.063  13.544  1.00  0.00     0.012 C 
ENDBRANCH  12  14
ENDBRANCH   6  10
BRANCH   9  25
HETATM   25  C20 UNL     1       0.687   6.612  13.636  1.00  0.00     0.133 C 
BRANCH  25  26
HETATM   26  C21 UNL     1       0.023   5.539  12.854  1.00  0.00    -0.004 C 
HETATM   27  C22 UNL     1      -0.712   4.555  13.782  1.00  0.00     0.011 C 
HETATM   28  C23 UNL     1       1.039   4.709  12.120  1.00  0.00     0.011 C 
ENDBRANCH  25  26
ENDBRANCH   9  25
TORSDOF 4
ENDMDL
MODEL 4
REMARK VINA RESULT: -8.682371302     10.854     12.769
REMARK  4 active torsions:
REMARK  status: ('A' for Active; 'I' for Inactive)
REMARK    1  A    between atoms: C5_6  and  C6_7 
REMARK       I    between atoms: C6_7  and  N2_9 
REMARK    2  A    between atoms: N2_9  and  C7_11 
REMARK    3  A    between atoms: N3_24  and  C20_25 
REMARK    4  A    between atoms: C20_25  and  C21_26 
ROOT
HETATM    1  C1  UNL     1      -3.210  -1.274  20.781  1.00  0.00     0.070 C 
HETATM    2  C2  UNL     1      -3.292   0.176  21.163  1.00  0.00     0.029 A 
HETATM    3  C3  UNL     1      -3.139   0.636  22.453  1.00  0.00     0.084 A 
HETATM    4  C4  UNL     1      -2.907  -0.207  23.621  1.00  0.00     0.102 C 
HETATM    5  N1  UNL     1      -2.742  -0.894  24.532  1.00  0.00    -0.191 NA
HETATM    6  C5  UNL     1      -3.280   2.002  22.395  1.00  0.00     0.076 A 
HETATM    7  C18 UNL     1      -3.519   2.356  21.050  1.00  0.00     0.025 A 
HETATM    8  C19 UNL     1      -3.703   3.746  20.574  1.00  0.00     0.069 C 
HETATM    9  N3  UNL     1      -3.519   1.235  20.354  1.00  0.00    -0.352 N 
ENDROOT
BRANCH   6  10
HETATM   10  C6  UNL     1      -3.173   2.976  23.472  1.00  0.00     0.255 C 
HETATM   11  O1  UNL     1      -3.981   2.826  24.453  1.00  0.00    -0.268 OA
HETATM   12  N2  UNL     1      -2.295   4.052  23.558  1.00  0.00    -0.347 N 
ATOM     13  H2  UNL     1      -1.640   4.203  22.791  1.00  0.00     0.163 HD
BRANCH  12  14
HETATM   14  C7  UNL     1      -2.261   4.979  24.689  1.00  0.00     0.037 C 
HETATM   15  C8  UNL     1      -1.284   6.111  24.340  1.00  0.00     0.036 C 
HETATM   16  C9  UNL     1      -1.254   7.131  25.422  1.00  0.00    -0.012 C 
HETATM   17  C10 UNL     1      -2.656   7.741  25.531  1.00  0.00     0.009 C 
HETATM   18  C14 UNL     1      -0.921   6.590  26.781  1.00  0.00     0.010 C 
HETATM   19  C11 UNL     1      -3.600   6.647  25.927  1.00  0.00    -0.012 C 
HETATM   20  C12 UNL     1      -3.226   5.934  27.186  1.00  0.00     0.010 C 
HETATM   21  C17 UNL     1      -3.603   5.623  24.804  1.00  0.00     0.036 C 
HETATM   22  C13 UNL     1      -1.793   5.407  27.047  1.00  0.00    -0.008 C 
HETATM   23  C15 UNL     1      -1.762   4.368  25.950  1.00  0.00     0.014 C 
HETATM   24  C16 UNL     1      -0.318   3.949  25.777  1.00  0.00     0.012 C 
ENDBRANCH  12  14
ENDBRANCH   6  10
BRANCH   9  25
HETATM   25  C20 UNL     1      -3.694   1.044  18.930  1.00  0.00     0.133 C 
BRANCH  25  26
HETATM   26  C21 UNL     1      -5.015   1.447  18.384  1.00  0.00    -0.004 C 
HETATM   27  C22 UNL     1      -6.150   0.631  19.029  1.00  0.00     0.011 C 
HETATM   28  C23 UNL     1      -5.097   1.147  16.913  1.00  0.00     0.011 C 
ENDBRANCH  25  26
ENDBRANCH   9  25
TORSDOF 4
ENDMDL
MODEL 5
REMARK VINA RESULT: -8.653996321     11.354     14.667
REMARK  4 active torsions:
REMARK  status: ('A' for Active; 'I' for Inactive)
REMARK    1  A    between atoms: C5_6  and  C6_7 
REMARK       I    between atoms: C6_7  and  N2_9 
REMARK    2  A    between atoms: N2_9  and  C7_11 
REMARK    3  A    between atoms: N3_24  and  C20_25 
REMARK    4  A    between atoms: C20_25  and  C21_26 
ROOT
HETATM    1  C1  UNL     1      -3.298   5.712  20.693  1.00  0.00     0.070 C 
HETATM    2  C2  UNL     1      -3.246   4.420  21.456  1.00  0.00     0.029 A 
HETATM    3  C3  UNL     1      -2.795   4.317  22.755  1.00  0.00     0.084 A 
HETATM    4  C4  UNL     1      -2.284   5.426  23.554  1.00  0.00     0.102 C 
HETATM    5  N1  UNL     1      -1.868   6.313  24.161  1.00  0.00    -0.191 NA
HETATM    6  C5  UNL     1      -2.903   2.990  23.096  1.00  0.00     0.076 A 
HETATM    7  C18 UNL     1      -3.426   2.297  21.984  1.00  0.00     0.025 A 
HETATM    8  C19 UNL     1      -3.710   0.844  21.965  1.00  0.00     0.069 C 
HETATM    9  N3  UNL     1      -3.613   3.191  21.031  1.00  0.00    -0.352 N 
ENDROOT
BRANCH   6  10
HETATM   10  C6  UNL     1      -2.595   2.348  24.367  1.00  0.00     0.255 C 
HETATM   11  O1  UNL     1      -3.573   2.207  25.180  1.00  0.00    -0.268 OA
HETATM   12  N2  UNL     1      -1.362   1.872  24.799  1.00  0.00    -0.347 N 
ATOM     13  H2  UNL     1      -0.560   1.973  24.176  1.00  0.00     0.163 HD
BRANCH  12  14
HETATM   14  C7  UNL     1      -1.151   1.236  26.099  1.00  0.00     0.037 C 
HETATM   15  C8  UNL     1       0.312   0.774  26.165  1.00  0.00     0.036 C 
HETATM   16  C9  UNL     1       0.615   0.178  27.493  1.00  0.00    -0.012 C 
HETATM   17  C10 UNL     1       0.420   1.269  28.553  1.00  0.00     0.009 C 
HETATM   18  C14 UNL     1      -0.282  -0.959  27.887  1.00  0.00     0.010 C 
HETATM   19  C11 UNL     1      -1.020   1.678  28.527  1.00  0.00    -0.012 C 
HETATM   20  C12 UNL     1      -1.986   0.556  28.729  1.00  0.00     0.010 C 
HETATM   21  C17 UNL     1      -1.296   2.278  27.157  1.00  0.00     0.036 C 
HETATM   22  C13 UNL     1      -1.700  -0.534  27.690  1.00  0.00    -0.008 C 
HETATM   23  C15 UNL     1      -1.984   0.021  26.313  1.00  0.00     0.014 C 
HETATM   24  C16 UNL     1      -1.595  -1.047  25.315  1.00  0.00     0.012 C 
ENDBRANCH  12  14
ENDBRANCH   6  10
BRANCH   9  25
HETATM   25  C20 UNL     1      -4.152   3.007  19.699  1.00  0.00     0.133 C 
BRANCH  25  26
HETATM   26  C21 UNL     1      -3.486   1.968  18.873  1.00  0.00    -0.004 C 
HETATM   27  C22 UNL     1      -2.737   2.603  17.688  1.00  0.00     0.011 C 
HETATM   28  C23 UNL     1      -4.501   1.048  18.256  1.00  0.00     0.011 C 
ENDBRANCH  25  26
ENDBRANCH   9  25
TORSDOF 4
ENDMDL
