MODEL 1
REMARK VINA RESULT: -7.699972115      0.000      0.000
REMARK  5 active torsions:
REMARK  status: ('A' for Active; 'I' for Inactive)
REMARK    1  A    between atoms: C2_2  and  C4_4 
REMARK    2  A    between atoms: C5_5  and  C6_6 
REMARK    3  A    between atoms: C6_6  and  C7_7 
REMARK    4  A    between atoms: C12_15  and  C13_16 
REMARK    5  A    between atoms: C13_16  and  O3_17 
ROOT
HETATM    1  C7  UNL     1      -1.064   1.350  25.221  1.00  0.00     0.073 C 
HETATM    2  C8  UNL     1       0.360   1.642  25.406  1.00  0.00     0.151 C 
HETATM    3  O1  UNL     1       1.400   1.162  25.001  1.00  0.00    -0.296 OA
HETATM    4  C9  UNL     1       0.384   2.817  26.339  1.00  0.00     0.160 C 
HETATM    5 CL1  UNL     1       0.328   2.416  28.022  1.00  0.00    -0.116 Cl
HETATM    6  C10 UNL     1      -0.790   3.569  25.758  1.00  0.00     0.057 C 
HETATM    7  C11 UNL     1      -0.992   4.839  26.417  1.00  0.00     0.166 A 
HETATM    8  O2  UNL     1      -2.147   5.603  26.362  1.00  0.00    -0.366 OA
HETATM    9  C12 UNL     1      -1.016   6.112  25.785  1.00  0.00     0.109 A 
HETATM   10  C14 UNL     1      -1.086   6.424  24.358  1.00  0.00     0.043 C 
HETATM   11  C15 UNL     1      -2.365   6.715  23.676  1.00  0.00     0.003 C 
HETATM   12  C16 UNL     1      -2.728   5.739  22.483  1.00  0.00     0.000 C 
HETATM   13  C17 UNL     1      -2.790   4.507  23.206  1.00  0.00     0.004 C 
HETATM   14  C18 UNL     1      -2.751   3.089  23.151  1.00  0.00     0.034 C 
HETATM   15  C19 UNL     1      -2.935   2.746  24.683  1.00  0.00    -0.080 C 
HETATM   16  C20 UNL     1      -4.148   2.822  24.939  1.00  0.00     0.015 C 
HETATM   17  C21 UNL     1      -1.891   2.520  25.640  1.00  0.00    -0.003 C 
HETATM   18  C22 UNL     1      -2.493   2.264  26.988  1.00  0.00     0.021 C 
ENDROOT
BRANCH   1  19
HETATM   19  C6  UNL     1      -1.360  -0.010  25.748  1.00  0.00     0.040 C 
BRANCH  19  20
HETATM   20  C5  UNL     1      -1.080  -0.994  24.644  1.00  0.00    -0.025 C 
HETATM   21  C4  UNL     1      -2.069  -1.459  23.859  1.00  0.00     0.002 C 
BRANCH  21  22
HETATM   22  C2  UNL     1      -3.378  -1.059  24.040  1.00  0.00    -0.072 C 
HETATM   23  C1  UNL     1      -4.569  -0.695  24.203  1.00  0.00     0.018 C 
HETATM   24  C3  UNL     1      -3.479  -0.455  22.300  1.00  0.00     0.047 C 
ENDBRANCH  21  22
ENDBRANCH  19  20
ENDBRANCH   1  19
BRANCH   9  25
HETATM   25  C13 UNL     1      -0.556   7.317  26.669  1.00  0.00     0.204 C 
BRANCH  25  26
HETATM   26  O3  UNL     1       0.111   8.215  25.799  1.00  0.00    -0.398 OA
ATOM     27  H3  UNL     1       0.972   7.845  25.646  1.00  0.00     0.209 HD
ENDBRANCH  25  26
ENDBRANCH   9  25
TORSDOF 5
ENDMDL
MODEL 2
REMARK VINA RESULT: -7.578916624      3.296      5.748
REMARK  5 active torsions:
REMARK  status: ('A' for Active; 'I' for Inactive)
REMARK    1  A    between atoms: C2_2  and  C4_4 
REMARK    2  A    between atoms: C5_5  and  C6_6 
REMARK    3  A    between atoms: C6_6  and  C7_7 
REMARK    4  A    between atoms: C12_15  and  C13_16 
REMARK    5  A    between atoms: C13_16  and  O3_17 
ROOT
HETATM    1  C7  UNL     1      -3.184   0.927  21.866  1.00  0.00     0.073 C 
HETATM    2  C8  UNL     1      -2.225  -0.058  21.359  1.00  0.00     0.151 C 
HETATM    3  O1  UNL     1      -1.606  -0.208  20.324  1.00  0.00    -0.296 OA
HETATM    4  C9  UNL     1      -2.079  -1.049  22.476  1.00  0.00     0.160 C 
HETATM    5 CL1  UNL     1      -3.256  -2.319  22.487  1.00  0.00    -0.116 Cl
HETATM    6  C10 UNL     1      -2.093  -0.071  23.627  1.00  0.00     0.057 C 
HETATM    7  C11 UNL     1      -1.888  -0.733  24.895  1.00  0.00     0.166 A 
HETATM    8  O2  UNL     1      -2.172  -0.196  26.141  1.00  0.00    -0.366 OA
HETATM    9  C12 UNL     1      -0.861  -0.439  25.833  1.00  0.00     0.109 A 
HETATM   10  C14 UNL     1       0.048   0.706  25.866  1.00  0.00     0.043 C 
HETATM   11  C15 UNL     1      -0.229   1.910  26.679  1.00  0.00     0.003 C 
HETATM   12  C16 UNL     1      -0.337   3.262  25.863  1.00  0.00     0.000 C 
HETATM   13  C17 UNL     1      -1.447   2.934  25.022  1.00  0.00     0.004 C 
HETATM   14  C18 UNL     1      -2.167   3.219  23.832  1.00  0.00     0.034 C 
HETATM   15  C19 UNL     1      -3.311   2.132  23.932  1.00  0.00    -0.080 C 
HETATM   16  C20 UNL     1      -4.177   2.574  24.705  1.00  0.00     0.015 C 
HETATM   17  C21 UNL     1      -3.298   0.822  23.350  1.00  0.00    -0.003 C 
HETATM   18  C22 UNL     1      -4.558   0.098  23.716  1.00  0.00     0.021 C 
ENDROOT
BRANCH   1  19
HETATM   19  C6  UNL     1      -4.404   0.909  21.013  1.00  0.00     0.040 C 
BRANCH  19  20
HETATM   20  C5  UNL     1      -4.333   2.103  20.100  1.00  0.00    -0.025 C 
HETATM   21  C4  UNL     1      -4.962   2.109  18.910  1.00  0.00     0.002 C 
BRANCH  21  22
HETATM   22  C2  UNL     1      -5.690   1.018  18.478  1.00  0.00    -0.072 C 
HETATM   23  C1  UNL     1      -6.352   0.026  18.083  1.00  0.00     0.018 C 
HETATM   24  C3  UNL     1      -5.491   1.529  16.717  1.00  0.00     0.047 C 
ENDBRANCH  21  22
ENDBRANCH  19  20
ENDBRANCH   1  19
BRANCH   9  25
HETATM   25  C13 UNL     1      -0.396  -1.634  26.727  1.00  0.00     0.204 C 
BRANCH  25  26
HETATM   26  O3  UNL     1      -0.788  -1.316  28.050  1.00  0.00    -0.398 OA
ATOM     27  H3  UNL     1      -1.652  -1.694  28.169  1.00  0.00     0.209 HD
ENDBRANCH  25  26
ENDBRANCH   9  25
TORSDOF 5
ENDMDL
MODEL 3
REMARK VINA RESULT: -7.436438022      2.142      3.120
REMARK  5 active torsions:
REMARK  status: ('A' for Active; 'I' for Inactive)
REMARK    1  A    between atoms: C2_2  and  C4_4 
REMARK    2  A    between atoms: C5_5  and  C6_6 
REMARK    3  A    between atoms: C6_6  and  C7_7 
REMARK    4  A    between atoms: C12_15  and  C13_16 
REMARK    5  A    between atoms: C13_16  and  O3_17 
ROOT
HETATM    1  C7  UNL     1      -1.382  -0.085  23.587  1.00  0.00     0.073 C 
HETATM    2  C8  UNL     1       0.039  -0.340  23.837  1.00  0.00     0.151 C 
HETATM    3  O1  UNL     1       0.996  -0.645  23.154  1.00  0.00    -0.296 OA
HETATM    4  C9  UNL     1       0.198  -0.154  25.318  1.00  0.00     0.160 C 
HETATM    5 CL1  UNL     1      -0.141  -1.558  26.273  1.00  0.00    -0.116 Cl
HETATM    6  C10 UNL     1      -0.715   1.039  25.478  1.00  0.00     0.057 C 
HETATM    7  C11 UNL     1      -0.722   1.528  26.837  1.00  0.00     0.166 A 
HETATM    8  O2  UNL     1      -1.677   2.371  27.387  1.00  0.00    -0.366 OA
HETATM    9  C12 UNL     1      -0.403   2.852  27.249  1.00  0.00     0.109 A 
HETATM   10  C14 UNL     1      -0.236   4.050  26.428  1.00  0.00     0.043 C 
HETATM   11  C15 UNL     1      -1.335   5.014  26.205  1.00  0.00     0.003 C 
HETATM   12  C16 UNL     1      -1.750   5.222  24.692  1.00  0.00     0.000 C 
HETATM   13  C17 UNL     1      -2.155   3.887  24.379  1.00  0.00     0.004 C 
HETATM   14  C18 UNL     1      -2.408   2.923  23.368  1.00  0.00     0.034 C 
HETATM   15  C19 UNL     1      -2.841   1.691  24.259  1.00  0.00    -0.080 C 
HETATM   16  C20 UNL     1      -4.032   1.856  24.568  1.00  0.00     0.015 C 
HETATM   17  C21 UNL     1      -1.989   0.643  24.739  1.00  0.00    -0.003 C 
HETATM   18  C22 UNL     1      -2.787  -0.307  25.580  1.00  0.00     0.021 C 
ENDROOT
BRANCH   1  19
HETATM   19  C6  UNL     1      -2.017  -1.324  23.058  1.00  0.00     0.040 C 
BRANCH  19  20
HETATM   20  C5  UNL     1      -1.555  -1.497  21.636  1.00  0.00    -0.025 C 
HETATM   21  C4  UNL     1      -2.194  -0.895  20.618  1.00  0.00     0.002 C 
BRANCH  21  22
HETATM   22  C2  UNL     1      -3.302  -0.100  20.835  1.00  0.00    -0.072 C 
HETATM   23  C1  UNL     1      -4.310   0.623  21.031  1.00  0.00     0.018 C 
HETATM   24  C3  UNL     1      -3.034   0.785  19.239  1.00  0.00     0.047 C 
ENDBRANCH  21  22
ENDBRANCH  19  20
ENDBRANCH   1  19
BRANCH   9  25
HETATM   25  C13 UNL     1       0.191   2.989  28.689  1.00  0.00     0.204 C 
BRANCH  25  26
HETATM   26  O3  UNL     1       1.488   3.536  28.531  1.00  0.00    -0.398 OA
ATOM     27  H3  UNL     1       1.601   3.687  27.600  1.00  0.00     0.209 HD
ENDBRANCH  25  26
ENDBRANCH   9  25
TORSDOF 5
ENDMDL
MODEL 4
REMARK VINA RESULT: -7.404020569      1.949      2.303
REMARK  5 active torsions:
REMARK  status: ('A' for Active; 'I' for Inactive)
REMARK    1  A    between atoms: C2_2  and  C4_4 
REMARK    2  A    between atoms: C5_5  and  C6_6 
REMARK    3  A    between atoms: C6_6  and  C7_7 
REMARK    4  A    between atoms: C12_15  and  C13_16 
REMARK    5  A    between atoms: C13_16  and  O3_17 
ROOT
HETATM    1  C7  UNL     1      -0.541   0.519  24.561  1.00  0.00     0.073 C 
HETATM    2  C8  UNL     1       0.702   1.013  25.160  1.00  0.00     0.151 C 
HETATM    3  O1  UNL     1       1.857   1.111  24.798  1.00  0.00    -0.296 OA
HETATM    4  C9  UNL     1       0.303   1.456  26.537  1.00  0.00     0.160 C 
HETATM    5 CL1  UNL     1       0.311   0.210  27.739  1.00  0.00    -0.116 Cl
HETATM    6  C10 UNL     1      -1.027   2.076  26.181  1.00  0.00     0.057 C 
HETATM    7  C11 UNL     1      -1.659   2.687  27.328  1.00  0.00     0.166 A 
HETATM    8  O2  UNL     1      -2.997   3.037  27.422  1.00  0.00    -0.366 OA
HETATM    9  C12 UNL     1      -2.070   4.044  27.430  1.00  0.00     0.109 A 
HETATM   10  C14 UNL     1      -2.179   5.049  26.373  1.00  0.00     0.043 C 
HETATM   11  C15 UNL     1      -3.455   5.328  25.678  1.00  0.00     0.003 C 
HETATM   12  C16 UNL     1      -3.430   5.099  24.112  1.00  0.00     0.000 C 
HETATM   13  C17 UNL     1      -3.117   3.704  24.089  1.00  0.00     0.004 C 
HETATM   14  C18 UNL     1      -2.616   2.606  23.341  1.00  0.00     0.034 C 
HETATM   15  C19 UNL     1      -2.741   1.456  24.417  1.00  0.00    -0.080 C 
HETATM   16  C20 UNL     1      -3.921   1.071  24.416  1.00  0.00     0.015 C 
HETATM   17  C21 UNL     1      -1.720   1.021  25.325  1.00  0.00    -0.003 C 
HETATM   18  C22 UNL     1      -2.260  -0.067  26.204  1.00  0.00     0.021 C 
ENDROOT
BRANCH   1  19
HETATM   19  C6  UNL     1      -0.398  -0.932  24.261  1.00  0.00     0.040 C 
BRANCH  19  20
HETATM   20  C5  UNL     1      -0.169  -1.067  22.780  1.00  0.00    -0.025 C 
HETATM   21  C4  UNL     1      -1.157  -1.453  21.954  1.00  0.00     0.002 C 
BRANCH  21  22
HETATM   22  C2  UNL     1      -2.419  -1.749  22.432  1.00  0.00    -0.072 C 
HETATM   23  C1  UNL     1      -3.567  -2.016  22.866  1.00  0.00     0.018 C 
HETATM   24  C3  UNL     1      -3.201  -0.655  21.169  1.00  0.00     0.047 C 
ENDBRANCH  21  22
ENDBRANCH  19  20
ENDBRANCH   1  19
BRANCH   9  25
HETATM   25  C13 UNL     1      -2.065   4.648  28.872  1.00  0.00     0.204 C 
BRANCH  25  26
HETATM   26  O3  UNL     1      -3.402   5.025  29.148  1.00  0.00    -0.398 OA
ATOM     27  H3  UNL     1      -3.419   5.290  30.061  1.00  0.00     0.209 HD
ENDBRANCH  25  26
ENDBRANCH   9  25
TORSDOF 5
ENDMDL
MODEL 5
REMARK VINA RESULT: -7.366316925      1.913      2.802
REMARK  5 active torsions:
REMARK  status: ('A' for Active; 'I' for Inactive)
REMARK    1  A    between atoms: C2_2  and  C4_4 
REMARK    2  A    between atoms: C5_5  and  C6_6 
REMARK    3  A    between atoms: C6_6  and  C7_7 
REMARK    4  A    between atoms: C12_15  and  C13_16 
REMARK    5  A    between atoms: C13_16  and  O3_17 
ROOT
HETATM    1  C7  UNL     1      -1.477  -0.069  23.841  1.00  0.00     0.073 C 
HETATM    2  C8  UNL     1      -0.024  -0.252  23.894  1.00  0.00     0.151 C 
HETATM    3  O1  UNL     1       0.823  -0.669  23.130  1.00  0.00    -0.296 OA
HETATM    4  C9  UNL     1       0.362   0.215  25.267  1.00  0.00     0.160 C 
HETATM    5 CL1  UNL     1       0.245  -0.986  26.509  1.00  0.00    -0.116 Cl
HETATM    6  C10 UNL     1      -0.566   1.404  25.352  1.00  0.00     0.057 C 
HETATM    7  C11 UNL     1      -0.377   2.144  26.579  1.00  0.00     0.166 A 
HETATM    8  O2  UNL     1      -1.268   3.062  27.114  1.00  0.00    -0.366 OA
HETATM    9  C12 UNL     1      -0.056   3.526  26.679  1.00  0.00     0.109 A 
HETATM   10  C14 UNL     1      -0.077   4.547  25.633  1.00  0.00     0.043 C 
HETATM   11  C15 UNL     1      -1.240   5.436  25.422  1.00  0.00     0.003 C 
HETATM   12  C16 UNL     1      -1.901   5.346  23.986  1.00  0.00     0.000 C 
HETATM   13  C17 UNL     1      -2.291   3.970  23.999  1.00  0.00     0.004 C 
HETATM   14  C18 UNL     1      -2.660   2.827  23.241  1.00  0.00     0.034 C 
HETATM   15  C19 UNL     1      -2.887   1.783  24.405  1.00  0.00    -0.080 C 
HETATM   16  C20 UNL     1      -4.020   1.987  24.871  1.00  0.00     0.015 C 
HETATM   17  C21 UNL     1      -1.923   0.857  24.923  1.00  0.00    -0.003 C 
HETATM   18  C22 UNL     1      -2.532   0.074  26.047  1.00  0.00     0.021 C 
ENDROOT
BRANCH   1  19
HETATM   19  C6  UNL     1      -2.133  -1.395  23.665  1.00  0.00     0.040 C 
BRANCH  19  20
HETATM   20  C5  UNL     1      -3.357  -1.183  22.816  1.00  0.00    -0.025 C 
HETATM   21  C4  UNL     1      -3.311  -1.324  21.479  1.00  0.00     0.002 C 
BRANCH  21  22
HETATM   22  C2  UNL     1      -2.138  -1.660  20.832  1.00  0.00    -0.072 C 
HETATM   23  C1  UNL     1      -1.072  -1.966  20.243  1.00  0.00     0.018 C 
HETATM   24  C3  UNL     1      -2.252  -0.167  19.756  1.00  0.00     0.047 C 
ENDBRANCH  21  22
ENDBRANCH  19  20
ENDBRANCH   1  19
BRANCH   9  25
HETATM   25  C13 UNL     1       0.755   3.943  27.948  1.00  0.00     0.204 C 
BRANCH  25  26
HETATM   26  O3  UNL     1       2.048   4.301  27.493  1.00  0.00    -0.398 OA
ATOM     27  H3  UNL     1       2.340   5.010  28.053  1.00  0.00     0.209 HD
ENDBRANCH  25  26
ENDBRANCH   9  25
TORSDOF 5
ENDMDL
