MODEL 1
REMARK VINA RESULT: -7.958399690      0.000      0.000
REMARK  5 active torsions:
REMARK  status: ('A' for Active; 'I' for Inactive)
REMARK    1  A    between atoms: C5_5  and  C6_6 
REMARK       I    between atoms: C6_6  and  N1_8 
REMARK    2  A    between atoms: C7_10  and  C8_11 
REMARK    3  A    between atoms: C7_10  and  C13_19 
REMARK    4  A    between atoms: C8_11  and  N2_12 
REMARK    5  A    between atoms: N2_12  and  C9_15 
ROOT
HETATM    1  C6  UNL     1      -3.733  -0.105  22.119  1.00  0.00     0.226 C 
HETATM    2  O1  UNL     1      -3.748  -1.307  22.479  1.00  0.00    -0.273 OA
HETATM    3  N1  UNL     1      -3.526   0.894  23.049  1.00  0.00    -0.328 N 
ATOM      4  H1  UNL     1      -4.337   1.504  23.151  1.00  0.00     0.168 HD
HETATM    5  C7  UNL     1      -2.590   1.227  23.791  1.00  0.00     0.045 C 
ENDROOT
BRANCH   5   6
HETATM    6  C8  UNL     1      -1.265   0.620  23.947  1.00  0.00     0.290 C 
BRANCH   6   7
HETATM    7  N2  UNL     1      -1.088  -0.278  25.042  1.00  0.00    -0.062 N 
ATOM      8  H22 UNL     1      -1.792  -0.172  25.774  1.00  0.00     0.278 HD
ATOM      9  H21 UNL     1      -1.296  -1.249  24.811  1.00  0.00     0.278 HD
BRANCH   7  10
HETATM   10  C9  UNL     1       0.290  -0.068  25.518  1.00  0.00     0.115 C 
HETATM   11  C10 UNL     1       0.643   1.395  25.590  1.00  0.00     0.045 C 
HETATM   12  C11 UNL     1       1.272  -0.745  24.580  1.00  0.00     0.045 C 
HETATM   13  C12 UNL     1       0.445  -0.679  26.902  1.00  0.00     0.045 C 
ENDBRANCH   7  10
ENDBRANCH   6   7
ENDBRANCH   5   6
BRANCH   5  14
HETATM   14  C13 UNL     1      -2.843   2.420  24.644  1.00  0.00    -0.011 C 
HETATM   15  C14 UNL     1      -2.995   3.620  24.082  1.00  0.00     0.053 C 
HETATM   16 CL1  UNL     1      -2.904   3.830  22.351  1.00  0.00    -0.085 Cl
HETATM   17  C15 UNL     1      -3.243   4.748  25.012  1.00  0.00     0.092 C 
HETATM   18  C16 UNL     1      -4.712   4.737  25.372  1.00  0.00     0.052 C 
HETATM   19  C17 UNL     1      -2.982   6.074  24.282  1.00  0.00     0.052 C 
HETATM   20  O2  UNL     1      -2.420   4.712  26.104  1.00  0.00    -0.375 OA
HETATM   21  C18 UNL     1      -2.416   3.559  26.826  1.00  0.00     0.174 C 
HETATM   22  C19 UNL     1      -2.948   2.339  26.119  1.00  0.00     0.068 C 
ENDBRANCH   5  14
BRANCH   1  23
HETATM   23  C5  UNL     1      -3.952   0.169  20.653  1.00  0.00     0.078 C 
HETATM   24  C4  UNL     1      -4.966   1.234  20.513  1.00  0.00     0.014 C 
HETATM   25  C3  UNL     1      -4.471   2.435  19.762  1.00  0.00     0.005 C 
HETATM   26  C2  UNL     1      -3.870   1.956  18.462  1.00  0.00    -0.019 C 
HETATM   27  C1  UNL     1      -4.959   1.208  17.719  1.00  0.00     0.010 C 
HETATM   28  C21 UNL     1      -2.686   1.059  18.666  1.00  0.00     0.005 C 
HETATM   29  C20 UNL     1      -2.631   0.411  20.013  1.00  0.00     0.014 C 
ENDBRANCH   1  23
TORSDOF 5
ENDMDL
MODEL 2
REMARK VINA RESULT: -7.824679243      2.401      3.542
REMARK  5 active torsions:
REMARK  status: ('A' for Active; 'I' for Inactive)
REMARK    1  A    between atoms: C5_5  and  C6_6 
REMARK       I    between atoms: C6_6  and  N1_8 
REMARK    2  A    between atoms: C7_10  and  C8_11 
REMARK    3  A    between atoms: C7_10  and  C13_19 
REMARK    4  A    between atoms: C8_11  and  N2_12 
REMARK    5  A    between atoms: N2_12  and  C9_15 
ROOT
HETATM    1  C6  UNL     1      -4.882   1.059  19.883  1.00  0.00     0.226 C 
HETATM    2  O1  UNL     1      -5.619   0.179  20.393  1.00  0.00    -0.273 OA
HETATM    3  N1  UNL     1      -4.377   2.077  20.667  1.00  0.00    -0.328 N 
ATOM      4  H1  UNL     1      -4.733   2.992  20.389  1.00  0.00     0.168 HD
HETATM    5  C7  UNL     1      -3.596   2.146  21.627  1.00  0.00     0.045 C 
ENDROOT
BRANCH   5   6
HETATM    6  C8  UNL     1      -2.877   1.073  22.320  1.00  0.00     0.290 C 
BRANCH   6   7
HETATM    7  N2  UNL     1      -3.434  -0.238  22.241  1.00  0.00    -0.062 N 
ATOM      8  H22 UNL     1      -3.811  -0.575  23.127  1.00  0.00     0.278 HD
ATOM      9  H21 UNL     1      -4.306  -0.279  21.714  1.00  0.00     0.278 HD
BRANCH   7  10
HETATM   10  C9  UNL     1      -2.372  -1.095  21.688  1.00  0.00     0.115 C 
HETATM   11  C10 UNL     1      -1.846  -0.565  20.380  1.00  0.00     0.045 C 
HETATM   12  C11 UNL     1      -2.906  -2.496  21.450  1.00  0.00     0.045 C 
HETATM   13  C12 UNL     1      -1.224  -1.181  22.682  1.00  0.00     0.045 C 
ENDBRANCH   7  10
ENDBRANCH   6   7
ENDBRANCH   5   6
BRANCH   5  14
HETATM   14  C13 UNL     1      -3.345   3.516  22.151  1.00  0.00    -0.011 C 
HETATM   15  C14 UNL     1      -3.435   3.755  23.460  1.00  0.00     0.053 C 
HETATM   16 CL1  UNL     1      -3.842   2.487  24.589  1.00  0.00    -0.085 Cl
HETATM   17  C15 UNL     1      -3.169   5.150  23.888  1.00  0.00     0.092 C 
HETATM   18  C16 UNL     1      -1.670   5.333  23.962  1.00  0.00     0.052 C 
HETATM   19  C17 UNL     1      -3.706   5.355  25.312  1.00  0.00     0.052 C 
HETATM   20  O2  UNL     1      -3.785   6.067  23.081  1.00  0.00    -0.375 OA
HETATM   21  C18 UNL     1      -3.529   5.975  21.747  1.00  0.00     0.174 C 
HETATM   22  C19 UNL     1      -2.983   4.653  21.273  1.00  0.00     0.068 C 
ENDBRANCH   5  14
BRANCH   1  23
HETATM   23  C5  UNL     1      -4.597   0.936  18.409  1.00  0.00     0.078 C 
HETATM   24  C4  UNL     1      -5.874   0.756  17.689  1.00  0.00     0.014 C 
HETATM   25  C3  UNL     1      -6.132   1.813  16.656  1.00  0.00     0.005 C 
HETATM   26  C2  UNL     1      -4.913   1.905  15.771  1.00  0.00    -0.019 C 
HETATM   27  C1  UNL     1      -4.700   0.533  15.164  1.00  0.00     0.010 C 
HETATM   28  C21 UNL     1      -3.683   2.326  16.518  1.00  0.00     0.005 C 
HETATM   29  C20 UNL     1      -3.748   2.085  17.993  1.00  0.00     0.014 C 
ENDBRANCH   1  23
TORSDOF 5
ENDMDL
MODEL 3
REMARK VINA RESULT: -7.799364481      1.561      2.186
REMARK  5 active torsions:
REMARK  status: ('A' for Active; 'I' for Inactive)
REMARK    1  A    between atoms: C5_5  and  C6_6 
REMARK       I    between atoms: C6_6  and  N1_8 
REMARK    2  A    between atoms: C7_10  and  C8_11 
REMARK    3  A    between atoms: C7_10  and  C13_19 
REMARK    4  A    between atoms: C8_11  and  N2_12 
REMARK    5  A    between atoms: N2_12  and  C9_15 
ROOT
HETATM    1  C6  UNL     1      -3.837   0.750  22.767  1.00  0.00     0.226 C 
HETATM    2  O1  UNL     1      -4.096  -0.231  23.505  1.00  0.00    -0.273 OA
HETATM    3  N1  UNL     1      -3.464   1.957  23.326  1.00  0.00    -0.328 N 
ATOM      4  H1  UNL     1      -4.142   2.695  23.142  1.00  0.00     0.168 HD
HETATM    5  C7  UNL     1      -2.501   2.357  23.998  1.00  0.00     0.045 C 
ENDROOT
BRANCH   5   6
HETATM    6  C8  UNL     1      -1.326   1.619  24.470  1.00  0.00     0.290 C 
BRANCH   6   7
HETATM    7  N2  UNL     1      -1.559   0.358  25.094  1.00  0.00    -0.062 N 
ATOM      8  H22 UNL     1      -1.831   0.432  26.075  1.00  0.00     0.278 HD
ATOM      9  H21 UNL     1      -2.405  -0.109  24.768  1.00  0.00     0.278 HD
BRANCH   7  10
HETATM   10  C9  UNL     1      -0.334  -0.431  24.882  1.00  0.00     0.115 C 
HETATM   11  C10 UNL     1      -0.179  -1.517  25.915  1.00  0.00     0.045 C 
HETATM   12  C11 UNL     1       0.884   0.470  24.959  1.00  0.00     0.045 C 
HETATM   13  C12 UNL     1      -0.376  -1.069  23.502  1.00  0.00     0.045 C 
ENDBRANCH   7  10
ENDBRANCH   6   7
ENDBRANCH   5   6
BRANCH   5  14
HETATM   14  C13 UNL     1      -2.539   3.795  24.377  1.00  0.00    -0.011 C 
HETATM   15  C14 UNL     1      -2.754   4.143  25.646  1.00  0.00     0.053 C 
HETATM   16 CL1  UNL     1      -2.992   2.942  26.890  1.00  0.00    -0.085 Cl
HETATM   17  C15 UNL     1      -2.775   5.600  25.927  1.00  0.00     0.092 C 
HETATM   18  C16 UNL     1      -1.342   6.069  26.046  1.00  0.00     0.052 C 
HETATM   19  C17 UNL     1      -3.429   5.842  27.295  1.00  0.00     0.052 C 
HETATM   20  O2  UNL     1      -3.496   6.297  24.998  1.00  0.00    -0.375 OA
HETATM   21  C18 UNL     1      -3.144   6.121  23.695  1.00  0.00     0.174 C 
HETATM   22  C19 UNL     1      -2.336   4.885  23.395  1.00  0.00     0.068 C 
ENDBRANCH   5  14
BRANCH   1  23
HETATM   23  C5  UNL     1      -3.957   0.535  21.281  1.00  0.00     0.078 C 
HETATM   24  C4  UNL     1      -4.528   1.751  20.667  1.00  0.00     0.014 C 
HETATM   25  C3  UNL     1      -3.646   2.362  19.618  1.00  0.00     0.005 C 
HETATM   26  C2  UNL     1      -3.267   1.277  18.640  1.00  0.00    -0.019 C 
HETATM   27  C1  UNL     1      -4.556   0.722  18.070  1.00  0.00     0.010 C 
HETATM   28  C21 UNL     1      -2.476   0.174  19.276  1.00  0.00     0.005 C 
HETATM   29  C20 UNL     1      -2.642   0.075  20.760  1.00  0.00     0.014 C 
ENDBRANCH   1  23
TORSDOF 5
ENDMDL
MODEL 4
REMARK VINA RESULT: -7.745561488      0.812      1.214
REMARK  5 active torsions:
REMARK  status: ('A' for Active; 'I' for Inactive)
REMARK    1  A    between atoms: C5_5  and  C6_6 
REMARK       I    between atoms: C6_6  and  N1_8 
REMARK    2  A    between atoms: C7_10  and  C8_11 
REMARK    3  A    between atoms: C7_10  and  C13_19 
REMARK    4  A    between atoms: C8_11  and  N2_12 
REMARK    5  A    between atoms: N2_12  and  C9_15 
ROOT
HETATM    1  C6  UNL     1      -3.749   0.157  22.517  1.00  0.00     0.226 C 
HETATM    2  O1  UNL     1      -3.724  -1.018  22.957  1.00  0.00    -0.273 OA
HETATM    3  N1  UNL     1      -3.572   1.223  23.378  1.00  0.00    -0.328 N 
ATOM      4  H1  UNL     1      -4.402   1.811  23.442  1.00  0.00     0.168 HD
HETATM    5  C7  UNL     1      -2.645   1.635  24.091  1.00  0.00     0.045 C 
ENDROOT
BRANCH   5   6
HETATM    6  C8  UNL     1      -1.301   1.082  24.281  1.00  0.00     0.290 C 
BRANCH   6   7
HETATM    7  N2  UNL     1      -1.208  -0.198  24.906  1.00  0.00    -0.062 N 
ATOM      8  H22 UNL     1      -1.188  -0.154  25.925  1.00  0.00     0.278 HD
ATOM      9  H21 UNL     1      -2.059  -0.754  24.824  1.00  0.00     0.278 HD
BRANCH   7  10
HETATM   10  C9  UNL     1      -0.023  -0.848  24.321  1.00  0.00     0.115 C 
HETATM   11  C10 UNL     1       0.302  -2.147  25.010  1.00  0.00     0.045 C 
HETATM   12  C11 UNL     1       1.183   0.066  24.442  1.00  0.00     0.045 C 
HETATM   13  C12 UNL     1      -0.273  -1.122  22.846  1.00  0.00     0.045 C 
ENDBRANCH   7  10
ENDBRANCH   6   7
ENDBRANCH   5   6
BRANCH   5  14
HETATM   14  C13 UNL     1      -2.935   2.873  24.864  1.00  0.00    -0.011 C 
HETATM   15  C14 UNL     1      -2.991   4.049  24.238  1.00  0.00     0.053 C 
HETATM   16 CL1  UNL     1      -2.733   4.176  22.516  1.00  0.00    -0.085 Cl
HETATM   17  C15 UNL     1      -3.285   5.227  25.091  1.00  0.00     0.092 C 
HETATM   18  C16 UNL     1      -4.781   5.278  25.310  1.00  0.00     0.052 C 
HETATM   19  C17 UNL     1      -2.911   6.508  24.332  1.00  0.00     0.052 C 
HETATM   20  O2  UNL     1      -2.569   5.216  26.256  1.00  0.00    -0.375 OA
HETATM   21  C18 UNL     1      -2.672   4.098  27.025  1.00  0.00     0.174 C 
HETATM   22  C19 UNL     1      -3.179   2.864  26.325  1.00  0.00     0.068 C 
ENDBRANCH   5  14
BRANCH   1  23
HETATM   23  C5  UNL     1      -3.981   0.325  21.038  1.00  0.00     0.078 C 
HETATM   24  C4  UNL     1      -4.681   1.605  20.806  1.00  0.00     0.014 C 
HETATM   25  C3  UNL     1      -3.934   2.540  19.903  1.00  0.00     0.005 C 
HETATM   26  C2  UNL     1      -3.567   1.783  18.650  1.00  0.00    -0.019 C 
HETATM   27  C1  UNL     1      -4.860   1.286  18.036  1.00  0.00     0.010 C 
HETATM   28  C21 UNL     1      -2.654   0.625  18.918  1.00  0.00     0.005 C 
HETATM   29  C20 UNL     1      -2.687   0.131  20.330  1.00  0.00     0.014 C 
ENDBRANCH   1  23
TORSDOF 5
ENDMDL
MODEL 5
REMARK VINA RESULT: -7.728314773      1.355      1.808
REMARK  5 active torsions:
REMARK  status: ('A' for Active; 'I' for Inactive)
REMARK    1  A    between atoms: C5_5  and  C6_6 
REMARK       I    between atoms: C6_6  and  N1_8 
REMARK    2  A    between atoms: C7_10  and  C8_11 
REMARK    3  A    between atoms: C7_10  and  C13_19 
REMARK    4  A    between atoms: C8_11  and  N2_12 
REMARK    5  A    between atoms: N2_12  and  C9_15 
ROOT
HETATM    1  C6  UNL     1      -3.639   0.885  22.926  1.00  0.00     0.226 C 
HETATM    2  O1  UNL     1      -4.139  -0.242  23.160  1.00  0.00    -0.273 OA
HETATM    3  N1  UNL     1      -3.287   1.716  23.971  1.00  0.00    -0.328 N 
ATOM      4  H1  UNL     1      -3.840   2.572  23.990  1.00  0.00     0.168 HD
HETATM    5  C7  UNL     1      -2.458   1.670  24.893  1.00  0.00     0.045 C 
ENDROOT
BRANCH   5   6
HETATM    6  C8  UNL     1      -1.483   0.625  25.217  1.00  0.00     0.290 C 
BRANCH   6   7
HETATM    7  N2  UNL     1      -0.142   0.829  24.775  1.00  0.00    -0.062 N 
ATOM      8  H22 UNL     1      -0.043   1.605  24.119  1.00  0.00     0.278 HD
ATOM      9  H21 UNL     1       0.473   1.201  25.499  1.00  0.00     0.278 HD
BRANCH   7  10
HETATM   10  C9  UNL     1       0.305  -0.463  24.230  1.00  0.00     0.115 C 
HETATM   11  C10 UNL     1      -0.500  -0.873  23.024  1.00  0.00     0.045 C 
HETATM   12  C11 UNL     1       0.165  -1.548  25.282  1.00  0.00     0.045 C 
HETATM   13  C12 UNL     1       1.770  -0.365  23.832  1.00  0.00     0.045 C 
ENDBRANCH   7  10
ENDBRANCH   6   7
ENDBRANCH   5   6
BRANCH   5  14
HETATM   14  C13 UNL     1      -2.446   2.849  25.801  1.00  0.00    -0.011 C 
HETATM   15  C14 UNL     1      -2.296   4.075  25.298  1.00  0.00     0.053 C 
HETATM   16 CL1  UNL     1      -2.111   4.336  23.582  1.00  0.00    -0.085 Cl
HETATM   17  C15 UNL     1      -2.296   5.187  26.280  1.00  0.00     0.092 C 
HETATM   18  C16 UNL     1      -3.735   5.507  26.616  1.00  0.00     0.052 C 
HETATM   19  C17 UNL     1      -1.710   6.444  25.622  1.00  0.00     0.052 C 
HETATM   20  O2  UNL     1      -1.534   4.907  27.381  1.00  0.00    -0.375 OA
HETATM   21  C18 UNL     1      -1.822   3.754  28.044  1.00  0.00     0.174 C 
HETATM   22  C19 UNL     1      -2.608   2.729  27.269  1.00  0.00     0.068 C 
ENDBRANCH   5  14
BRANCH   1  23
HETATM   23  C5  UNL     1      -3.457   1.262  21.479  1.00  0.00     0.078 C 
HETATM   24  C4  UNL     1      -4.330   0.405  20.650  1.00  0.00     0.014 C 
HETATM   25  C3  UNL     1      -5.309   1.178  19.816  1.00  0.00     0.005 C 
HETATM   26  C2  UNL     1      -4.541   2.228  19.051  1.00  0.00    -0.019 C 
HETATM   27  C1  UNL     1      -3.506   1.502  18.216  1.00  0.00     0.010 C 
HETATM   28  C21 UNL     1      -3.864   3.221  19.949  1.00  0.00     0.005 C 
HETATM   29  C20 UNL     1      -3.638   2.732  21.345  1.00  0.00     0.014 C 
ENDBRANCH   1  23
TORSDOF 5
ENDMDL
