MODEL 1
REMARK VINA RESULT: -7.987371454      0.000      0.000
REMARK  5 active torsions:
REMARK  status: ('A' for Active; 'I' for Inactive)
REMARK    1  A    between atoms: C2_2  and  C3_4 
REMARK    2  A    between atoms: C4_5  and  C5_6 
REMARK    3  A    between atoms: C5_6  and  C6_7 
REMARK    4  A    between atoms: C6_7  and  C7_8 
REMARK    5  A    between atoms: C13_14  and  O2_15 
ROOT
HETATM    1  C5  UNL     1      -3.698   2.044  19.200  1.00  0.00     0.047 C 
HETATM    2  C11 UNL     1      -3.032   0.724  19.513  1.00  0.00     0.025 C 
HETATM    3  C12 UNL     1      -3.647  -0.072  20.588  1.00  0.00     0.044 C 
HETATM    4  C13 UNL     1      -3.178   0.202  21.970  1.00  0.00     0.083 C 
HETATM    5  C14 UNL     1      -4.103  -0.412  23.001  1.00  0.00     0.043 C 
HETATM    6  C15 UNL     1      -3.598   0.236  24.279  1.00  0.00     0.008 C 
HETATM    7  C16 UNL     1      -2.965   1.553  23.858  1.00  0.00     0.039 C 
HETATM    8  C17 UNL     1      -3.178   1.600  22.395  1.00  0.00    -0.025 C 
HETATM    9  C18 UNL     1      -3.321   2.738  21.754  1.00  0.00     0.063 C 
HETATM   10 BR1  UNL     1      -3.241   4.350  22.805  1.00  0.00    -0.047 Br
HETATM   11  C19 UNL     1      -3.538   2.988  20.334  1.00  0.00     0.179 C 
HETATM   12  O3  UNL     1      -3.604   4.206  19.978  1.00  0.00    -0.291 OA
ENDROOT
BRANCH   1  13
HETATM   13  C4  UNL     1      -3.003   2.548  17.980  1.00  0.00    -0.005 C 
HETATM   14  C3  UNL     1      -1.816   2.152  17.607  1.00  0.00     0.047 C 
BRANCH  14  15
HETATM   15  C2  UNL     1      -1.216   2.697  16.406  1.00  0.00     0.145 C 
HETATM   16  C1  UNL     1      -2.078   3.382  15.418  1.00  0.00     0.096 C 
HETATM   17  O1  UNL     1       0.013   2.619  16.153  1.00  0.00    -0.294 OA
ENDBRANCH  14  15
ENDBRANCH   1  13
BRANCH   1  18
HETATM   18  C6  UNL     1      -5.153   1.837  18.846  1.00  0.00     0.049 C 
BRANCH  18  19
HETATM   19  C7  UNL     1      -5.373   0.801  17.810  1.00  0.00    -0.023 C 
HETATM   20  C8  UNL     1      -5.551   1.054  16.525  1.00  0.00    -0.091 C 
HETATM   21  C9  UNL     1      -5.539   2.447  16.017  1.00  0.00     0.042 C 
HETATM   22  C10 UNL     1      -5.766  -0.047  15.553  1.00  0.00     0.042 C 
ENDBRANCH  18  19
ENDBRANCH   1  18
BRANCH   4  23
HETATM   23  O2  UNL     1      -1.899  -0.347  22.196  1.00  0.00    -0.385 OA
ATOM     24  H2  UNL     1      -1.477   0.056  22.945  1.00  0.00     0.211 HD
ENDBRANCH   4  23
TORSDOF 5
ENDMDL
MODEL 2
REMARK VINA RESULT: -7.610072752      4.836      6.673
REMARK  5 active torsions:
REMARK  status: ('A' for Active; 'I' for Inactive)
REMARK    1  A    between atoms: C2_2  and  C3_4 
REMARK    2  A    between atoms: C4_5  and  C5_6 
REMARK    3  A    between atoms: C5_6  and  C6_7 
REMARK    4  A    between atoms: C6_7  and  C7_8 
REMARK    5  A    between atoms: C13_14  and  O2_15 
ROOT
HETATM    1  C5  UNL     1      -2.755   4.326  23.929  1.00  0.00     0.047 C 
HETATM    2  C11 UNL     1      -3.081   3.145  23.044  1.00  0.00     0.025 C 
HETATM    3  C12 UNL     1      -3.538   1.927  23.733  1.00  0.00     0.044 C 
HETATM    4  C13 UNL     1      -2.485   0.979  24.178  1.00  0.00     0.083 C 
HETATM    5  C14 UNL     1      -3.034  -0.040  25.156  1.00  0.00     0.043 C 
HETATM    6  C15 UNL     1      -1.755  -0.677  25.671  1.00  0.00     0.008 C 
HETATM    7  C16 UNL     1      -0.668   0.373  25.506  1.00  0.00     0.039 C 
HETATM    8  C17 UNL     1      -1.383   1.544  24.954  1.00  0.00    -0.025 C 
HETATM    9  C18 UNL     1      -0.990   2.773  25.201  1.00  0.00     0.063 C 
HETATM   10 BR1  UNL     1       0.565   2.986  26.316  1.00  0.00    -0.047 Br
HETATM   11  C19 UNL     1      -1.556   4.040  24.755  1.00  0.00     0.179 C 
HETATM   12  O3  UNL     1      -0.943   5.092  25.118  1.00  0.00    -0.291 OA
ENDROOT
BRANCH   1  13
HETATM   13  C4  UNL     1      -2.501   5.456  22.988  1.00  0.00    -0.005 C 
HETATM   14  C3  UNL     1      -3.267   5.735  21.968  1.00  0.00     0.047 C 
BRANCH  14  15
HETATM   15  C2  UNL     1      -2.943   6.854  21.105  1.00  0.00     0.145 C 
HETATM   16  C1  UNL     1      -2.305   8.052  21.690  1.00  0.00     0.096 C 
HETATM   17  O1  UNL     1      -3.177   6.860  19.870  1.00  0.00    -0.294 OA
ENDBRANCH  14  15
ENDBRANCH   1  13
BRANCH   1  18
HETATM   18  C6  UNL     1      -3.947   4.699  24.782  1.00  0.00     0.049 C 
BRANCH  18  19
HETATM   19  C7  UNL     1      -3.661   4.711  26.235  1.00  0.00    -0.023 C 
HETATM   20  C8  UNL     1      -3.594   5.803  26.975  1.00  0.00    -0.091 C 
HETATM   21  C9  UNL     1      -3.811   7.141  26.375  1.00  0.00     0.042 C 
HETATM   22  C10 UNL     1      -3.301   5.723  28.428  1.00  0.00     0.042 C 
ENDBRANCH  18  19
ENDBRANCH   1  18
BRANCH   4  23
HETATM   23  O2  UNL     1      -1.957   0.253  23.091  1.00  0.00    -0.385 OA
ATOM     24  H2  UNL     1      -1.009   0.210  23.132  1.00  0.00     0.211 HD
ENDBRANCH   4  23
TORSDOF 5
ENDMDL
MODEL 3
REMARK VINA RESULT: -7.446140667      7.281      9.686
REMARK  5 active torsions:
REMARK  status: ('A' for Active; 'I' for Inactive)
REMARK    1  A    between atoms: C2_2  and  C3_4 
REMARK    2  A    between atoms: C4_5  and  C5_6 
REMARK    3  A    between atoms: C5_6  and  C6_7 
REMARK    4  A    between atoms: C6_7  and  C7_8 
REMARK    5  A    between atoms: C13_14  and  O2_15 
ROOT
HETATM    1  C5  UNL     1      -1.234   9.296  23.413  1.00  0.00     0.047 C 
HETATM    2  C11 UNL     1      -1.848   8.627  24.622  1.00  0.00     0.025 C 
HETATM    3  C12 UNL     1      -1.551   7.195  24.789  1.00  0.00     0.044 C 
HETATM    4  C13 UNL     1      -2.469   6.243  24.115  1.00  0.00     0.083 C 
HETATM    5  C14 UNL     1      -1.882   4.846  24.068  1.00  0.00     0.043 C 
HETATM    6  C15 UNL     1      -2.833   4.156  23.105  1.00  0.00     0.008 C 
HETATM    7  C16 UNL     1      -3.407   5.254  22.224  1.00  0.00     0.039 C 
HETATM    8  C17 UNL     1      -2.731   6.482  22.697  1.00  0.00    -0.025 C 
HETATM    9  C18 UNL     1      -2.487   7.490  21.891  1.00  0.00     0.063 C 
HETATM   10 BR1  UNL     1      -3.048   7.302  20.059  1.00  0.00    -0.047 Br
HETATM   11  C19 UNL     1      -1.840   8.767  22.166  1.00  0.00     0.179 C 
HETATM   12  O3  UNL     1      -1.768   9.585  21.196  1.00  0.00    -0.291 OA
ENDROOT
BRANCH   1  13
HETATM   13  C4  UNL     1      -1.533  10.748  23.581  1.00  0.00    -0.005 C 
HETATM   14  C3  UNL     1      -2.242  11.232  24.565  1.00  0.00     0.047 C 
BRANCH  14  15
HETATM   15  C2  UNL     1      -2.482  12.659  24.649  1.00  0.00     0.145 C 
HETATM   16  C1  UNL     1      -1.612  13.486  25.513  1.00  0.00     0.096 C 
HETATM   17  O1  UNL     1      -3.402  13.241  24.019  1.00  0.00    -0.294 OA
ENDBRANCH  14  15
ENDBRANCH   1  13
BRANCH   1  18
HETATM   18  C6  UNL     1       0.269   9.133  23.419  1.00  0.00     0.049 C 
BRANCH  18  19
HETATM   19  C7  UNL     1       0.988  10.209  22.699  1.00  0.00    -0.023 C 
HETATM   20  C8  UNL     1       2.233  10.117  22.265  1.00  0.00    -0.091 C 
HETATM   21  C9  UNL     1       3.022   8.879  22.480  1.00  0.00     0.042 C 
HETATM   22  C10 UNL     1       2.879  11.247  21.552  1.00  0.00     0.042 C 
ENDBRANCH  18  19
ENDBRANCH   1  18
BRANCH   4  23
HETATM   23  O2  UNL     1      -3.698   6.143  24.799  1.00  0.00    -0.385 OA
ATOM     24  H2  UNL     1      -3.567   6.096  25.739  1.00  0.00     0.211 HD
ENDBRANCH   4  23
TORSDOF 5
ENDMDL
MODEL 4
REMARK VINA RESULT: -7.381450061      8.500     11.308
REMARK  5 active torsions:
REMARK  status: ('A' for Active; 'I' for Inactive)
REMARK    1  A    between atoms: C2_2  and  C3_4 
REMARK    2  A    between atoms: C4_5  and  C5_6 
REMARK    3  A    between atoms: C5_6  and  C6_7 
REMARK    4  A    between atoms: C6_7  and  C7_8 
REMARK    5  A    between atoms: C13_14  and  O2_15 
ROOT
HETATM    1  C5  UNL     1      -3.657  10.580  17.078  1.00  0.00     0.047 C 
HETATM    2  C11 UNL     1      -5.121  10.233  16.930  1.00  0.00     0.025 C 
HETATM    3  C12 UNL     1      -5.742  10.590  15.644  1.00  0.00     0.044 C 
HETATM    4  C13 UNL     1      -6.318  11.955  15.539  1.00  0.00     0.083 C 
HETATM    5  C14 UNL     1      -6.611  12.323  14.098  1.00  0.00     0.043 C 
HETATM    6  C15 UNL     1      -6.894  13.810  14.223  1.00  0.00     0.008 C 
HETATM    7  C16 UNL     1      -6.142  14.278  15.458  1.00  0.00     0.039 C 
HETATM    8  C17 UNL     1      -5.449  13.061  15.937  1.00  0.00    -0.025 C 
HETATM    9  C18 UNL     1      -4.300  13.124  16.570  1.00  0.00     0.063 C 
HETATM   10 BR1  UNL     1      -3.551  14.876  16.851  1.00  0.00    -0.047 Br
HETATM   11  C19 UNL     1      -3.474  12.052  17.111  1.00  0.00     0.179 C 
HETATM   12  O3  UNL     1      -2.414  12.405  17.717  1.00  0.00    -0.291 OA
ENDROOT
BRANCH   1  13
HETATM   13  C4  UNL     1      -3.242   9.959  18.370  1.00  0.00    -0.005 C 
HETATM   14  C3  UNL     1      -3.322   8.679  18.617  1.00  0.00     0.047 C 
BRANCH  14  15
HETATM   15  C2  UNL     1      -2.896   8.163  19.903  1.00  0.00     0.145 C 
HETATM   16  C1  UNL     1      -3.278   6.787  20.288  1.00  0.00     0.096 C 
HETATM   17  O1  UNL     1      -2.210   8.829  20.720  1.00  0.00    -0.294 OA
ENDBRANCH  14  15
ENDBRANCH   1  13
BRANCH   1  18
HETATM   18  C6  UNL     1      -2.843   9.938  15.978  1.00  0.00     0.049 C 
BRANCH  18  19
HETATM   19  C7  UNL     1      -2.299  10.904  14.997  1.00  0.00    -0.023 C 
HETATM   20  C8  UNL     1      -1.452  10.594  14.031  1.00  0.00    -0.091 C 
HETATM   21  C9  UNL     1      -0.973   9.201  13.861  1.00  0.00     0.042 C 
HETATM   22  C10 UNL     1      -0.956  11.629  13.089  1.00  0.00     0.042 C 
ENDBRANCH  18  19
ENDBRANCH   1  18
BRANCH   4  23
HETATM   23  O2  UNL     1      -7.537  12.053  16.239  1.00  0.00    -0.385 OA
ATOM     24  H2  UNL     1      -7.476  11.652  17.098  1.00  0.00     0.211 HD
ENDBRANCH   4  23
TORSDOF 5
ENDMDL
MODEL 5
REMARK VINA RESULT: -7.377650362      5.199      7.304
REMARK  5 active torsions:
REMARK  status: ('A' for Active; 'I' for Inactive)
REMARK    1  A    between atoms: C2_2  and  C3_4 
REMARK    2  A    between atoms: C4_5  and  C5_6 
REMARK    3  A    between atoms: C5_6  and  C6_7 
REMARK    4  A    between atoms: C6_7  and  C7_8 
REMARK    5  A    between atoms: C13_14  and  O2_15 
ROOT
HETATM    1  C5  UNL     1      -2.206   5.531  24.519  1.00  0.00     0.047 C 
HETATM    2  C11 UNL     1      -0.716   5.772  24.604  1.00  0.00     0.025 C 
HETATM    3  C12 UNL     1      -0.021   5.131  25.732  1.00  0.00     0.044 C 
HETATM    4  C13 UNL     1       0.041   5.902  27.000  1.00  0.00     0.083 C 
HETATM    5  C14 UNL     1       0.463   5.025  28.161  1.00  0.00     0.043 C 
HETATM    6  C15 UNL     1       0.169   5.933  29.343  1.00  0.00     0.008 C 
HETATM    7  C16 UNL     1      -0.929   6.878  28.881  1.00  0.00     0.039 C 
HETATM    8  C17 UNL     1      -1.224   6.436  27.501  1.00  0.00    -0.025 C 
HETATM    9  C18 UNL     1      -2.422   6.564  26.975  1.00  0.00     0.063 C 
HETATM   10 BR1  UNL     1      -3.783   7.354  28.084  1.00  0.00    -0.047 Br
HETATM   11  C19 UNL     1      -2.903   6.192  25.650  1.00  0.00     0.179 C 
HETATM   12  O3  UNL     1      -4.116   6.467  25.391  1.00  0.00    -0.291 OA
ENDROOT
BRANCH   1  13
HETATM   13  C4  UNL     1      -2.619   6.126  23.214  1.00  0.00    -0.005 C 
HETATM   14  C3  UNL     1      -2.062   7.184  22.691  1.00  0.00     0.047 C 
BRANCH  14  15
HETATM   15  C2  UNL     1      -2.529   7.692  21.416  1.00  0.00     0.145 C 
HETATM   16  C1  UNL     1      -3.377   6.830  20.565  1.00  0.00     0.096 C 
HETATM   17  O1  UNL     1      -2.250   8.841  20.989  1.00  0.00    -0.294 OA
ENDBRANCH  14  15
ENDBRANCH   1  13
BRANCH   1  18
HETATM   18  C6  UNL     1      -2.505   4.051  24.464  1.00  0.00     0.049 C 
BRANCH  18  19
HETATM   19  C7  UNL     1      -2.882   3.567  23.116  1.00  0.00    -0.023 C 
HETATM   20  C8  UNL     1      -3.236   2.325  22.838  1.00  0.00    -0.091 C 
HETATM   21  C9  UNL     1      -3.281   1.293  23.902  1.00  0.00     0.042 C 
HETATM   22  C10 UNL     1      -3.598   1.926  21.455  1.00  0.00     0.042 C 
ENDBRANCH  18  19
ENDBRANCH   1  18
BRANCH   4  23
HETATM   23  O2  UNL     1       0.982   6.948  26.919  1.00  0.00    -0.385 OA
ATOM     24  H2  UNL     1       0.852   7.585  27.611  1.00  0.00     0.211 HD
ENDBRANCH   4  23
TORSDOF 5
ENDMDL
