MODEL 1
REMARK VINA RESULT: -9.758886878      0.000      0.000
REMARK  5 active torsions:
REMARK  status: ('A' for Active; 'I' for Inactive)
REMARK    1  A    between atoms: C4_4  and  N1_5 
REMARK       I    between atoms: N1_5  and  C5_7 
REMARK    2  A    between atoms: C5_7  and  C6_9 
REMARK    3  A    between atoms: C6_9  and  O2_10 
REMARK    4  A    between atoms: O2_10  and  C7_11 
REMARK    5  A    between atoms: C7_11  and  C8_13 
ROOT
HETATM    1  C6  UNL     1      -0.912   3.977  14.264  1.00  0.00     0.281 C 
ENDROOT
BRANCH   1   2
HETATM    2  C5  UNL     1      -1.393   3.224  15.492  1.00  0.00     0.246 C 
HETATM    3  N1  UNL     1      -2.784   3.185  15.663  1.00  0.00    -0.325 N 
ATOM      4  H1  UNL     1      -3.364   3.655  14.968  1.00  0.00     0.169 HD
HETATM    5  O1  UNL     1      -0.509   2.739  16.189  1.00  0.00    -0.271 OA
BRANCH   3   6
HETATM    6  C4  UNL     1      -3.432   2.535  16.741  1.00  0.00     0.041 A 
HETATM    7  C3  UNL     1      -3.180   2.739  18.071  1.00  0.00     0.038 A 
HETATM    8  C2  UNL     1      -3.833   2.087  19.119  1.00  0.00    -0.038 A 
HETATM    9  C1  UNL     1      -3.480   2.385  20.530  1.00  0.00     0.050 C 
HETATM   10  C21 UNL     1      -4.801   1.171  18.774  1.00  0.00     0.040 A 
HETATM   11  C20 UNL     1      -5.084   0.939  17.442  1.00  0.00     0.033 A 
HETATM   12 CL1  UNL     1      -5.676   0.302  20.027  1.00  0.00    -0.084 Cl
HETATM   13  C18 UNL     1      -4.433   1.588  16.452  1.00  0.00    -0.034 A 
HETATM   14  C19 UNL     1      -4.743   1.332  15.001  1.00  0.00     0.050 C 
ENDBRANCH   3   6
ENDBRANCH   1   2
BRANCH   1  15
HETATM   15  O2  UNL     1       0.139   3.275  13.687  1.00  0.00    -0.311 OA
BRANCH  15  16
HETATM   16  C7  UNL     1       0.607   3.461  12.404  1.00  0.00     0.268 C 
HETATM   17  O3  UNL     1      -0.174   3.835  11.509  1.00  0.00    -0.264 OA
BRANCH  16  18
HETATM   18  C8  UNL     1       2.026   3.217  12.105  1.00  0.00     0.049 C 
HETATM   19  C9  UNL     1       2.712   2.411  13.195  1.00  0.00     0.024 C 
HETATM   20  C10 UNL     1       4.147   2.221  12.786  1.00  0.00    -0.013 C 
HETATM   21  C11 UNL     1       4.881   3.532  12.604  1.00  0.00     0.009 C 
HETATM   22  C15 UNL     1       4.264   1.457  11.493  1.00  0.00     0.009 C 
HETATM   23  C12 UNL     1       4.169   4.336  11.540  1.00  0.00    -0.013 C 
HETATM   24  C13 UNL     1       4.135   3.615  10.214  1.00  0.00     0.009 C 
HETATM   25  C17 UNL     1       2.744   4.522  11.993  1.00  0.00     0.024 C 
HETATM   26  C14 UNL     1       3.557   2.240  10.413  1.00  0.00    -0.013 C 
HETATM   27  C16 UNL     1       2.111   2.395  10.833  1.00  0.00     0.024 C 
ENDBRANCH  16  18
ENDBRANCH  15  16
ENDBRANCH   1  15
TORSDOF 5
ENDMDL
MODEL 2
REMARK VINA RESULT: -9.329101425      8.013     11.219
REMARK  5 active torsions:
REMARK  status: ('A' for Active; 'I' for Inactive)
REMARK    1  A    between atoms: C4_4  and  N1_5 
REMARK       I    between atoms: N1_5  and  C5_7 
REMARK    2  A    between atoms: C5_7  and  C6_9 
REMARK    3  A    between atoms: C6_9  and  O2_10 
REMARK    4  A    between atoms: O2_10  and  C7_11 
REMARK    5  A    between atoms: C7_11  and  C8_13 
ROOT
HETATM    1  C6  UNL     1      -1.020  11.490  13.799  1.00  0.00     0.281 C 
ENDROOT
BRANCH   1   2
HETATM    2  C5  UNL     1      -0.797  10.143  13.132  1.00  0.00     0.246 C 
HETATM    3  N1  UNL     1       0.058   9.271  13.819  1.00  0.00    -0.325 N 
ATOM      4  H1  UNL     1       0.463   9.592  14.698  1.00  0.00     0.169 HD
HETATM    5  O1  UNL     1      -1.391   9.978  12.073  1.00  0.00    -0.271 OA
BRANCH   3   6
HETATM    6  C4  UNL     1       0.395   7.972  13.367  1.00  0.00     0.041 A 
HETATM    7  C3  UNL     1      -0.293   6.822  13.645  1.00  0.00     0.038 A 
HETATM    8  C2  UNL     1       0.056   5.549  13.189  1.00  0.00    -0.038 A 
HETATM    9  C1  UNL     1      -0.763   4.365  13.552  1.00  0.00     0.050 C 
HETATM   10  C21 UNL     1       1.180   5.459  12.400  1.00  0.00     0.040 A 
HETATM   11  C20 UNL     1       1.901   6.598  12.097  1.00  0.00     0.033 A 
HETATM   12 CL1  UNL     1       1.697   3.897  11.779  1.00  0.00    -0.084 Cl
HETATM   13  C18 UNL     1       1.534   7.815  12.556  1.00  0.00    -0.034 A 
HETATM   14  C19 UNL     1       2.321   9.055  12.224  1.00  0.00     0.050 C 
ENDBRANCH   3   6
ENDBRANCH   1   2
BRANCH   1  15
HETATM   15  O2  UNL     1      -2.385  11.746  13.855  1.00  0.00    -0.311 OA
BRANCH  15  16
HETATM   16  C7  UNL     1      -3.177  11.582  14.971  1.00  0.00     0.268 C 
HETATM   17  O3  UNL     1      -2.752  10.923  15.939  1.00  0.00    -0.264 OA
BRANCH  16  18
HETATM   18  C8  UNL     1      -4.516  12.185  15.008  1.00  0.00     0.049 C 
HETATM   19  C9  UNL     1      -5.462  11.545  14.006  1.00  0.00     0.024 C 
HETATM   20  C10 UNL     1      -6.793  12.234  14.131  1.00  0.00    -0.013 C 
HETATM   21  C11 UNL     1      -6.710  13.720  13.852  1.00  0.00     0.009 C 
HETATM   22  C15 UNL     1      -7.383  12.069  15.507  1.00  0.00     0.009 C 
HETATM   23  C12 UNL     1      -5.742  14.339  14.834  1.00  0.00    -0.013 C 
HETATM   24  C13 UNL     1      -6.183  14.142  16.264  1.00  0.00     0.009 C 
HETATM   25  C17 UNL     1      -4.419  13.637  14.666  1.00  0.00     0.024 C 
HETATM   26  C14 UNL     1      -6.431  12.678  16.508  1.00  0.00    -0.013 C 
HETATM   27  C16 UNL     1      -5.110  11.950  16.383  1.00  0.00     0.024 C 
ENDBRANCH  16  18
ENDBRANCH  15  16
ENDBRANCH   1  15
TORSDOF 5
ENDMDL
MODEL 3
REMARK VINA RESULT: -9.211918322      8.699     11.031
REMARK  5 active torsions:
REMARK  status: ('A' for Active; 'I' for Inactive)
REMARK    1  A    between atoms: C4_4  and  N1_5 
REMARK       I    between atoms: N1_5  and  C5_7 
REMARK    2  A    between atoms: C5_7  and  C6_9 
REMARK    3  A    between atoms: C6_9  and  O2_10 
REMARK    4  A    between atoms: O2_10  and  C7_11 
REMARK    5  A    between atoms: C7_11  and  C8_13 
ROOT
HETATM    1  C6  UNL     1      -3.918   1.131  21.737  1.00  0.00     0.281 C 
ENDROOT
BRANCH   1   2
HETATM    2  C5  UNL     1      -3.602   2.565  21.344  1.00  0.00     0.246 C 
HETATM    3  N1  UNL     1      -3.296   3.422  22.410  1.00  0.00    -0.325 N 
ATOM      4  H1  UNL     1      -3.307   3.035  23.354  1.00  0.00     0.169 HD
HETATM    5  O1  UNL     1      -3.652   2.802  20.143  1.00  0.00    -0.271 OA
BRANCH   3   6
HETATM    6  C4  UNL     1      -2.973   4.792  22.257  1.00  0.00     0.041 A 
HETATM    7  C3  UNL     1      -3.235   5.561  21.155  1.00  0.00     0.038 A 
HETATM    8  C2  UNL     1      -2.908   6.913  21.025  1.00  0.00    -0.038 A 
HETATM    9  C1  UNL     1      -3.239   7.654  19.782  1.00  0.00     0.050 C 
HETATM   10  C21 UNL     1      -2.275   7.504  22.095  1.00  0.00     0.040 A 
HETATM   11  C20 UNL     1      -1.995   6.761  23.225  1.00  0.00     0.033 A 
HETATM   12 CL1  UNL     1      -1.826   9.203  22.021  1.00  0.00    -0.084 Cl
HETATM   13  C18 UNL     1      -2.325   5.454  23.317  1.00  0.00    -0.034 A 
HETATM   14  C19 UNL     1      -2.018   4.646  24.550  1.00  0.00     0.050 C 
ENDBRANCH   3   6
ENDBRANCH   1   2
BRANCH   1  15
HETATM   15  O2  UNL     1      -2.847   0.613  22.455  1.00  0.00    -0.311 OA
BRANCH  15  16
HETATM   16  C7  UNL     1      -2.714   0.664  23.826  1.00  0.00     0.268 C 
HETATM   17  O3  UNL     1      -3.629   1.148  24.518  1.00  0.00    -0.264 OA
BRANCH  16  18
HETATM   18  C8  UNL     1      -1.492   0.145  24.457  1.00  0.00     0.049 C 
HETATM   19  C9  UNL     1      -1.796  -0.781  25.623  1.00  0.00     0.024 C 
HETATM   20  C10 UNL     1      -0.483  -1.249  26.187  1.00  0.00    -0.013 C 
HETATM   21  C11 UNL     1       0.383  -0.108  26.676  1.00  0.00     0.009 C 
HETATM   22  C15 UNL     1       0.321  -2.020  25.172  1.00  0.00     0.009 C 
HETATM   23  C12 UNL     1       0.651   0.822  25.515  1.00  0.00    -0.013 C 
HETATM   24  C13 UNL     1       1.368   0.124  24.385  1.00  0.00     0.009 C 
HETATM   25  C17 UNL     1      -0.684   1.284  24.990  1.00  0.00     0.024 C 
HETATM   26  C14 UNL     1       0.599  -1.111  23.999  1.00  0.00    -0.013 C 
HETATM   27  C16 UNL     1      -0.735  -0.676  23.431  1.00  0.00     0.024 C 
ENDBRANCH  16  18
ENDBRANCH  15  16
ENDBRANCH   1  15
TORSDOF 5
ENDMDL
MODEL 4
REMARK VINA RESULT: -9.160286021      7.733      9.370
REMARK  5 active torsions:
REMARK  status: ('A' for Active; 'I' for Inactive)
REMARK    1  A    between atoms: C4_4  and  N1_5 
REMARK       I    between atoms: N1_5  and  C5_7 
REMARK    2  A    between atoms: C5_7  and  C6_9 
REMARK    3  A    between atoms: C6_9  and  O2_10 
REMARK    4  A    between atoms: O2_10  and  C7_11 
REMARK    5  A    between atoms: C7_11  and  C8_13 
ROOT
HETATM    1  C6  UNL     1      -3.206   8.714  19.129  1.00  0.00     0.281 C 
ENDROOT
BRANCH   1   2
HETATM    2  C5  UNL     1      -2.898   7.292  19.569  1.00  0.00     0.246 C 
HETATM    3  N1  UNL     1      -3.487   6.901  20.779  1.00  0.00    -0.325 N 
ATOM      4  H1  UNL     1      -4.069   7.581  21.270  1.00  0.00     0.169 HD
HETATM    5  O1  UNL     1      -2.171   6.656  18.815  1.00  0.00    -0.271 OA
BRANCH   3   6
HETATM    6  C4  UNL     1      -3.326   5.621  21.362  1.00  0.00     0.041 A 
HETATM    7  C3  UNL     1      -3.647   4.426  20.778  1.00  0.00     0.038 A 
HETATM    8  C2  UNL     1      -3.479   3.172  21.370  1.00  0.00    -0.038 A 
HETATM    9  C1  UNL     1      -3.862   1.935  20.645  1.00  0.00     0.050 C 
HETATM   10  C21 UNL     1      -2.948   3.153  22.641  1.00  0.00     0.040 A 
HETATM   11  C20 UNL     1      -2.610   4.339  23.263  1.00  0.00     0.033 A 
HETATM   12 CL1  UNL     1      -2.699   1.621  23.466  1.00  0.00    -0.084 Cl
HETATM   13  C18 UNL     1      -2.787   5.535  22.660  1.00  0.00    -0.034 A 
HETATM   14  C19 UNL     1      -2.418   6.826  23.341  1.00  0.00     0.050 C 
ENDBRANCH   3   6
ENDBRANCH   1   2
BRANCH   1  15
HETATM   15  O2  UNL     1      -3.601   8.697  17.796  1.00  0.00    -0.311 OA
BRANCH  15  16
HETATM   16  C7  UNL     1      -3.048   9.469  16.797  1.00  0.00     0.268 C 
HETATM   17  O3  UNL     1      -1.936   9.165  16.325  1.00  0.00    -0.264 OA
BRANCH  16  18
HETATM   18  C8  UNL     1      -3.777  10.644  16.299  1.00  0.00     0.049 C 
HETATM   19  C9  UNL     1      -3.420  11.908  17.063  1.00  0.00     0.024 C 
HETATM   20  C10 UNL     1      -4.216  13.038  16.472  1.00  0.00    -0.013 C 
HETATM   21  C11 UNL     1      -5.710  12.811  16.564  1.00  0.00     0.009 C 
HETATM   22  C15 UNL     1      -3.885  13.259  15.020  1.00  0.00     0.009 C 
HETATM   23  C12 UNL     1      -6.047  11.534  15.828  1.00  0.00    -0.013 C 
HETATM   24  C13 UNL     1      -5.660  11.603  14.371  1.00  0.00     0.009 C 
HETATM   25  C17 UNL     1      -5.246  10.425  16.459  1.00  0.00     0.024 C 
HETATM   26  C14 UNL     1      -4.211  11.994  14.262  1.00  0.00    -0.013 C 
HETATM   27  C16 UNL     1      -3.377  10.878  14.855  1.00  0.00     0.024 C 
ENDBRANCH  16  18
ENDBRANCH  15  16
ENDBRANCH   1  15
TORSDOF 5
ENDMDL
MODEL 5
REMARK VINA RESULT: -9.129454202      8.467     11.028
REMARK  5 active torsions:
REMARK  status: ('A' for Active; 'I' for Inactive)
REMARK    1  A    between atoms: C4_4  and  N1_5 
REMARK       I    between atoms: N1_5  and  C5_7 
REMARK    2  A    between atoms: C5_7  and  C6_9 
REMARK    3  A    between atoms: C6_9  and  O2_10 
REMARK    4  A    between atoms: O2_10  and  C7_11 
REMARK    5  A    between atoms: C7_11  and  C8_13 
ROOT
HETATM    1  C6  UNL     1      -3.958   1.317  21.113  1.00  0.00     0.281 C 
ENDROOT
BRANCH   1   2
HETATM    2  C5  UNL     1      -3.640   2.772  20.811  1.00  0.00     0.246 C 
HETATM    3  N1  UNL     1      -3.349   3.565  21.930  1.00  0.00    -0.325 N 
ATOM      4  H1  UNL     1      -3.370   3.121  22.848  1.00  0.00     0.169 HD
HETATM    5  O1  UNL     1      -3.676   3.081  19.625  1.00  0.00    -0.271 OA
BRANCH   3   6
HETATM    6  C4  UNL     1      -3.028   4.942  21.863  1.00  0.00     0.041 A 
HETATM    7  C3  UNL     1      -3.245   5.767  20.793  1.00  0.00     0.038 A 
HETATM    8  C2  UNL     1      -2.920   7.124  20.748  1.00  0.00    -0.038 A 
HETATM    9  C1  UNL     1      -3.201   7.929  19.532  1.00  0.00     0.050 C 
HETATM   10  C21 UNL     1      -2.338   7.661  21.874  1.00  0.00     0.040 A 
HETATM   11  C20 UNL     1      -2.103   6.860  22.975  1.00  0.00     0.033 A 
HETATM   12 CL1  UNL     1      -1.895   9.362  21.910  1.00  0.00    -0.084 Cl
HETATM   13  C18 UNL     1      -2.429   5.549  22.984  1.00  0.00    -0.034 A 
HETATM   14  C19 UNL     1      -2.172   4.678  24.185  1.00  0.00     0.050 C 
ENDBRANCH   3   6
ENDBRANCH   1   2
BRANCH   1  15
HETATM   15  O2  UNL     1      -3.518   1.016  22.396  1.00  0.00    -0.311 OA
BRANCH  15  16
HETATM   16  C7  UNL     1      -2.918  -0.167  22.771  1.00  0.00     0.268 C 
HETATM   17  O3  UNL     1      -3.228  -1.227  22.195  1.00  0.00    -0.264 OA
BRANCH  16  18
HETATM   18  C8  UNL     1      -1.918  -0.166  23.848  1.00  0.00     0.049 C 
HETATM   19  C9  UNL     1      -0.592  -0.756  23.402  1.00  0.00     0.024 C 
HETATM   20  C10 UNL     1       0.349  -0.703  24.574  1.00  0.00    -0.013 C 
HETATM   21  C11 UNL     1      -0.161  -1.482  25.768  1.00  0.00     0.009 C 
HETATM   22  C15 UNL     1       0.594   0.710  25.032  1.00  0.00     0.009 C 
HETATM   23  C12 UNL     1      -1.496  -0.906  26.181  1.00  0.00    -0.013 C 
HETATM   24  C13 UNL     1      -1.388   0.550  26.567  1.00  0.00     0.009 C 
HETATM   25  C17 UNL     1      -2.414  -0.993  24.990  1.00  0.00     0.024 C 
HETATM   26  C14 UNL     1      -0.727   1.310  25.449  1.00  0.00    -0.013 C 
HETATM   27  C16 UNL     1      -1.646   1.271  24.247  1.00  0.00     0.024 C 
ENDBRANCH  16  18
ENDBRANCH  15  16
ENDBRANCH   1  15
TORSDOF 5
ENDMDL
