MODEL 1
REMARK VINA RESULT: -8.098852219      0.000      0.000
REMARK  6 active torsions:
REMARK  status: ('A' for Active; 'I' for Inactive)
REMARK    1  A    between atoms: C2_2  and  C3_3 
REMARK       I    between atoms: N1_7  and  C6_8 
REMARK    2  A    between atoms: C6_8  and  O2_10 
REMARK    3  A    between atoms: O2_10  and  C7_11 
REMARK    4  A    between atoms: C11_15  and  C12_16 
REMARK    5  A    between atoms: C12_16  and  C13_17 
REMARK       I    between atoms: C13_17  and  N2_19 
REMARK    6  A    between atoms: N2_19  and  C14_21 
ROOT
HETATM    1  C3  UNL     1      -3.153  -0.942  21.665  1.00  0.00     0.012 C 
HETATM    2  C4  UNL     1      -3.280  -2.018  22.711  1.00  0.00     0.048 C 
HETATM    3  C5  UNL     1      -2.799  -1.347  23.944  1.00  0.00     0.187 C 
HETATM    4 CL1  UNL     1      -3.973  -1.599  25.261  1.00  0.00    -0.102 Cl
HETATM    5  N1  UNL     1      -2.758   0.082  23.659  1.00  0.00    -0.305 N 
HETATM    6  C6  UNL     1      -2.033   0.999  24.444  1.00  0.00     0.365 C 
HETATM    7  O1  UNL     1      -2.036   2.215  24.144  1.00  0.00    -0.238 OA
HETATM    8  C11 UNL     1      -3.581   0.251  22.479  1.00  0.00     0.104 C 
ENDROOT
BRANCH   8   9
HETATM    9  C12 UNL     1      -3.503   1.569  21.858  1.00  0.00     0.128 C 
BRANCH   9  10
HETATM   10  C13 UNL     1      -4.185   1.611  20.547  1.00  0.00     0.219 C 
HETATM   11  O3  UNL     1      -5.398   1.343  20.361  1.00  0.00    -0.274 OA
HETATM   12  N2  UNL     1      -3.463   1.981  19.355  1.00  0.00    -0.356 N 
ATOM     13  H2  UNL     1      -2.473   2.209  19.445  1.00  0.00     0.162 HD
BRANCH  12  14
HETATM   14  C14 UNL     1      -4.056   2.046  18.047  1.00  0.00     0.084 C 
HETATM   15  C15 UNL     1      -2.998   2.394  17.026  1.00  0.00     0.025 C 
HETATM   16  C16 UNL     1      -3.585   2.627  15.672  1.00  0.00     0.002 C 
HETATM   17  C17 UNL     1      -4.934   1.972  15.487  1.00  0.00     0.000 C 
HETATM   18  C18 UNL     1      -4.971   0.628  16.196  1.00  0.00     0.002 C 
HETATM   19  C19 UNL     1      -4.758   0.762  17.669  1.00  0.00     0.025 C 
ENDBRANCH  12  14
ENDBRANCH   9  10
ENDBRANCH   8   9
BRANCH   1  20
HETATM   20  C2  UNL     1      -1.792  -0.805  21.082  1.00  0.00     0.002 C 
HETATM   21  C1  UNL     1      -1.632  -1.196  19.673  1.00  0.00     0.005 C 
ENDBRANCH   1  20
BRANCH   6  22
HETATM   22  O2  UNL     1      -1.292   0.638  25.557  1.00  0.00    -0.294 OA
BRANCH  22  23
HETATM   23  C7  UNL     1       0.093   0.467  25.558  1.00  0.00     0.061 C 
HETATM   24  C8  UNL     1       0.434  -0.497  26.687  1.00  0.00     0.046 C 
HETATM   25  C9  UNL     1       0.620  -0.105  24.260  1.00  0.00     0.046 C 
HETATM   26  C10 UNL     1       0.821   1.763  25.848  1.00  0.00     0.046 C 
ENDBRANCH  22  23
ENDBRANCH   6  22
TORSDOF 6
ENDMDL
MODEL 2
REMARK VINA RESULT: -7.668665184      1.970      3.266
REMARK  6 active torsions:
REMARK  status: ('A' for Active; 'I' for Inactive)
REMARK    1  A    between atoms: C2_2  and  C3_3 
REMARK       I    between atoms: N1_7  and  C6_8 
REMARK    2  A    between atoms: C6_8  and  O2_10 
REMARK    3  A    between atoms: O2_10  and  C7_11 
REMARK    4  A    between atoms: C11_15  and  C12_16 
REMARK    5  A    between atoms: C12_16  and  C13_17 
REMARK       I    between atoms: C13_17  and  N2_19 
REMARK    6  A    between atoms: N2_19  and  C14_21 
ROOT
HETATM    1  C3  UNL     1      -1.436  -1.206  23.548  1.00  0.00     0.012 C 
HETATM    2  C4  UNL     1      -2.474  -1.473  24.606  1.00  0.00     0.048 C 
HETATM    3  C5  UNL     1      -3.324  -0.257  24.557  1.00  0.00     0.187 C 
HETATM    4 CL1  UNL     1      -5.039  -0.728  24.454  1.00  0.00    -0.102 Cl
HETATM    5  N1  UNL     1      -2.986   0.446  23.326  1.00  0.00    -0.305 N 
HETATM    6  C6  UNL     1      -3.314   1.796  23.099  1.00  0.00     0.365 C 
HETATM    7  O1  UNL     1      -2.993   2.343  22.020  1.00  0.00    -0.238 OA
HETATM    8  C11 UNL     1      -2.299  -0.537  22.512  1.00  0.00     0.104 C 
ENDROOT
BRANCH   8   9
HETATM    9  C12 UNL     1      -1.650  -0.003  21.320  1.00  0.00     0.128 C 
BRANCH   9  10
HETATM   10  C13 UNL     1      -2.456  -0.219  20.100  1.00  0.00     0.219 C 
HETATM   11  O3  UNL     1      -2.456  -1.272  19.418  1.00  0.00    -0.274 OA
HETATM   12  N2  UNL     1      -3.328   0.818  19.603  1.00  0.00    -0.356 N 
ATOM     13  H2  UNL     1      -3.370   1.698  20.117  1.00  0.00     0.162 HD
BRANCH  12  14
HETATM   14  C14 UNL     1      -4.143   0.683  18.428  1.00  0.00     0.084 C 
HETATM   15  C15 UNL     1      -5.603   0.747  18.810  1.00  0.00     0.025 C 
HETATM   16  C16 UNL     1      -6.498   0.458  17.648  1.00  0.00     0.002 C 
HETATM   17  C17 UNL     1      -5.834   0.695  16.312  1.00  0.00     0.000 C 
HETATM   18  C18 UNL     1      -4.919   1.907  16.384  1.00  0.00     0.002 C 
HETATM   19  C19 UNL     1      -3.821   1.726  17.381  1.00  0.00     0.025 C 
ENDBRANCH  12  14
ENDBRANCH   9  10
ENDBRANCH   8   9
BRANCH   1  20
HETATM   20  C2  UNL     1      -0.294  -0.367  24.001  1.00  0.00     0.002 C 
HETATM   21  C1  UNL     1       0.978  -1.061  24.257  1.00  0.00     0.005 C 
ENDBRANCH   1  20
BRANCH   6  22
HETATM   22  O2  UNL     1      -3.987   2.585  24.017  1.00  0.00    -0.294 OA
BRANCH  22  23
HETATM   23  C7  UNL     1      -3.412   3.654  24.707  1.00  0.00     0.061 C 
HETATM   24  C8  UNL     1      -4.355   4.026  25.843  1.00  0.00     0.046 C 
HETATM   25  C9  UNL     1      -2.058   3.320  25.293  1.00  0.00     0.046 C 
HETATM   26  C10 UNL     1      -3.271   4.881  23.829  1.00  0.00     0.046 C 
ENDBRANCH  22  23
ENDBRANCH   6  22
TORSDOF 6
ENDMDL
MODEL 3
REMARK VINA RESULT: -7.563501095      0.498      1.059
REMARK  6 active torsions:
REMARK  status: ('A' for Active; 'I' for Inactive)
REMARK    1  A    between atoms: C2_2  and  C3_3 
REMARK       I    between atoms: N1_7  and  C6_8 
REMARK    2  A    between atoms: C6_8  and  O2_10 
REMARK    3  A    between atoms: O2_10  and  C7_11 
REMARK    4  A    between atoms: C11_15  and  C12_16 
REMARK    5  A    between atoms: C12_16  and  C13_17 
REMARK       I    between atoms: C13_17  and  N2_19 
REMARK    6  A    between atoms: N2_19  and  C14_21 
ROOT
HETATM    1  C3  UNL     1      -3.064  -1.165  21.949  1.00  0.00     0.012 C 
HETATM    2  C4  UNL     1      -3.142  -2.142  23.093  1.00  0.00     0.048 C 
HETATM    3  C5  UNL     1      -2.696  -1.333  24.255  1.00  0.00     0.187 C 
HETATM    4 CL1  UNL     1      -3.857  -1.515  25.594  1.00  0.00    -0.102 Cl
HETATM    5  N1  UNL     1      -2.722   0.062  23.835  1.00  0.00    -0.305 N 
HETATM    6  C6  UNL     1      -2.043   1.083  24.527  1.00  0.00     0.365 C 
HETATM    7  O1  UNL     1      -2.104   2.263  24.113  1.00  0.00    -0.238 OA
HETATM    8  C11 UNL     1      -3.550   0.078  22.646  1.00  0.00     0.104 C 
ENDROOT
BRANCH   8   9
HETATM    9  C12 UNL     1      -3.535   1.333  21.903  1.00  0.00     0.128 C 
BRANCH   9  10
HETATM   10  C13 UNL     1      -4.106   1.187  20.547  1.00  0.00     0.219 C 
HETATM   11  O3  UNL     1      -5.272   0.793  20.299  1.00  0.00    -0.274 OA
HETATM   12  N2  UNL     1      -3.319   1.505  19.381  1.00  0.00    -0.356 N 
ATOM     13  H2  UNL     1      -2.362   1.830  19.521  1.00  0.00     0.162 HD
BRANCH  12  14
HETATM   14  C14 UNL     1      -3.803   1.390  18.033  1.00  0.00     0.084 C 
HETATM   15  C15 UNL     1      -5.279   1.712  17.994  1.00  0.00     0.025 C 
HETATM   16  C16 UNL     1      -5.869   1.458  16.644  1.00  0.00     0.002 C 
HETATM   17  C17 UNL     1      -4.844   1.469  15.534  1.00  0.00     0.000 C 
HETATM   18  C18 UNL     1      -3.787   2.527  15.801  1.00  0.00     0.002 C 
HETATM   19  C19 UNL     1      -3.041   2.273  17.070  1.00  0.00     0.025 C 
ENDBRANCH  12  14
ENDBRANCH   9  10
ENDBRANCH   8   9
BRANCH   1  20
HETATM   20  C2  UNL     1      -1.710  -1.019  21.352  1.00  0.00     0.002 C 
HETATM   21  C1  UNL     1      -1.510  -1.602  20.015  1.00  0.00     0.005 C 
ENDBRANCH   1  20
BRANCH   6  22
HETATM   22  O2  UNL     1      -1.288   0.865  25.667  1.00  0.00    -0.294 OA
BRANCH  22  23
HETATM   23  C7  UNL     1       0.102   0.734  25.676  1.00  0.00     0.061 C 
HETATM   24  C8  UNL     1       0.472  -0.127  26.878  1.00  0.00     0.046 C 
HETATM   25  C9  UNL     1       0.643   0.075  24.426  1.00  0.00     0.046 C 
HETATM   26  C10 UNL     1       0.794   2.069  25.859  1.00  0.00     0.046 C 
ENDBRANCH  22  23
ENDBRANCH   6  22
TORSDOF 6
ENDMDL
MODEL 4
REMARK VINA RESULT: -7.563428978      1.002      1.051
REMARK  6 active torsions:
REMARK  status: ('A' for Active; 'I' for Inactive)
REMARK    1  A    between atoms: C2_2  and  C3_3 
REMARK       I    between atoms: N1_7  and  C6_8 
REMARK    2  A    between atoms: C6_8  and  O2_10 
REMARK    3  A    between atoms: O2_10  and  C7_11 
REMARK    4  A    between atoms: C11_15  and  C12_16 
REMARK    5  A    between atoms: C12_16  and  C13_17 
REMARK       I    between atoms: C13_17  and  N2_19 
REMARK    6  A    between atoms: N2_19  and  C14_21 
ROOT
HETATM    1  C3  UNL     1      -3.200  -0.424  21.586  1.00  0.00     0.012 C 
HETATM    2  C4  UNL     1      -3.528  -1.619  22.442  1.00  0.00     0.048 C 
HETATM    3  C5  UNL     1      -3.085  -1.194  23.794  1.00  0.00     0.187 C 
HETATM    4 CL1  UNL     1      -4.385  -1.495  24.974  1.00  0.00    -0.102 Cl
HETATM    5  N1  UNL     1      -2.869   0.246  23.736  1.00  0.00    -0.305 N 
HETATM    6  C6  UNL     1      -2.120   0.949  24.699  1.00  0.00     0.365 C 
HETATM    7  O1  UNL     1      -1.970   2.186  24.590  1.00  0.00    -0.238 OA
HETATM    8  C11 UNL     1      -3.567   0.680  22.542  1.00  0.00     0.104 C 
ENDROOT
BRANCH   8   9
HETATM    9  C12 UNL     1      -3.298   2.055  22.137  1.00  0.00     0.128 C 
BRANCH   9  10
HETATM   10  C13 UNL     1      -3.798   2.347  20.778  1.00  0.00     0.219 C 
HETATM   11  O3  UNL     1      -3.651   3.439  20.178  1.00  0.00    -0.274 OA
HETATM   12  N2  UNL     1      -4.516   1.344  20.029  1.00  0.00    -0.356 N 
ATOM     13  H2  UNL     1      -4.666   0.434  20.466  1.00  0.00     0.162 HD
BRANCH  12  14
HETATM   14  C14 UNL     1      -5.031   1.550  18.704  1.00  0.00     0.084 C 
HETATM   15  C15 UNL     1      -3.894   1.538  17.708  1.00  0.00     0.025 C 
HETATM   16  C16 UNL     1      -4.353   1.902  16.333  1.00  0.00     0.002 C 
HETATM   17  C17 UNL     1      -5.832   1.677  16.119  1.00  0.00     0.000 C 
HETATM   18  C18 UNL     1      -6.287   0.425  16.851  1.00  0.00     0.002 C 
HETATM   19  C19 UNL     1      -6.078   0.526  18.327  1.00  0.00     0.025 C 
ENDBRANCH  12  14
ENDBRANCH   9  10
ENDBRANCH   8   9
BRANCH   1  20
HETATM   20  C2  UNL     1      -1.787  -0.364  21.124  1.00  0.00     0.002 C 
HETATM   21  C1  UNL     1      -1.534  -0.723  19.720  1.00  0.00     0.005 C 
ENDBRANCH   1  20
BRANCH   6  22
HETATM   22  O2  UNL     1      -1.519   0.345  25.791  1.00  0.00    -0.294 OA
BRANCH  22  23
HETATM   23  C7  UNL     1      -0.196  -0.100  25.813  1.00  0.00     0.061 C 
HETATM   24  C8  UNL     1      -0.202  -1.525  26.351  1.00  0.00     0.046 C 
HETATM   25  C9  UNL     1       0.451  -0.103  24.445  1.00  0.00     0.046 C 
HETATM   26  C10 UNL     1       0.661   0.723  26.753  1.00  0.00     0.046 C 
ENDBRANCH  22  23
ENDBRANCH   6  22
TORSDOF 6
ENDMDL
MODEL 5
REMARK VINA RESULT: -7.431492031     12.104     14.117
REMARK  6 active torsions:
REMARK  status: ('A' for Active; 'I' for Inactive)
REMARK    1  A    between atoms: C2_2  and  C3_3 
REMARK       I    between atoms: N1_7  and  C6_8 
REMARK    2  A    between atoms: C6_8  and  O2_10 
REMARK    3  A    between atoms: O2_10  and  C7_11 
REMARK    4  A    between atoms: C11_15  and  C12_16 
REMARK    5  A    between atoms: C12_16  and  C13_17 
REMARK       I    between atoms: C13_17  and  N2_19 
REMARK    6  A    between atoms: N2_19  and  C14_21 
ROOT
HETATM    1  C3  UNL     1      -5.323  12.820  14.206  1.00  0.00     0.012 C 
HETATM    2  C4  UNL     1      -5.468  14.318  14.272  1.00  0.00     0.048 C 
HETATM    3  C5  UNL     1      -4.918  14.649  15.611  1.00  0.00     0.187 C 
HETATM    4 CL1  UNL     1      -3.733  15.970  15.462  1.00  0.00    -0.102 Cl
HETATM    5  N1  UNL     1      -4.205  13.468  16.079  1.00  0.00    -0.305 N 
HETATM    6  C6  UNL     1      -3.855  13.268  17.428  1.00  0.00     0.365 C 
HETATM    7  O1  UNL     1      -3.244  12.230  17.767  1.00  0.00    -0.238 OA
HETATM    8  C11 UNL     1      -3.992  12.665  14.891  1.00  0.00     0.104 C 
ENDROOT
BRANCH   8   9
HETATM    9  C12 UNL     1      -3.501  11.314  15.141  1.00  0.00     0.128 C 
BRANCH   9  10
HETATM   10  C13 UNL     1      -2.236  11.038  14.430  1.00  0.00     0.219 C 
HETATM   11  O3  UNL     1      -1.391  11.907  14.104  1.00  0.00    -0.274 OA
HETATM   12  N2  UNL     1      -1.884   9.690  14.054  1.00  0.00    -0.356 N 
ATOM     13  H2  UNL     1      -2.533   8.940  14.293  1.00  0.00     0.162 HD
BRANCH  12  14
HETATM   14  C14 UNL     1      -0.673   9.342  13.363  1.00  0.00     0.084 C 
HETATM   15  C15 UNL     1      -0.299   7.913  13.682  1.00  0.00     0.025 C 
HETATM   16  C16 UNL     1       1.034   7.546  13.114  1.00  0.00     0.002 C 
HETATM   17  C17 UNL     1       1.450   8.422  11.956  1.00  0.00     0.000 C 
HETATM   18  C18 UNL     1       0.245   8.778  11.102  1.00  0.00     0.002 C 
HETATM   19  C19 UNL     1      -0.785   9.542  11.869  1.00  0.00     0.025 C 
ENDBRANCH  12  14
ENDBRANCH   9  10
ENDBRANCH   8   9
BRANCH   1  20
HETATM   20  C2  UNL     1      -6.421  12.063  14.864  1.00  0.00     0.002 C 
HETATM   21  C1  UNL     1      -7.796  12.495  14.564  1.00  0.00     0.005 C 
ENDBRANCH   1  20
BRANCH   6  22
HETATM   22  O2  UNL     1      -4.152  14.169  18.438  1.00  0.00    -0.294 OA
BRANCH  22  23
HETATM   23  C7  UNL     1      -3.197  14.910  19.135  1.00  0.00     0.061 C 
HETATM   24  C8  UNL     1      -1.898  14.845  18.341  1.00  0.00     0.046 C 
HETATM   25  C9  UNL     1      -3.584  16.362  19.309  1.00  0.00     0.046 C 
HETATM   26  C10 UNL     1      -2.909  14.317  20.500  1.00  0.00     0.046 C 
ENDBRANCH  22  23
ENDBRANCH   6  22
TORSDOF 6
ENDMDL
