MODEL 1
REMARK VINA RESULT: -7.337433194      0.000      0.000
REMARK  7 active torsions:
REMARK  status: ('A' for Active; 'I' for Inactive)
REMARK    1  A    between atoms: N1_2  and  S1_4 
REMARK    2  A    between atoms: S1_4  and  N2_6 
REMARK    3  A    between atoms: S1_4  and  N3_14 
REMARK    4  A    between atoms: N2_6  and  C2_8 
REMARK    5  A    between atoms: C2_8  and  C3_9 
REMARK    6  A    between atoms: N3_14  and  C7_16 
REMARK    7  A    between atoms: C11_20  and  C12_21 
ROOT
HETATM    1  S1  UNL     1      64.077  52.541  18.426  1.00  0.00     0.196 S 
HETATM    2  O1  UNL     1      63.725  51.180  17.844  1.00  0.00    -0.206 OA
ENDROOT
BRANCH   1   3
HETATM    3  N1  UNL     1      63.884  52.346  19.975  1.00  0.00    -0.324 N 
HETATM    4  C1  UNL     1      63.232  51.154  20.402  1.00  0.00     0.159 C 
ATOM      5  H1  UNL     1      64.212  53.043  20.643  1.00  0.00     0.171 HD
ENDBRANCH   1   3
BRANCH   1   6
HETATM    6  N2  UNL     1      62.955  53.720  17.837  1.00  0.00    -0.317 N 
ATOM      7  H2  UNL     1      63.133  54.721  17.747  1.00  0.00     0.172 HD
BRANCH   6   8
HETATM    8  C2  UNL     1      61.702  53.035  17.490  1.00  0.00     0.164 C 
BRANCH   8   9
HETATM    9  C3  UNL     1      60.740  53.304  18.557  1.00  0.00     0.140 C 
HETATM   10  C4  UNL     1      59.504  54.096  18.255  1.00  0.00     0.035 C 
HETATM   11  C5  UNL     1      58.903  54.097  19.687  1.00  0.00     0.029 C 
HETATM   12  C6  UNL     1      60.139  53.845  20.521  1.00  0.00     0.168 C 
HETATM   13  O2  UNL     1      61.221  54.110  19.626  1.00  0.00    -0.384 OA
ENDBRANCH   8   9
ENDBRANCH   6   8
ENDBRANCH   1   6
BRANCH   1  14
HETATM   14  N3  UNL     1      65.682  52.982  18.159  1.00  0.00    -0.264 N 
ATOM     15  H3  UNL     1      65.877  53.567  17.347  1.00  0.00     0.180 HD
BRANCH  14  16
HETATM   16  C7  UNL     1      66.794  52.603  18.980  1.00  0.00     0.157 A 
HETATM   17  C8  UNL     1      67.486  51.431  18.910  1.00  0.00     0.066 A 
HETATM   18  C9  UNL     1      68.491  51.474  19.887  1.00  0.00    -0.027 A 
HETATM   19  C10 UNL     1      69.492  50.428  20.126  1.00  0.00     0.051 C 
HETATM   20  C11 UNL     1      68.352  52.693  20.512  1.00  0.00     0.069 A 
HETATM   21  O3  UNL     1      67.345  53.308  19.937  1.00  0.00    -0.296 OA
BRANCH  20  22
HETATM   22  C12 UNL     1      69.175  53.243  21.652  1.00  0.00    -0.001 C 
HETATM   23  C13 UNL     1      68.482  54.569  22.031  1.00  0.00     0.021 C 
HETATM   24  C14 UNL     1      68.963  52.295  22.824  1.00  0.00     0.021 C 
HETATM   25  C15 UNL     1      70.588  53.494  21.310  1.00  0.00     0.021 C 
ENDBRANCH  20  22
ENDBRANCH  14  16
ENDBRANCH   1  14
TORSDOF 7
ENDMDL
MODEL 2
REMARK VINA RESULT: -7.096248807      0.911      1.938
REMARK  7 active torsions:
REMARK  status: ('A' for Active; 'I' for Inactive)
REMARK    1  A    between atoms: N1_2  and  S1_4 
REMARK    2  A    between atoms: S1_4  and  N2_6 
REMARK    3  A    between atoms: S1_4  and  N3_14 
REMARK    4  A    between atoms: N2_6  and  C2_8 
REMARK    5  A    between atoms: C2_8  and  C3_9 
REMARK    6  A    between atoms: N3_14  and  C7_16 
REMARK    7  A    between atoms: C11_20  and  C12_21 
ROOT
HETATM    1  S1  UNL     1      63.889  52.225  18.342  1.00  0.00     0.196 S 
HETATM    2  O1  UNL     1      63.367  51.519  17.101  1.00  0.00    -0.206 OA
ENDROOT
BRANCH   1   3
HETATM    3  N1  UNL     1      63.807  51.123  19.462  1.00  0.00    -0.324 N 
HETATM    4  C1  UNL     1      63.152  51.480  20.675  1.00  0.00     0.159 C 
ATOM      5  H1  UNL     1      64.205  50.194  19.324  1.00  0.00     0.171 HD
ENDBRANCH   1   3
BRANCH   1   6
HETATM    6  N2  UNL     1      62.837  53.542  18.735  1.00  0.00    -0.317 N 
ATOM      7  H2  UNL     1      63.049  54.305  19.379  1.00  0.00     0.172 HD
BRANCH   6   8
HETATM    8  C2  UNL     1      61.585  53.374  17.984  1.00  0.00     0.164 C 
BRANCH   8   9
HETATM    9  C3  UNL     1      60.479  53.514  18.929  1.00  0.00     0.140 C 
HETATM   10  C4  UNL     1      59.302  54.370  18.568  1.00  0.00     0.035 C 
HETATM   11  C5  UNL     1      58.500  54.186  19.884  1.00  0.00     0.029 C 
HETATM   12  C6  UNL     1      59.600  53.791  20.843  1.00  0.00     0.168 C 
HETATM   13  O2  UNL     1      60.802  54.152  20.159  1.00  0.00    -0.384 OA
ENDBRANCH   8   9
ENDBRANCH   6   8
ENDBRANCH   1   6
BRANCH   1  14
HETATM   14  N3  UNL     1      65.501  52.701  18.207  1.00  0.00    -0.264 N 
ATOM     15  H3  UNL     1      65.844  52.929  17.275  1.00  0.00     0.180 HD
BRANCH  14  16
HETATM   16  C7  UNL     1      66.428  52.810  19.295  1.00  0.00     0.157 A 
HETATM   17  C8  UNL     1      66.336  53.668  20.351  1.00  0.00     0.066 A 
HETATM   18  C9  UNL     1      67.445  53.442  21.178  1.00  0.00    -0.027 A 
HETATM   19  C10 UNL     1      67.714  54.125  22.447  1.00  0.00     0.051 C 
HETATM   20  C11 UNL     1      68.167  52.439  20.568  1.00  0.00     0.069 A 
HETATM   21  O3  UNL     1      67.521  52.111  19.473  1.00  0.00    -0.296 OA
BRANCH  20  22
HETATM   22  C12 UNL     1      69.463  51.823  21.036  1.00  0.00    -0.001 C 
HETATM   23  C13 UNL     1      69.744  50.690  20.025  1.00  0.00     0.021 C 
HETATM   24  C14 UNL     1      70.538  52.878  20.813  1.00  0.00     0.021 C 
HETATM   25  C15 UNL     1      69.411  51.275  22.404  1.00  0.00     0.021 C 
ENDBRANCH  20  22
ENDBRANCH  14  16
ENDBRANCH   1  14
TORSDOF 7
ENDMDL
MODEL 3
REMARK VINA RESULT: -7.092024237      2.257      7.557
REMARK  7 active torsions:
REMARK  status: ('A' for Active; 'I' for Inactive)
REMARK    1  A    between atoms: N1_2  and  S1_4 
REMARK    2  A    between atoms: S1_4  and  N2_6 
REMARK    3  A    between atoms: S1_4  and  N3_14 
REMARK    4  A    between atoms: N2_6  and  C2_8 
REMARK    5  A    between atoms: C2_8  and  C3_9 
REMARK    6  A    between atoms: N3_14  and  C7_16 
REMARK    7  A    between atoms: C11_20  and  C12_21 
ROOT
HETATM    1  S1  UNL     1      64.150  52.592  17.621  1.00  0.00     0.196 S 
HETATM    2  O1  UNL     1      63.264  52.662  16.386  1.00  0.00    -0.206 OA
ENDROOT
BRANCH   1   3
HETATM    3  N1  UNL     1      65.454  53.360  17.190  1.00  0.00    -0.324 N 
HETATM    4  C1  UNL     1      65.535  53.787  15.834  1.00  0.00     0.159 C 
ATOM      5  H1  UNL     1      66.207  53.543  17.853  1.00  0.00     0.171 HD
ENDBRANCH   1   3
BRANCH   1   6
HETATM    6  N2  UNL     1      64.528  50.937  17.960  1.00  0.00    -0.317 N 
ATOM      7  H2  UNL     1      64.520  50.172  17.284  1.00  0.00     0.172 HD
BRANCH   6   8
HETATM    8  C2  UNL     1      64.861  50.821  19.386  1.00  0.00     0.164 C 
BRANCH   8   9
HETATM    9  C3  UNL     1      66.268  50.437  19.482  1.00  0.00     0.140 C 
HETATM   10  C4  UNL     1      66.903  50.289  20.832  1.00  0.00     0.035 C 
HETATM   11  C5  UNL     1      68.332  49.920  20.350  1.00  0.00     0.029 C 
HETATM   12  C6  UNL     1      68.324  50.493  18.951  1.00  0.00     0.168 C 
HETATM   13  O2  UNL     1      67.196  51.370  18.942  1.00  0.00    -0.384 OA
ENDBRANCH   8   9
ENDBRANCH   6   8
ENDBRANCH   1   6
BRANCH   1  14
HETATM   14  N3  UNL     1      63.498  53.394  18.953  1.00  0.00    -0.264 N 
ATOM     15  H3  UNL     1      64.147  53.892  19.562  1.00  0.00     0.180 HD
BRANCH  14  16
HETATM   16  C7  UNL     1      62.108  53.435  19.298  1.00  0.00     0.157 A 
HETATM   17  C8  UNL     1      61.142  54.165  18.672  1.00  0.00     0.066 A 
HETATM   18  C9  UNL     1      59.928  53.911  19.327  1.00  0.00    -0.027 A 
HETATM   19  C10 UNL     1      58.624  54.466  18.948  1.00  0.00     0.051 C 
HETATM   20  C11 UNL     1      60.227  53.024  20.337  1.00  0.00     0.069 A 
HETATM   21  O3  UNL     1      61.516  52.783  20.267  1.00  0.00    -0.296 OA
BRANCH  20  22
HETATM   22  C12 UNL     1      59.281  52.433  21.354  1.00  0.00    -0.001 C 
HETATM   23  C13 UNL     1      60.151  51.460  22.178  1.00  0.00     0.021 C 
HETATM   24  C14 UNL     1      58.901  53.572  22.290  1.00  0.00     0.021 C 
HETATM   25  C15 UNL     1      58.137  51.711  20.765  1.00  0.00     0.021 C 
ENDBRANCH  20  22
ENDBRANCH  14  16
ENDBRANCH   1  14
TORSDOF 7
ENDMDL
MODEL 4
REMARK VINA RESULT: -6.827622571      2.218      7.661
REMARK  7 active torsions:
REMARK  status: ('A' for Active; 'I' for Inactive)
REMARK    1  A    between atoms: N1_2  and  S1_4 
REMARK    2  A    between atoms: S1_4  and  N2_6 
REMARK    3  A    between atoms: S1_4  and  N3_14 
REMARK    4  A    between atoms: N2_6  and  C2_8 
REMARK    5  A    between atoms: C2_8  and  C3_9 
REMARK    6  A    between atoms: N3_14  and  C7_16 
REMARK    7  A    between atoms: C11_20  and  C12_21 
ROOT
HETATM    1  S1  UNL     1      64.112  52.571  17.622  1.00  0.00     0.196 S 
HETATM    2  O1  UNL     1      63.292  52.553  16.341  1.00  0.00    -0.206 OA
ENDROOT
BRANCH   1   3
HETATM    3  N1  UNL     1      65.391  53.400  17.235  1.00  0.00    -0.324 N 
HETATM    4  C1  UNL     1      65.515  53.804  15.875  1.00  0.00     0.159 C 
ATOM      5  H1  UNL     1      66.100  53.639  17.928  1.00  0.00     0.171 HD
ENDBRANCH   1   3
BRANCH   1   6
HETATM    6  N2  UNL     1      64.564  50.951  18.033  1.00  0.00    -0.317 N 
ATOM      7  H2  UNL     1      64.550  50.149  17.402  1.00  0.00     0.172 HD
BRANCH   6   8
HETATM    8  C2  UNL     1      64.971  50.929  19.444  1.00  0.00     0.164 C 
BRANCH   8   9
HETATM    9  C3  UNL     1      66.375  50.523  19.494  1.00  0.00     0.140 C 
HETATM   10  C4  UNL     1      67.044  50.338  20.822  1.00  0.00     0.035 C 
HETATM   11  C5  UNL     1      68.454  49.960  20.293  1.00  0.00     0.029 C 
HETATM   12  C6  UNL     1      68.415  50.561  18.906  1.00  0.00     0.168 C 
HETATM   13  O2  UNL     1      67.301  51.453  18.946  1.00  0.00    -0.384 OA
ENDBRANCH   8   9
ENDBRANCH   6   8
ENDBRANCH   1   6
BRANCH   1  14
HETATM   14  N3  UNL     1      63.344  53.372  18.891  1.00  0.00    -0.264 N 
ATOM     15  H3  UNL     1      63.826  54.174  19.297  1.00  0.00     0.180 HD
BRANCH  14  16
HETATM   16  C7  UNL     1      62.070  53.019  19.445  1.00  0.00     0.157 A 
HETATM   17  C8  UNL     1      61.787  51.899  20.168  1.00  0.00     0.066 A 
HETATM   18  C9  UNL     1      60.429  51.951  20.516  1.00  0.00    -0.027 A 
HETATM   19  C10 UNL     1      59.720  50.959  21.331  1.00  0.00     0.051 C 
HETATM   20  C11 UNL     1      59.951  53.124  19.975  1.00  0.00     0.069 A 
HETATM   21  O3  UNL     1      60.957  53.704  19.363  1.00  0.00    -0.296 OA
BRANCH  20  22
HETATM   22  C12 UNL     1      58.542  53.661  20.042  1.00  0.00    -0.001 C 
HETATM   23  C13 UNL     1      58.444  54.330  21.430  1.00  0.00     0.021 C 
HETATM   24  C14 UNL     1      58.467  54.784  19.016  1.00  0.00     0.021 C 
HETATM   25  C15 UNL     1      57.496  52.630  19.905  1.00  0.00     0.021 C 
ENDBRANCH  20  22
ENDBRANCH  14  16
ENDBRANCH   1  14
TORSDOF 7
ENDMDL
MODEL 5
REMARK VINA RESULT: -6.740360732      2.093      3.606
REMARK  7 active torsions:
REMARK  status: ('A' for Active; 'I' for Inactive)
REMARK    1  A    between atoms: N1_2  and  S1_4 
REMARK    2  A    between atoms: S1_4  and  N2_6 
REMARK    3  A    between atoms: S1_4  and  N3_14 
REMARK    4  A    between atoms: N2_6  and  C2_8 
REMARK    5  A    between atoms: C2_8  and  C3_9 
REMARK    6  A    between atoms: N3_14  and  C7_16 
REMARK    7  A    between atoms: C11_20  and  C12_21 
ROOT
HETATM    1  S1  UNL     1      66.686  52.474  18.991  1.00  0.00     0.196 S 
HETATM    2  O1  UNL     1      66.810  53.457  17.836  1.00  0.00    -0.206 OA
ENDROOT
BRANCH   1   3
HETATM    3  N1  UNL     1      68.116  51.826  19.084  1.00  0.00    -0.324 N 
HETATM    4  C1  UNL     1      68.195  50.409  18.962  1.00  0.00     0.159 C 
ATOM      5  H1  UNL     1      68.950  52.395  19.227  1.00  0.00     0.171 HD
ENDBRANCH   1   3
BRANCH   1   6
HETATM    6  N2  UNL     1      65.517  51.263  18.586  1.00  0.00    -0.317 N 
ATOM      7  H2  UNL     1      65.567  50.626  17.791  1.00  0.00     0.172 HD
BRANCH   6   8
HETATM    8  C2  UNL     1      64.440  51.307  19.585  1.00  0.00     0.164 C 
BRANCH   8   9
HETATM    9  C3  UNL     1      63.319  52.037  18.995  1.00  0.00     0.140 C 
HETATM   10  C4  UNL     1      63.286  52.270  17.515  1.00  0.00     0.035 C 
HETATM   11  C5  UNL     1      61.961  53.077  17.461  1.00  0.00     0.029 C 
HETATM   12  C6  UNL     1      61.875  53.590  18.881  1.00  0.00     0.168 C 
HETATM   13  O2  UNL     1      63.192  53.395  19.400  1.00  0.00    -0.384 OA
ENDBRANCH   8   9
ENDBRANCH   6   8
ENDBRANCH   1   6
BRANCH   1  14
HETATM   14  N3  UNL     1      66.363  53.220  20.467  1.00  0.00    -0.264 N 
ATOM     15  H3  UNL     1      65.505  53.767  20.537  1.00  0.00     0.180 HD
BRANCH  14  16
HETATM   16  C7  UNL     1      67.194  53.149  21.633  1.00  0.00     0.157 A 
HETATM   17  C8  UNL     1      66.818  53.439  22.911  1.00  0.00     0.066 A 
HETATM   18  C9  UNL     1      67.934  53.236  23.736  1.00  0.00    -0.027 A 
HETATM   19  C10 UNL     1      67.954  53.395  25.194  1.00  0.00     0.051 C 
HETATM   20  C11 UNL     1      68.948  52.827  22.899  1.00  0.00     0.069 A 
HETATM   21  O3  UNL     1      68.453  52.795  21.683  1.00  0.00    -0.296 OA
BRANCH  20  22
HETATM   22  C12 UNL     1      70.371  52.487  23.273  1.00  0.00    -0.001 C 
HETATM   23  C13 UNL     1      71.007  51.971  21.964  1.00  0.00     0.021 C 
HETATM   24  C14 UNL     1      71.053  53.810  23.593  1.00  0.00     0.021 C 
HETATM   25  C15 UNL     1      70.488  51.463  24.328  1.00  0.00     0.021 C 
ENDBRANCH  20  22
ENDBRANCH  14  16
ENDBRANCH   1  14
TORSDOF 7
ENDMDL
