MODEL 1
REMARK VINA RESULT: -7.002246509      0.000      0.000
REMARK  5 active torsions:
REMARK  status: ('A' for Active; 'I' for Inactive)
REMARK    1  A    between atoms: C2_2  and  C3_3 
REMARK    2  A    between atoms: C3_3  and  N1_4 
REMARK       I    between atoms: N1_4  and  C4_6 
REMARK    3  A    between atoms: C4_6  and  C5_8 
REMARK    4  A    between atoms: C5_8  and  N2_9 
REMARK    5  A    between atoms: C8_14  and  C9_15 
ROOT
HETATM    1  N2  UNL     1      68.293  53.827  22.417  1.00  0.00    -0.265 N 
HETATM    2  C6  UNL     1      68.114  53.324  23.724  1.00  0.00     0.294 C 
HETATM    3  O2  UNL     1      68.962  53.160  24.587  1.00  0.00    -0.259 OA
HETATM    4  S1  UNL     1      66.371  52.960  23.890  1.00  0.00    -0.023 SA
HETATM    5  C7  UNL     1      66.167  52.736  22.086  1.00  0.00     0.079 C 
HETATM    6  C8  UNL     1      65.194  52.037  21.588  1.00  0.00     0.038 C 
HETATM    7  C15 UNL     1      67.243  53.509  21.542  1.00  0.00     0.268 C 
HETATM    8  O3  UNL     1      67.238  53.892  20.319  1.00  0.00    -0.266 OA
ENDROOT
BRANCH   6   9
HETATM    9  C9  UNL     1      64.910  51.766  20.187  1.00  0.00    -0.011 A 
HETATM   10  C10 UNL     1      63.899  52.465  19.521  1.00  0.00     0.038 A 
HETATM   11  C11 UNL     1      63.861  51.943  18.249  1.00  0.00     0.006 A 
HETATM   12  C12 UNL     1      62.956  52.345  17.141  1.00  0.00     0.068 C 
HETATM   13  N3  UNL     1      64.786  50.984  18.132  1.00  0.00    -0.363 N 
HETATM   14  C13 UNL     1      65.439  50.859  19.303  1.00  0.00     0.015 A 
ATOM     15  H3  UNL     1      64.968  50.436  17.291  1.00  0.00     0.165 HD
HETATM   16  C14 UNL     1      66.520  49.879  19.612  1.00  0.00     0.069 C 
ENDBRANCH   6   9
BRANCH   1  17
HETATM   17  C5  UNL     1      69.468  54.593  22.047  1.00  0.00     0.238 C 
BRANCH  17  18
HETATM   18  C4  UNL     1      70.621  53.726  21.710  1.00  0.00     0.236 C 
HETATM   19  N1  UNL     1      71.372  53.109  22.740  1.00  0.00    -0.360 N 
ATOM     20  H1  UNL     1      71.122  53.260  23.717  1.00  0.00     0.162 HD
HETATM   21  O1  UNL     1      70.954  53.521  20.521  1.00  0.00    -0.272 OA
BRANCH  19  22
HETATM   22  C3  UNL     1      72.489  52.267  22.400  1.00  0.00     0.122 C 
BRANCH  22  23
HETATM   23  C2  UNL     1      72.362  50.863  22.901  1.00  0.00     0.015 C 
HETATM   24  C1  UNL     1      71.625  50.071  21.823  1.00  0.00     0.006 C 
ENDBRANCH  22  23
ENDBRANCH  19  22
ENDBRANCH  17  18
ENDBRANCH   1  17
TORSDOF 5
ENDMDL
MODEL 2
REMARK VINA RESULT: -6.708645703      2.757      7.692
REMARK  5 active torsions:
REMARK  status: ('A' for Active; 'I' for Inactive)
REMARK    1  A    between atoms: C2_2  and  C3_3 
REMARK    2  A    between atoms: C3_3  and  N1_4 
REMARK       I    between atoms: N1_4  and  C4_6 
REMARK    3  A    between atoms: C4_6  and  C5_8 
REMARK    4  A    between atoms: C5_8  and  N2_9 
REMARK    5  A    between atoms: C8_14  and  C9_15 
ROOT
HETATM    1  N2  UNL     1      65.224  51.662  19.114  1.00  0.00    -0.265 N 
HETATM    2  C6  UNL     1      64.933  50.369  19.603  1.00  0.00     0.294 C 
HETATM    3  O2  UNL     1      63.844  49.820  19.668  1.00  0.00    -0.259 OA
HETATM    4  S1  UNL     1      66.491  49.664  20.124  1.00  0.00    -0.023 SA
HETATM    5  C7  UNL     1      67.232  51.313  20.405  1.00  0.00     0.079 C 
HETATM    6  C8  UNL     1      68.241  51.484  21.203  1.00  0.00     0.038 C 
HETATM    7  C15 UNL     1      66.461  52.162  19.547  1.00  0.00     0.268 C 
HETATM    8  O3  UNL     1      66.888  53.318  19.194  1.00  0.00    -0.266 OA
ENDROOT
BRANCH   6   9
HETATM    9  C9  UNL     1      68.925  52.726  21.530  1.00  0.00    -0.011 A 
HETATM   10  C10 UNL     1      70.263  52.913  21.171  1.00  0.00     0.038 A 
HETATM   11  C11 UNL     1      70.611  54.150  21.662  1.00  0.00     0.006 A 
HETATM   12  C12 UNL     1      71.931  54.822  21.546  1.00  0.00     0.068 C 
HETATM   13  N3  UNL     1      69.560  54.695  22.284  1.00  0.00    -0.363 N 
HETATM   14  C13 UNL     1      68.519  53.842  22.215  1.00  0.00     0.015 A 
ATOM     15  H3  UNL     1      69.548  55.609  22.737  1.00  0.00     0.165 HD
HETATM   16  C14 UNL     1      67.169  54.047  22.815  1.00  0.00     0.069 C 
ENDBRANCH   6   9
BRANCH   1  17
HETATM   17  C5  UNL     1      64.305  52.377  18.251  1.00  0.00     0.238 C 
BRANCH  17  18
HETATM   18  C4  UNL     1      63.201  53.013  19.008  1.00  0.00     0.236 C 
HETATM   19  N1  UNL     1      62.239  53.803  18.334  1.00  0.00    -0.360 N 
ATOM     20  H1  UNL     1      62.303  53.939  17.325  1.00  0.00     0.162 HD
HETATM   21  O1  UNL     1      63.096  52.867  20.247  1.00  0.00    -0.272 OA
BRANCH  19  22
HETATM   22  C3  UNL     1      61.170  54.414  19.081  1.00  0.00     0.122 C 
BRANCH  22  23
HETATM   23  C2  UNL     1      59.897  53.629  19.065  1.00  0.00     0.015 C 
HETATM   24  C1  UNL     1      58.776  54.606  18.715  1.00  0.00     0.006 C 
ENDBRANCH  22  23
ENDBRANCH  19  22
ENDBRANCH  17  18
ENDBRANCH   1  17
TORSDOF 5
ENDMDL
MODEL 3
REMARK VINA RESULT: -6.624153724      3.788      8.381
REMARK  5 active torsions:
REMARK  status: ('A' for Active; 'I' for Inactive)
REMARK    1  A    between atoms: C2_2  and  C3_3 
REMARK    2  A    between atoms: C3_3  and  N1_4 
REMARK       I    between atoms: N1_4  and  C4_6 
REMARK    3  A    between atoms: C4_6  and  C5_8 
REMARK    4  A    between atoms: C5_8  and  N2_9 
REMARK    5  A    between atoms: C8_14  and  C9_15 
ROOT
HETATM    1  N2  UNL     1      63.271  52.430  18.619  1.00  0.00    -0.265 N 
HETATM    2  C6  UNL     1      63.448  52.497  17.219  1.00  0.00     0.294 C 
HETATM    3  O2  UNL     1      62.698  52.084  16.349  1.00  0.00    -0.259 OA
HETATM    4  S1  UNL     1      65.012  53.320  16.948  1.00  0.00    -0.023 SA
HETATM    5  C7  UNL     1      65.654  52.808  18.582  1.00  0.00     0.079 C 
HETATM    6  C8  UNL     1      66.926  52.741  18.829  1.00  0.00     0.038 C 
HETATM    7  C15 UNL     1      64.459  52.600  19.345  1.00  0.00     0.268 C 
HETATM    8  O3  UNL     1      64.482  52.575  20.627  1.00  0.00    -0.266 OA
ENDROOT
BRANCH   6   9
HETATM    9  C9  UNL     1      67.579  52.346  20.068  1.00  0.00    -0.011 A 
HETATM   10  C10 UNL     1      67.842  53.293  21.062  1.00  0.00     0.038 A 
HETATM   11  C11 UNL     1      68.498  52.611  22.061  1.00  0.00     0.006 A 
HETATM   12  C12 UNL     1      68.998  53.164  23.346  1.00  0.00     0.068 C 
HETATM   13  N3  UNL     1      68.634  51.327  21.711  1.00  0.00    -0.363 N 
HETATM   14  C13 UNL     1      68.080  51.143  20.497  1.00  0.00     0.015 A 
ATOM     15  H3  UNL     1      69.085  50.604  22.272  1.00  0.00     0.165 HD
HETATM   16  C14 UNL     1      68.049  49.867  19.724  1.00  0.00     0.069 C 
ENDBRANCH   6   9
BRANCH   1  17
HETATM   17  C5  UNL     1      61.969  52.202  19.215  1.00  0.00     0.238 C 
BRANCH  17  18
HETATM   18  C4  UNL     1      61.086  53.386  19.107  1.00  0.00     0.236 C 
HETATM   19  N1  UNL     1      59.709  53.223  18.825  1.00  0.00    -0.360 N 
ATOM     20  H1  UNL     1      59.319  52.290  18.693  1.00  0.00     0.162 HD
HETATM   21  O1  UNL     1      61.533  54.545  19.262  1.00  0.00    -0.272 OA
BRANCH  19  22
HETATM   22  C3  UNL     1      58.860  54.382  18.725  1.00  0.00     0.122 C 
BRANCH  22  23
HETATM   23  C2  UNL     1      57.913  54.539  19.872  1.00  0.00     0.015 C 
HETATM   24  C1  UNL     1      57.495  53.133  20.299  1.00  0.00     0.006 C 
ENDBRANCH  22  23
ENDBRANCH  19  22
ENDBRANCH  17  18
ENDBRANCH   1  17
TORSDOF 5
ENDMDL
MODEL 4
REMARK VINA RESULT: -6.511463759      3.759      8.379
REMARK  5 active torsions:
REMARK  status: ('A' for Active; 'I' for Inactive)
REMARK    1  A    between atoms: C2_2  and  C3_3 
REMARK    2  A    between atoms: C3_3  and  N1_4 
REMARK       I    between atoms: N1_4  and  C4_6 
REMARK    3  A    between atoms: C4_6  and  C5_8 
REMARK    4  A    between atoms: C5_8  and  N2_9 
REMARK    5  A    between atoms: C8_14  and  C9_15 
ROOT
HETATM    1  N2  UNL     1      63.399  52.470  18.577  1.00  0.00    -0.265 N 
HETATM    2  C6  UNL     1      63.573  52.677  17.191  1.00  0.00     0.294 C 
HETATM    3  O2  UNL     1      62.803  52.388  16.288  1.00  0.00    -0.259 OA
HETATM    4  S1  UNL     1      65.168  53.460  16.993  1.00  0.00    -0.023 SA
HETATM    5  C7  UNL     1      65.795  52.755  18.560  1.00  0.00     0.079 C 
HETATM    6  C8  UNL     1      67.064  52.611  18.786  1.00  0.00     0.038 C 
HETATM    7  C15 UNL     1      64.597  52.514  19.307  1.00  0.00     0.268 C 
HETATM    8  O3  UNL     1      64.624  52.354  20.578  1.00  0.00    -0.266 OA
ENDROOT
BRANCH   6   9
HETATM    9  C9  UNL     1      67.707  52.062  19.971  1.00  0.00    -0.011 A 
HETATM   10  C10 UNL     1      68.104  50.722  20.005  1.00  0.00     0.038 A 
HETATM   11  C11 UNL     1      68.623  50.519  21.263  1.00  0.00     0.006 A 
HETATM   12  C12 UNL     1      69.187  49.257  21.808  1.00  0.00     0.068 C 
HETATM   13  N3  UNL     1      68.552  51.656  21.964  1.00  0.00    -0.363 N 
HETATM   14  C13 UNL     1      67.996  52.612  21.194  1.00  0.00     0.015 A 
ATOM     15  H3  UNL     1      68.869  51.780  22.926  1.00  0.00     0.165 HD
HETATM   16  C14 UNL     1      67.701  54.015  21.605  1.00  0.00     0.069 C 
ENDBRANCH   6   9
BRANCH   1  17
HETATM   17  C5  UNL     1      62.092  52.231  19.157  1.00  0.00     0.238 C 
BRANCH  17  18
HETATM   18  C4  UNL     1      61.223  53.429  19.094  1.00  0.00     0.236 C 
HETATM   19  N1  UNL     1      59.875  53.309  18.678  1.00  0.00    -0.360 N 
ATOM     20  H1  UNL     1      59.498  52.398  18.418  1.00  0.00     0.162 HD
HETATM   21  O1  UNL     1      61.655  54.563  19.404  1.00  0.00    -0.272 OA
BRANCH  19  22
HETATM   22  C3  UNL     1      59.040  54.481  18.623  1.00  0.00     0.122 C 
BRANCH  22  23
HETATM   23  C2  UNL     1      58.032  54.557  19.726  1.00  0.00     0.015 C 
HETATM   24  C1  UNL     1      57.610  53.124  20.043  1.00  0.00     0.006 C 
ENDBRANCH  22  23
ENDBRANCH  19  22
ENDBRANCH  17  18
ENDBRANCH   1  17
TORSDOF 5
ENDMDL
MODEL 5
REMARK VINA RESULT: -6.474632030      2.566      3.988
REMARK  5 active torsions:
REMARK  status: ('A' for Active; 'I' for Inactive)
REMARK    1  A    between atoms: C2_2  and  C3_3 
REMARK    2  A    between atoms: C3_3  and  N1_4 
REMARK       I    between atoms: N1_4  and  C4_6 
REMARK    3  A    between atoms: C4_6  and  C5_8 
REMARK    4  A    between atoms: C5_8  and  N2_9 
REMARK    5  A    between atoms: C8_14  and  C9_15 
ROOT
HETATM    1  N2  UNL     1      67.982  51.938  20.370  1.00  0.00    -0.265 N 
HETATM    2  C6  UNL     1      68.426  50.696  19.865  1.00  0.00     0.294 C 
HETATM    3  O2  UNL     1      69.571  50.354  19.616  1.00  0.00    -0.259 OA
HETATM    4  S1  UNL     1      66.965  49.688  19.650  1.00  0.00    -0.023 SA
HETATM    5  C7  UNL     1      65.885  51.154  19.471  1.00  0.00     0.079 C 
HETATM    6  C8  UNL     1      64.739  51.090  18.866  1.00  0.00     0.038 C 
HETATM    7  C15 UNL     1      66.616  52.177  20.157  1.00  0.00     0.268 C 
HETATM    8  O3  UNL     1      66.044  53.252  20.556  1.00  0.00    -0.266 OA
ENDROOT
BRANCH   6   9
HETATM    9  C9  UNL     1      63.784  52.165  18.641  1.00  0.00    -0.011 A 
HETATM   10  C10 UNL     1      62.736  52.381  19.541  1.00  0.00     0.038 A 
HETATM   11  C11 UNL     1      62.005  53.422  19.017  1.00  0.00     0.006 A 
HETATM   12  C12 UNL     1      60.783  54.039  19.596  1.00  0.00     0.068 C 
HETATM   13  N3  UNL     1      62.560  53.825  17.869  1.00  0.00    -0.363 N 
HETATM   14  C13 UNL     1      63.648  53.071  17.620  1.00  0.00     0.015 A 
ATOM     15  H3  UNL     1      62.214  54.581  17.278  1.00  0.00     0.165 HD
HETATM   16  C14 UNL     1      64.533  53.167  16.423  1.00  0.00     0.069 C 
ENDBRANCH   6   9
BRANCH   1  17
HETATM   17  C5  UNL     1      68.883  52.858  21.037  1.00  0.00     0.238 C 
BRANCH  17  18
HETATM   18  C4  UNL     1      68.806  52.749  22.512  1.00  0.00     0.236 C 
HETATM   19  N1  UNL     1      67.827  53.476  23.230  1.00  0.00    -0.360 N 
ATOM     20  H1  UNL     1      67.171  54.080  22.734  1.00  0.00     0.162 HD
HETATM   21  O1  UNL     1      69.598  52.019  23.151  1.00  0.00    -0.272 OA
BRANCH  19  22
HETATM   22  C3  UNL     1      67.762  53.360  24.663  1.00  0.00     0.122 C 
BRANCH  22  23
HETATM   23  C2  UNL     1      66.501  52.726  25.162  1.00  0.00     0.015 C 
HETATM   24  C1  UNL     1      66.611  52.655  26.684  1.00  0.00     0.006 C 
ENDBRANCH  22  23
ENDBRANCH  19  22
ENDBRANCH  17  18
ENDBRANCH   1  17
TORSDOF 5
ENDMDL
