MODEL 1
REMARK VINA RESULT: -8.810636805      0.000      0.000
REMARK  13 active torsions:
REMARK  status: ('A' for Active; 'I' for Inactive)
REMARK    1  A    between atoms: N1_1  and  C1_4 
REMARK    2  A    between atoms: C6_15  and  N6_16 
REMARK    3  A    between atoms: N6_16  and  C7_18 
REMARK    4  A    between atoms: C7_18  and  C8_19 
REMARK    5  A    between atoms: C7_18  and  C9_24 
REMARK    6  A    between atoms: C8_19  and  O1_20 
REMARK    7  A    between atoms: C8_19  and  O2_22 
REMARK    8  A    between atoms: C9_24  and  O3_25 
REMARK    9  A    between atoms: C9_24  and  C10_27 
REMARK   10  A    between atoms: C10_27  and  N7_28 
REMARK   11  A    between atoms: C12_30  and  C13_31 
REMARK   12  A    between atoms: C13_31  and  N8_32 
REMARK   13  A    between atoms: N8_32  and  C14_34 
ROOT
HETATM    1  C7  UNL     1      23.874  28.891   3.316  1.00  0.00     0.168 C 
ENDROOT
BRANCH   1   2
HETATM    2  N6  UNL     1      22.498  28.978   2.900  1.00  0.00    -0.361 N 
ATOM      3  H6  UNL     1      21.953  29.751   3.282  1.00  0.00     0.162 HD
BRANCH   2   4
HETATM    4  C6  UNL     1      21.827  28.108   2.022  1.00  0.00     0.150 A 
HETATM    5  N5  UNL     1      20.648  27.528   2.281  1.00  0.00    -0.335 N 
HETATM    6  C5  UNL     1      20.054  26.703   1.412  1.00  0.00     0.108 A 
ATOM      7  H5  UNL     1      20.187  27.722   3.170  1.00  0.00     0.168 HD
HETATM    8  C1  UNL     1      18.838  26.097   1.665  1.00  0.00     0.130 A 
HETATM    9  C4  UNL     1      20.631  26.407   0.197  1.00  0.00     0.114 A 
HETATM   10  N2  UNL     1      18.269  25.267   0.762  1.00  0.00    -0.328 N 
HETATM   11  C2  UNL     1      18.842  24.990  -0.409  1.00  0.00     0.144 A 
ATOM     12  H2  UNL     1      17.371  24.838   0.984  1.00  0.00     0.168 HD
HETATM   13  N3  UNL     1      18.199  24.116  -1.313  1.00  0.00    -0.081 NA
HETATM   14  C3  UNL     1      20.055  25.559  -0.732  1.00  0.00     0.118 A 
HETATM   15  N4  UNL     1      20.695  25.286  -1.976  1.00  0.00    -0.096 NA
HETATM   16  N16 UNL     1      21.817  26.986  -0.069  1.00  0.00    -0.217 N 
HETATM   17  C17 UNL     1      22.418  27.811   0.793  1.00  0.00     0.183 A 
HETATM   18  N15 UNL     1      22.586  26.869  -1.167  1.00  0.00     0.001 NA
HETATM   19  N13 UNL     1      23.574  28.212   0.222  1.00  0.00    -0.267 N 
HETATM   20  N14 UNL     1      23.649  27.627  -0.960  1.00  0.00    -0.007 NA
ATOM     21  H13 UNL     1      24.261  28.846   0.627  1.00  0.00     0.185 HD
BRANCH   8  22
HETATM   22  N1  UNL     1      18.267  26.347   2.787  1.00  0.00    -0.384 N 
ATOM     23  H12 UNL     1      18.694  25.968   3.632  1.00  0.00     0.157 HD
ATOM     24  H11 UNL     1      17.414  26.905   2.831  1.00  0.00     0.157 HD
ENDBRANCH   8  22
ENDBRANCH   2   4
ENDBRANCH   1   2
BRANCH   1  25
HETATM   25  C8  UNL     1      24.545  30.210   3.110  1.00  0.00     0.278 C 
BRANCH  25  26
HETATM   26  O1  UNL     1      23.755  31.218   3.668  1.00  0.00    -0.369 OA
ATOM     27  H1  UNL     1      22.999  31.365   3.113  1.00  0.00     0.212 HD
ENDBRANCH  25  26
BRANCH  25  28
HETATM   28  O2  UNL     1      24.668  30.542   1.758  1.00  0.00    -0.369 OA
ATOM     29  H2  UNL     1      25.149  31.350   1.624  1.00  0.00     0.212 HD
ENDBRANCH  25  28
ENDBRANCH   1  25
BRANCH   1  30
HETATM   30  C9  UNL     1      23.988  28.374   4.718  1.00  0.00     0.165 C 
BRANCH  30  31
HETATM   31  O3  UNL     1      24.420  29.350   5.614  1.00  0.00    -0.392 OA
ATOM     32  H3  UNL     1      23.781  29.529   6.295  1.00  0.00     0.210 HD
ENDBRANCH  30  31
BRANCH  30  33
HETATM   33  C10 UNL     1      24.893  27.178   4.852  1.00  0.00     0.183 C 
BRANCH  33  34
HETATM   34  N7  UNL     1      24.871  26.299   3.698  1.00  0.00    -0.285 N 
HETATM   35  C11 UNL     1      24.149  25.178   3.520  1.00  0.00     0.140 A 
HETATM   36  C12 UNL     1      24.420  24.631   2.274  1.00  0.00     0.062 A 
HETATM   37  N11 UNL     1      25.321  25.463   1.727  1.00  0.00    -0.287 N 
HETATM   38  N12 UNL     1      25.580  26.437   2.566  1.00  0.00    -0.241 N 
ATOM     39  H11 UNL     1      25.739  25.354   0.802  1.00  0.00     0.188 HD
ATOM     40  H12 UNL     1      26.233  27.199   2.383  1.00  0.00     0.208 HD
BRANCH  36  41
HETATM   41  C13 UNL     1      23.816  23.389   1.717  1.00  0.00     0.182 C 
BRANCH  41  42
HETATM   42  N8  UNL     1      22.478  23.644   1.266  1.00  0.00    -0.357 N 
ATOM     43  H8  UNL     1      22.351  24.220   0.434  1.00  0.00     0.162 HD
BRANCH  42  44
HETATM   44  C14 UNL     1      21.319  23.137   1.919  1.00  0.00     0.171 C 
HETATM   45  N9  UNL     1      20.867  23.547   3.048  1.00  0.00    -0.361 N 
HETATM   46  C15 UNL     1      19.657  22.794   3.404  1.00  0.00     0.142 C 
ATOM     47  H9  UNL     1      21.286  24.286   3.614  1.00  0.00     0.162 HD
HETATM   48  C16 UNL     1      19.239  22.179   2.081  1.00  0.00     0.142 C 
HETATM   49  N10 UNL     1      20.514  22.098   1.375  1.00  0.00    -0.361 N 
ATOM     50  H10 UNL     1      20.773  21.434   0.645  1.00  0.00     0.162 HD
ENDBRANCH  42  44
ENDBRANCH  41  42
ENDBRANCH  36  41
ENDBRANCH  33  34
ENDBRANCH  30  33
ENDBRANCH   1  30
TORSDOF 13
ENDMDL
MODEL 2
REMARK VINA RESULT: -8.586427035      6.447     10.270
REMARK  13 active torsions:
REMARK  status: ('A' for Active; 'I' for Inactive)
REMARK    1  A    between atoms: N1_1  and  C1_4 
REMARK    2  A    between atoms: C6_15  and  N6_16 
REMARK    3  A    between atoms: N6_16  and  C7_18 
REMARK    4  A    between atoms: C7_18  and  C8_19 
REMARK    5  A    between atoms: C7_18  and  C9_24 
REMARK    6  A    between atoms: C8_19  and  O1_20 
REMARK    7  A    between atoms: C8_19  and  O2_22 
REMARK    8  A    between atoms: C9_24  and  O3_25 
REMARK    9  A    between atoms: C9_24  and  C10_27 
REMARK   10  A    between atoms: C10_27  and  N7_28 
REMARK   11  A    between atoms: C12_30  and  C13_31 
REMARK   12  A    between atoms: C13_31  and  N8_32 
REMARK   13  A    between atoms: N8_32  and  C14_34 
ROOT
HETATM    1  C7  UNL     1      17.937  25.813  -3.940  1.00  0.00     0.168 C 
ENDROOT
BRANCH   1   2
HETATM    2  N6  UNL     1      18.819  25.099  -3.053  1.00  0.00    -0.361 N 
ATOM      3  H6  UNL     1      18.913  24.095  -3.211  1.00  0.00     0.162 HD
BRANCH   2   4
HETATM    4  C6  UNL     1      19.566  25.641  -1.992  1.00  0.00     0.150 A 
HETATM    5  N5  UNL     1      20.757  26.238  -2.128  1.00  0.00    -0.335 N 
HETATM    6  C5  UNL     1      21.429  26.734  -1.083  1.00  0.00     0.108 A 
ATOM      7  H5  UNL     1      21.166  26.317  -3.059  1.00  0.00     0.168 HD
HETATM    8  C1  UNL     1      22.659  27.352  -1.208  1.00  0.00     0.130 A 
HETATM    9  C4  UNL     1      20.924  26.655   0.195  1.00  0.00     0.114 A 
HETATM   10  N2  UNL     1      23.309  27.840  -0.128  1.00  0.00    -0.328 N 
HETATM   11  C2  UNL     1      22.806  27.754   1.103  1.00  0.00     0.144 A 
ATOM     12  H2  UNL     1      24.215  28.289  -0.259  1.00  0.00     0.168 HD
HETATM   13  N3  UNL     1      23.531  28.283   2.193  1.00  0.00    -0.081 NA
HETATM   14  C3  UNL     1      21.583  27.153   1.306  1.00  0.00     0.118 A 
HETATM   15  N4  UNL     1      21.014  27.045   2.608  1.00  0.00    -0.096 NA
HETATM   16  N16 UNL     1      19.727  26.056   0.339  1.00  0.00    -0.217 N 
HETATM   17  C17 UNL     1      19.048  25.557  -0.698  1.00  0.00     0.183 A 
HETATM   18  N15 UNL     1      19.016  25.849   1.463  1.00  0.00     0.001 NA
HETATM   19  N13 UNL     1      17.902  25.035  -0.212  1.00  0.00    -0.267 N 
HETATM   20  N14 UNL     1      17.911  25.225   1.095  1.00  0.00    -0.007 NA
ATOM     21  H13 UNL     1      17.168  24.578  -0.752  1.00  0.00     0.185 HD
BRANCH   8  22
HETATM   22  N1  UNL     1      23.165  27.445  -2.384  1.00  0.00    -0.384 N 
ATOM     23  H12 UNL     1      24.019  26.922  -2.577  1.00  0.00     0.157 HD
ATOM     24  H11 UNL     1      22.727  28.024  -3.101  1.00  0.00     0.157 HD
ENDBRANCH   8  22
ENDBRANCH   2   4
ENDBRANCH   1   2
BRANCH   1  25
HETATM   25  C8  UNL     1      18.082  25.280  -5.328  1.00  0.00     0.278 C 
BRANCH  25  26
HETATM   26  O1  UNL     1      19.131  24.357  -5.358  1.00  0.00    -0.369 OA
ATOM     27  H1  UNL     1      19.047  23.766  -4.620  1.00  0.00     0.212 HD
ENDBRANCH  25  26
BRANCH  25  28
HETATM   28  O2  UNL     1      18.433  26.272  -6.248  1.00  0.00    -0.369 OA
ATOM     29  H2  UNL     1      17.701  26.541  -6.790  1.00  0.00     0.212 HD
ENDBRANCH  25  28
ENDBRANCH   1  25
BRANCH   1  30
HETATM   30  C9  UNL     1      16.526  25.793  -3.435  1.00  0.00     0.165 C 
BRANCH  30  31
HETATM   31  O3  UNL     1      16.169  24.560  -2.892  1.00  0.00    -0.392 OA
ATOM     32  H3  UNL     1      16.779  24.265  -2.226  1.00  0.00     0.210 HD
ENDBRANCH  30  31
BRANCH  30  33
HETATM   33  C10 UNL     1      15.504  26.162  -4.478  1.00  0.00     0.183 C 
BRANCH  33  34
HETATM   34  N7  UNL     1      15.126  27.562  -4.453  1.00  0.00    -0.285 N 
HETATM   35  C11 UNL     1      14.635  28.310  -5.457  1.00  0.00     0.140 A 
HETATM   36  C12 UNL     1      14.404  29.605  -5.017  1.00  0.00     0.062 A 
HETATM   37  N11 UNL     1      14.774  29.596  -3.726  1.00  0.00    -0.287 N 
HETATM   38  N12 UNL     1      15.195  28.396  -3.402  1.00  0.00    -0.241 N 
ATOM     39  H11 UNL     1      14.733  30.397  -3.095  1.00  0.00     0.188 HD
ATOM     40  H12 UNL     1      15.531  28.132  -2.476  1.00  0.00     0.208 HD
BRANCH  36  41
HETATM   41  C13 UNL     1      13.865  30.723  -5.840  1.00  0.00     0.182 C 
BRANCH  41  42
HETATM   42  N8  UNL     1      13.746  30.319  -7.212  1.00  0.00    -0.357 N 
ATOM     43  H8  UNL     1      14.466  30.622  -7.868  1.00  0.00     0.162 HD
BRANCH  42  44
HETATM   44  C14 UNL     1      12.677  29.519  -7.705  1.00  0.00     0.171 C 
HETATM   45  N9  UNL     1      11.561  29.321  -7.101  1.00  0.00    -0.361 N 
HETATM   46  C15 UNL     1      10.705  28.445  -7.911  1.00  0.00     0.142 C 
ATOM     47  H9  UNL     1      11.309  29.713  -6.193  1.00  0.00     0.162 HD
HETATM   48  C16 UNL     1      11.342  28.524  -9.286  1.00  0.00     0.142 C 
HETATM   49  N10 UNL     1      12.728  28.838  -8.953  1.00  0.00    -0.361 N 
ATOM     50  H10 UNL     1      13.559  28.615  -9.501  1.00  0.00     0.162 HD
ENDBRANCH  42  44
ENDBRANCH  41  42
ENDBRANCH  36  41
ENDBRANCH  33  34
ENDBRANCH  30  33
ENDBRANCH   1  30
TORSDOF 13
ENDMDL
MODEL 3
REMARK VINA RESULT: -8.507413330      1.109      2.729
REMARK  13 active torsions:
REMARK  status: ('A' for Active; 'I' for Inactive)
REMARK    1  A    between atoms: N1_1  and  C1_4 
REMARK    2  A    between atoms: C6_15  and  N6_16 
REMARK    3  A    between atoms: N6_16  and  C7_18 
REMARK    4  A    between atoms: C7_18  and  C8_19 
REMARK    5  A    between atoms: C7_18  and  C9_24 
REMARK    6  A    between atoms: C8_19  and  O1_20 
REMARK    7  A    between atoms: C8_19  and  O2_22 
REMARK    8  A    between atoms: C9_24  and  O3_25 
REMARK    9  A    between atoms: C9_24  and  C10_27 
REMARK   10  A    between atoms: C10_27  and  N7_28 
REMARK   11  A    between atoms: C12_30  and  C13_31 
REMARK   12  A    between atoms: C13_31  and  N8_32 
REMARK   13  A    between atoms: N8_32  and  C14_34 
ROOT
HETATM    1  C7  UNL     1      23.704  28.882   3.047  1.00  0.00     0.168 C 
ENDROOT
BRANCH   1   2
HETATM    2  N6  UNL     1      22.341  28.426   2.953  1.00  0.00    -0.361 N 
ATOM      3  H6  UNL     1      21.755  28.562   3.778  1.00  0.00     0.162 HD
BRANCH   2   4
HETATM    4  C6  UNL     1      21.733  27.813   1.843  1.00  0.00     0.150 A 
HETATM    5  N5  UNL     1      22.262  27.771   0.614  1.00  0.00    -0.335 N 
HETATM    6  C5  UNL     1      21.639  27.177  -0.410  1.00  0.00     0.108 A 
ATOM      7  H5  UNL     1      23.170  28.205   0.453  1.00  0.00     0.168 HD
HETATM    8  C1  UNL     1      22.172  27.127  -1.684  1.00  0.00     0.130 A 
HETATM    9  C4  UNL     1      20.411  26.575  -0.249  1.00  0.00     0.114 A 
HETATM   10  N2  UNL     1      21.511  26.519  -2.696  1.00  0.00    -0.328 N 
HETATM   11  C2  UNL     1      20.324  25.941  -2.522  1.00  0.00     0.144 A 
ATOM     12  H2  UNL     1      21.937  26.502  -3.622  1.00  0.00     0.168 HD
HETATM   13  N3  UNL     1      19.681  25.321  -3.615  1.00  0.00    -0.081 NA
HETATM   14  C3  UNL     1      19.729  25.950  -1.278  1.00  0.00     0.118 A 
HETATM   15  N4  UNL     1      18.460  25.341  -1.057  1.00  0.00    -0.096 NA
HETATM   16  N16 UNL     1      19.873  26.613   0.984  1.00  0.00    -0.217 N 
HETATM   17  C17 UNL     1      20.488  27.204   2.014  1.00  0.00     0.183 A 
HETATM   18  N15 UNL     1      18.701  26.108   1.410  1.00  0.00     0.001 NA
HETATM   19  N13 UNL     1      19.687  27.063   3.091  1.00  0.00    -0.267 N 
HETATM   20  N14 UNL     1      18.616  26.398   2.697  1.00  0.00    -0.007 NA
ATOM     21  H13 UNL     1      19.874  27.405   4.033  1.00  0.00     0.185 HD
BRANCH   8  22
HETATM   22  N1  UNL     1      23.316  27.678  -1.876  1.00  0.00    -0.384 N 
ATOM     23  H12 UNL     1      24.129  27.068  -1.955  1.00  0.00     0.157 HD
ATOM     24  H11 UNL     1      23.407  28.691  -1.947  1.00  0.00     0.157 HD
ENDBRANCH   8  22
ENDBRANCH   2   4
ENDBRANCH   1   2
BRANCH   1  25
HETATM   25  C8  UNL     1      23.786  30.308   2.607  1.00  0.00     0.278 C 
BRANCH  25  26
HETATM   26  O1  UNL     1      24.969  30.498   1.887  1.00  0.00    -0.369 OA
ATOM     27  H1  UNL     1      24.774  30.974   1.089  1.00  0.00     0.212 HD
ENDBRANCH  25  26
BRANCH  25  28
HETATM   28  O2  UNL     1      23.860  31.196   3.683  1.00  0.00    -0.369 OA
ATOM     29  H2  UNL     1      24.660  31.709   3.678  1.00  0.00     0.212 HD
ENDBRANCH  25  28
ENDBRANCH   1  25
BRANCH   1  30
HETATM   30  C9  UNL     1      24.265  28.645   4.416  1.00  0.00     0.165 C 
BRANCH  30  31
HETATM   31  O3  UNL     1      25.620  28.963   4.501  1.00  0.00    -0.392 OA
ATOM     32  H3  UNL     1      26.102  28.357   5.051  1.00  0.00     0.210 HD
ENDBRANCH  30  31
BRANCH  30  33
HETATM   33  C10 UNL     1      24.080  27.234   4.910  1.00  0.00     0.183 C 
BRANCH  33  34
HETATM   34  N7  UNL     1      24.448  26.223   3.937  1.00  0.00    -0.285 N 
HETATM   35  C11 UNL     1      23.666  25.287   3.373  1.00  0.00     0.140 A 
HETATM   36  C12 UNL     1      24.408  24.514   2.492  1.00  0.00     0.062 A 
HETATM   37  N11 UNL     1      25.649  25.024   2.555  1.00  0.00    -0.287 N 
HETATM   38  N12 UNL     1      25.665  26.025   3.403  1.00  0.00    -0.241 N 
ATOM     39  H11 UNL     1      26.453  24.685   2.027  1.00  0.00     0.188 HD
ATOM     40  H12 UNL     1      26.492  26.579   3.628  1.00  0.00     0.208 HD
BRANCH  36  41
HETATM   41  C13 UNL     1      23.892  23.377   1.680  1.00  0.00     0.182 C 
BRANCH  41  42
HETATM   42  N8  UNL     1      22.810  23.812   0.845  1.00  0.00    -0.357 N 
ATOM     43  H8  UNL     1      23.015  24.474   0.095  1.00  0.00     0.162 HD
BRANCH  42  44
HETATM   44  C14 UNL     1      21.466  23.372   1.006  1.00  0.00     0.171 C 
HETATM   45  N9  UNL     1      20.791  22.720   0.129  1.00  0.00    -0.361 N 
HETATM   46  C15 UNL     1      19.445  22.437   0.645  1.00  0.00     0.142 C 
ATOM     47  H9  UNL     1      21.138  22.441  -0.790  1.00  0.00     0.162 HD
HETATM   48  C16 UNL     1      19.602  22.655   2.139  1.00  0.00     0.142 C 
HETATM   49  N10 UNL     1      20.706  23.608   2.185  1.00  0.00    -0.361 N 
ATOM     50  H10 UNL     1      20.894  24.299   2.911  1.00  0.00     0.162 HD
ENDBRANCH  42  44
ENDBRANCH  41  42
ENDBRANCH  36  41
ENDBRANCH  33  34
ENDBRANCH  30  33
ENDBRANCH   1  30
TORSDOF 13
ENDMDL
MODEL 4
REMARK VINA RESULT: -8.177626830      6.376      9.931
REMARK  13 active torsions:
REMARK  status: ('A' for Active; 'I' for Inactive)
REMARK    1  A    between atoms: N1_1  and  C1_4 
REMARK    2  A    between atoms: C6_15  and  N6_16 
REMARK    3  A    between atoms: N6_16  and  C7_18 
REMARK    4  A    between atoms: C7_18  and  C8_19 
REMARK    5  A    between atoms: C7_18  and  C9_24 
REMARK    6  A    between atoms: C8_19  and  O1_20 
REMARK    7  A    between atoms: C8_19  and  O2_22 
REMARK    8  A    between atoms: C9_24  and  O3_25 
REMARK    9  A    between atoms: C9_24  and  C10_27 
REMARK   10  A    between atoms: C10_27  and  N7_28 
REMARK   11  A    between atoms: C12_30  and  C13_31 
REMARK   12  A    between atoms: C13_31  and  N8_32 
REMARK   13  A    between atoms: N8_32  and  C14_34 
ROOT
HETATM    1  C7  UNL     1      17.921  25.766  -3.642  1.00  0.00     0.168 C 
ENDROOT
BRANCH   1   2
HETATM    2  N6  UNL     1      18.711  25.096  -2.641  1.00  0.00    -0.361 N 
ATOM      3  H6  UNL     1      18.665  24.077  -2.628  1.00  0.00     0.162 HD
BRANCH   2   4
HETATM    4  C6  UNL     1      19.539  25.702  -1.679  1.00  0.00     0.150 A 
HETATM    5  N5  UNL     1      19.201  25.893  -0.397  1.00  0.00    -0.335 N 
HETATM    6  C5  UNL     1      20.025  26.479   0.477  1.00  0.00     0.108 A 
ATOM      7  H5  UNL     1      18.284  25.581  -0.077  1.00  0.00     0.168 HD
HETATM    8  C1  UNL     1      19.690  26.684   1.803  1.00  0.00     0.130 A 
HETATM    9  C4  UNL     1      21.274  26.919   0.100  1.00  0.00     0.114 A 
HETATM   10  N2  UNL     1      20.550  27.282   2.658  1.00  0.00    -0.328 N 
HETATM   11  C2  UNL     1      21.755  27.702   2.275  1.00  0.00     0.144 A 
ATOM     12  H2  UNL     1      20.267  27.415   3.628  1.00  0.00     0.168 HD
HETATM   13  N3  UNL     1      22.610  28.320   3.213  1.00  0.00    -0.081 NA
HETATM   14  C3  UNL     1      22.160  27.531   0.968  1.00  0.00     0.118 A 
HETATM   15  N4  UNL     1      23.443  27.968   0.525  1.00  0.00    -0.096 NA
HETATM   16  N16 UNL     1      21.621  26.730  -1.187  1.00  0.00    -0.217 N 
HETATM   17  C17 UNL     1      20.804  26.146  -2.069  1.00  0.00     0.183 A 
HETATM   18  N15 UNL     1      22.767  27.061  -1.810  1.00  0.00     0.001 NA
HETATM   19  N13 UNL     1      21.452  26.113  -3.253  1.00  0.00    -0.267 N 
HETATM   20  N14 UNL     1      22.633  26.672  -3.067  1.00  0.00    -0.007 NA
ATOM     21  H13 UNL     1      21.096  25.729  -4.127  1.00  0.00     0.185 HD
BRANCH   8  22
HETATM   22  N1  UNL     1      18.533  26.288   2.195  1.00  0.00    -0.384 N 
ATOM     23  H12 UNL     1      18.179  25.409   1.818  1.00  0.00     0.157 HD
ATOM     24  H11 UNL     1      17.987  26.836   2.859  1.00  0.00     0.157 HD
ENDBRANCH   8  22
ENDBRANCH   2   4
ENDBRANCH   1   2
BRANCH   1  25
HETATM   25  C8  UNL     1      18.255  25.219  -4.992  1.00  0.00     0.278 C 
BRANCH  25  26
HETATM   26  O1  UNL     1      19.603  24.851  -5.018  1.00  0.00    -0.369 OA
ATOM     27  H1  UNL     1      20.125  25.599  -5.283  1.00  0.00     0.212 HD
ENDBRANCH  25  26
BRANCH  25  28
HETATM   28  O2  UNL     1      18.111  26.171  -6.006  1.00  0.00    -0.369 OA
ATOM     29  H2  UNL     1      18.088  27.059  -5.670  1.00  0.00     0.212 HD
ENDBRANCH  25  28
ENDBRANCH   1  25
BRANCH   1  30
HETATM   30  C9  UNL     1      16.460  25.703  -3.315  1.00  0.00     0.165 C 
BRANCH  30  31
HETATM   31  O3  UNL     1      16.065  24.441  -2.873  1.00  0.00    -0.392 OA
ATOM     32  H3  UNL     1      15.659  23.925  -3.559  1.00  0.00     0.210 HD
ENDBRANCH  30  31
BRANCH  30  33
HETATM   33  C10 UNL     1      15.565  26.102  -4.459  1.00  0.00     0.183 C 
BRANCH  33  34
HETATM   34  N7  UNL     1      15.172  27.498  -4.431  1.00  0.00    -0.285 N 
HETATM   35  C11 UNL     1      14.684  28.246  -5.436  1.00  0.00     0.140 A 
HETATM   36  C12 UNL     1      14.434  29.536  -4.992  1.00  0.00     0.062 A 
HETATM   37  N11 UNL     1      14.791  29.524  -3.697  1.00  0.00    -0.287 N 
HETATM   38  N12 UNL     1      15.222  28.327  -3.375  1.00  0.00    -0.241 N 
ATOM     39  H11 UNL     1      14.736  30.321  -3.062  1.00  0.00     0.188 HD
ATOM     40  H12 UNL     1      15.550  28.062  -2.447  1.00  0.00     0.208 HD
BRANCH  36  41
HETATM   41  C13 UNL     1      13.892  30.653  -5.814  1.00  0.00     0.182 C 
BRANCH  41  42
HETATM   42  N8  UNL     1      13.784  30.252  -7.188  1.00  0.00    -0.357 N 
ATOM     43  H8  UNL     1      14.524  30.533  -7.832  1.00  0.00     0.162 HD
BRANCH  42  44
HETATM   44  C14 UNL     1      12.700  29.485  -7.700  1.00  0.00     0.171 C 
HETATM   45  N9  UNL     1      11.568  29.322  -7.115  1.00  0.00    -0.361 N 
HETATM   46  C15 UNL     1      10.700  28.471  -7.940  1.00  0.00     0.142 C 
ATOM     47  H9  UNL     1      11.312  29.724  -6.213  1.00  0.00     0.162 HD
HETATM   48  C16 UNL     1      11.364  28.528  -9.304  1.00  0.00     0.142 C 
HETATM   49  N10 UNL     1      12.753  28.800  -8.945  1.00  0.00    -0.361 N 
ATOM     50  H10 UNL     1      13.586  28.550  -9.478  1.00  0.00     0.162 HD
ENDBRANCH  42  44
ENDBRANCH  41  42
ENDBRANCH  36  41
ENDBRANCH  33  34
ENDBRANCH  30  33
ENDBRANCH   1  30
TORSDOF 13
ENDMDL
MODEL 5
REMARK VINA RESULT: -8.099300140      9.572     12.290
REMARK  13 active torsions:
REMARK  status: ('A' for Active; 'I' for Inactive)
REMARK    1  A    between atoms: N1_1  and  C1_4 
REMARK    2  A    between atoms: C6_15  and  N6_16 
REMARK    3  A    between atoms: N6_16  and  C7_18 
REMARK    4  A    between atoms: C7_18  and  C8_19 
REMARK    5  A    between atoms: C7_18  and  C9_24 
REMARK    6  A    between atoms: C8_19  and  O1_20 
REMARK    7  A    between atoms: C8_19  and  O2_22 
REMARK    8  A    between atoms: C9_24  and  O3_25 
REMARK    9  A    between atoms: C9_24  and  C10_27 
REMARK   10  A    between atoms: C10_27  and  N7_28 
REMARK   11  A    between atoms: C12_30  and  C13_31 
REMARK   12  A    between atoms: C13_31  and  N8_32 
REMARK   13  A    between atoms: N8_32  and  C14_34 
ROOT
HETATM    1  C7  UNL     1      14.227  28.966  -5.244  1.00  0.00     0.168 C 
ENDROOT
BRANCH   1   2
HETATM    2  N6  UNL     1      12.940  29.584  -5.052  1.00  0.00    -0.361 N 
ATOM      3  H6  UNL     1      12.886  30.318  -4.345  1.00  0.00     0.162 HD
BRANCH   2   4
HETATM    4  C6  UNL     1      11.749  29.279  -5.736  1.00  0.00     0.150 A 
HETATM    5  N5  UNL     1      10.541  29.209  -5.164  1.00  0.00    -0.335 N 
HETATM    6  C5  UNL     1       9.439  28.910  -5.861  1.00  0.00     0.108 A 
ATOM      7  H5  UNL     1      10.457  29.389  -4.164  1.00  0.00     0.168 HD
HETATM    8  C1  UNL     1       8.185  28.833  -5.284  1.00  0.00     0.130 A 
HETATM    9  C4  UNL     1       9.494  28.658  -7.214  1.00  0.00     0.114 A 
HETATM   10  N2  UNL     1       7.094  28.527  -6.022  1.00  0.00    -0.328 N 
HETATM   11  C2  UNL     1       7.165  28.285  -7.330  1.00  0.00     0.144 A 
ATOM     12  H2  UNL     1       6.186  28.480  -5.561  1.00  0.00     0.168 HD
HETATM   13  N3  UNL     1       5.991  27.971  -8.048  1.00  0.00    -0.081 NA
HETATM   14  C3  UNL     1       8.382  28.345  -7.975  1.00  0.00     0.118 A 
HETATM   15  N4  UNL     1       8.495  28.093  -9.373  1.00  0.00    -0.096 NA
HETATM   16  N16 UNL     1      10.706  28.727  -7.795  1.00  0.00    -0.217 N 
HETATM   17  C17 UNL     1      11.813  29.024  -7.107  1.00  0.00     0.183 A 
HETATM   18  N15 UNL     1      11.037  28.528  -9.084  1.00  0.00     0.001 NA
HETATM   19  N13 UNL     1      12.842  29.010  -7.981  1.00  0.00    -0.267 N 
HETATM   20  N14 UNL     1      12.344  28.708  -9.166  1.00  0.00    -0.007 NA
ATOM     21  H13 UNL     1      13.821  29.198  -7.767  1.00  0.00     0.185 HD
BRANCH   8  22
HETATM   22  N1  UNL     1       8.091  29.062  -4.025  1.00  0.00    -0.384 N 
ATOM     23  H12 UNL     1       7.456  29.800  -3.722  1.00  0.00     0.157 HD
ATOM     24  H11 UNL     1       8.635  28.523  -3.350  1.00  0.00     0.157 HD
ENDBRANCH   8  22
ENDBRANCH   2   4
ENDBRANCH   1   2
BRANCH   1  25
HETATM   25  C8  UNL     1      15.270  30.023  -5.407  1.00  0.00     0.278 C 
BRANCH  25  26
HETATM   26  O1  UNL     1      14.898  30.881  -6.445  1.00  0.00    -0.369 OA
ATOM     27  H1  UNL     1      14.129  31.372  -6.182  1.00  0.00     0.212 HD
ENDBRANCH  25  26
BRANCH  25  28
HETATM   28  O2  UNL     1      16.509  29.498  -5.786  1.00  0.00    -0.369 OA
ATOM     29  H2  UNL     1      16.492  29.119  -6.657  1.00  0.00     0.212 HD
ENDBRANCH  25  28
ENDBRANCH   1  25
BRANCH   1  30
HETATM   30  C9  UNL     1      14.531  27.988  -4.150  1.00  0.00     0.165 C 
BRANCH  30  31
HETATM   31  O3  UNL     1      15.591  28.400  -3.344  1.00  0.00    -0.392 OA
ATOM     32  H3  UNL     1      16.132  27.674  -3.055  1.00  0.00     0.210 HD
ENDBRANCH  30  31
BRANCH  30  33
HETATM   33  C10 UNL     1      14.828  26.598  -4.646  1.00  0.00     0.183 C 
BRANCH  33  34
HETATM   34  N7  UNL     1      16.198  26.178  -4.418  1.00  0.00    -0.285 N 
HETATM   35  C11 UNL     1      17.195  26.069  -5.313  1.00  0.00     0.140 A 
HETATM   36  C12 UNL     1      18.353  25.634  -4.686  1.00  0.00     0.062 A 
HETATM   37  N11 UNL     1      18.007  25.490  -3.396  1.00  0.00    -0.287 N 
HETATM   38  N12 UNL     1      16.743  25.811  -3.246  1.00  0.00    -0.241 N 
ATOM     39  H11 UNL     1      18.628  25.180  -2.649  1.00  0.00     0.188 HD
ATOM     40  H12 UNL     1      16.241  25.785  -2.359  1.00  0.00     0.208 HD
BRANCH  36  41
HETATM   41  C13 UNL     1      19.666  25.392  -5.346  1.00  0.00     0.182 C 
BRANCH  41  42
HETATM   42  N8  UNL     1      19.519  24.441  -6.411  1.00  0.00    -0.357 N 
ATOM     43  H8  UNL     1      18.589  24.297  -6.804  1.00  0.00     0.162 HD
BRANCH  42  44
HETATM   44  C14 UNL     1      20.602  23.690  -6.949  1.00  0.00     0.171 C 
HETATM   45  N9  UNL     1      21.057  22.594  -6.458  1.00  0.00    -0.361 N 
HETATM   46  C15 UNL     1      22.174  22.107  -7.279  1.00  0.00     0.142 C 
ATOM     47  H9  UNL     1      20.696  22.131  -5.624  1.00  0.00     0.162 HD
HETATM   48  C16 UNL     1      22.005  22.879  -8.575  1.00  0.00     0.142 C 
HETATM   49  N10 UNL     1      21.314  24.080  -8.117  1.00  0.00    -0.361 N 
ATOM     50  H10 UNL     1      21.337  25.005  -8.545  1.00  0.00     0.162 HD
ENDBRANCH  42  44
ENDBRANCH  41  42
ENDBRANCH  36  41
ENDBRANCH  33  34
ENDBRANCH  30  33
ENDBRANCH   1  30
TORSDOF 13
ENDMDL
