MODEL 1
REMARK VINA RESULT: -6.764105189      0.000      0.000
REMARK  17 active torsions:
REMARK  status: ('A' for Active; 'I' for Inactive)
REMARK    1  A    between atoms: C2_2  and  N2_6 
REMARK    2  A    between atoms: N2_6  and  C3_8 
REMARK    3  A    between atoms: C4_11  and  N4_12 
REMARK    4  A    between atoms: N4_12  and  N5_14 
REMARK    5  A    between atoms: N5_14  and  C5_16 
REMARK    6  A    between atoms: C6_18  and  C7_19 
REMARK    7  A    between atoms: C7_19  and  O2_20 
REMARK    8  A    between atoms: C7_19  and  O3_22 
REMARK    9  A    between atoms: C8_24  and  O4_25 
REMARK   10  A    between atoms: C9_27  and  O5_28 
REMARK   11  A    between atoms: C10_30  and  O6_31 
REMARK   12  A    between atoms: O6_31  and  C11_32 
REMARK   13  A    between atoms: C11_32  and  C12_33 
REMARK   14  A    between atoms: C11_32  and  C13_36 
REMARK   15  A    between atoms: C12_33  and  O7_34 
REMARK   16  A    between atoms: C13_36  and  O8_37 
REMARK   17  A    between atoms: N6_39  and  C14_40 
ROOT
HETATM    1  N5  UNL     1      20.761  27.428   1.357  1.00  0.00    -0.263 N 
ATOM      2  H5  UNL     1      21.272  28.285   1.571  1.00  0.00     0.189 HD
ENDROOT
BRANCH   1   3
HETATM    3  N4  UNL     1      20.069  26.770   2.393  1.00  0.00    -0.129 N 
ATOM      4  H4  UNL     1      19.084  26.962   2.577  1.00  0.00     0.205 HD
BRANCH   3   5
HETATM    5  C4  UNL     1      20.795  25.828   3.170  1.00  0.00     0.712 C 
HETATM    6  N3  UNL     1      21.560  26.204   4.156  1.00  0.00    -0.184 N 
HETATM    7  C3  UNL     1      22.306  25.253   4.955  1.00  0.00     0.319 C 
ATOM      8  H3  UNL     1      21.636  27.198   4.373  1.00  0.00     0.181 HD
HETATM    9  N8  UNL     1      21.810  23.940   4.711  1.00  0.00    -0.278 N 
HETATM   10  N7  UNL     1      21.633  23.601   3.373  1.00  0.00    -0.005 NA
ATOM     11  H8  UNL     1      21.598  23.290   5.468  1.00  0.00     0.181 HD
HETATM   12  N6  UNL     1      20.679  24.452   2.854  1.00  0.00    -0.085 N 
BRANCH   7  13
HETATM   13  N2  UNL     1      23.720  25.415   4.693  1.00  0.00    -0.342 N 
ATOM     14  H2  UNL     1      24.106  24.985   3.852  1.00  0.00     0.164 HD
BRANCH  13  15
HETATM   15  C2  UNL     1      24.592  26.133   5.530  1.00  0.00     0.069 C 
HETATM   16  C1  UNL     1      25.349  25.490   6.633  1.00  0.00     0.088 C 
HETATM   17  N1  UNL     1      24.755  27.395   5.348  1.00  0.00    -0.389 N 
ATOM     18  H12 UNL     1      25.388  27.916   5.955  1.00  0.00     0.157 HD
ATOM     19  H11 UNL     1      24.235  27.837   4.590  1.00  0.00     0.157 HD
ENDBRANCH  13  15
ENDBRANCH   7  13
BRANCH  12  20
HETATM   20  C14 UNL     1      19.620  23.935   2.035  1.00  0.00     0.295 C 
HETATM   21  C15 UNL     1      19.498  22.461   2.186  1.00  0.00     0.185 C 
HETATM   22  O9  UNL     1      20.012  21.611   1.487  1.00  0.00    -0.293 OA
HETATM   23  C16 UNL     1      18.622  22.229   3.361  1.00  0.00     0.260 C 
HETATM   24  O10 UNL     1      18.051  23.499   3.636  1.00  0.00    -0.312 OA
HETATM   25  C17 UNL     1      18.289  24.368   2.591  1.00  0.00     0.292 C 
HETATM   26  O11 UNL     1      17.627  25.322   2.130  1.00  0.00    -0.262 OA
ENDBRANCH  12  20
ENDBRANCH   3   5
ENDBRANCH   1   3
BRANCH   1  27
HETATM   27  C5  UNL     1      20.768  26.982   0.153  1.00  0.00     0.200 A 
HETATM   28  O1  UNL     1      19.699  26.363  -0.320  1.00  0.00    -0.286 OA
HETATM   29  C6  UNL     1      19.661  25.897  -1.545  1.00  0.00     0.145 A 
HETATM   30  C8  UNL     1      20.735  26.036  -2.387  1.00  0.00     0.137 A 
HETATM   31  C9  UNL     1      21.863  26.688  -1.890  1.00  0.00     0.140 A 
HETATM   32  C10 UNL     1      21.923  27.178  -0.619  1.00  0.00     0.158 A 
BRANCH  29  33
HETATM   33  C7  UNL     1      18.433  25.214  -2.014  1.00  0.00     0.315 C 
BRANCH  33  34
HETATM   34  O2  UNL     1      17.653  24.969  -0.868  1.00  0.00    -0.365 OA
ATOM     35  H2  UNL     1      18.103  24.291  -0.378  1.00  0.00     0.213 HD
ENDBRANCH  33  34
BRANCH  33  36
HETATM   36  O3  UNL     1      17.667  26.071  -2.828  1.00  0.00    -0.365 OA
ATOM     37  H3  UNL     1      16.741  25.980  -2.632  1.00  0.00     0.213 HD
ENDBRANCH  33  36
ENDBRANCH  29  33
BRANCH  30  38
HETATM   38  O4  UNL     1      20.702  25.551  -3.669  1.00  0.00    -0.356 OA
ATOM     39  H4  UNL     1      21.194  24.777  -3.917  1.00  0.00     0.218 HD
ENDBRANCH  30  38
BRANCH  31  40
HETATM   40  O5  UNL     1      22.911  26.804  -2.766  1.00  0.00    -0.355 OA
ATOM     41  H5  UNL     1      22.801  27.451  -3.453  1.00  0.00     0.218 HD
ENDBRANCH  31  40
BRANCH  32  42
HETATM   42  O6  UNL     1      23.019  27.811  -0.122  1.00  0.00    -0.335 OA
BRANCH  42  43
HETATM   43  C11 UNL     1      24.143  27.204   0.427  1.00  0.00     0.176 C 
BRANCH  43  44
HETATM   44  C12 UNL     1      24.483  27.737   1.772  1.00  0.00     0.198 C 
BRANCH  44  45
HETATM   45  O7  UNL     1      23.450  27.957   2.644  1.00  0.00    -0.398 OA
ATOM     46  H7  UNL     1      23.085  28.833   2.679  1.00  0.00     0.209 HD
ENDBRANCH  44  45
ENDBRANCH  43  44
BRANCH  43  47
HETATM   47  C13 UNL     1      24.038  25.669   0.497  1.00  0.00     0.198 C 
BRANCH  47  48
HETATM   48  O8  UNL     1      23.851  25.358   1.872  1.00  0.00    -0.398 OA
ATOM     49  H8  UNL     1      24.342  24.559   2.024  1.00  0.00     0.209 HD
ENDBRANCH  47  48
ENDBRANCH  43  47
ENDBRANCH  42  43
ENDBRANCH  32  42
ENDBRANCH   1  27
TORSDOF 17
ENDMDL
MODEL 2
REMARK VINA RESULT: -6.726014873      2.576      6.285
REMARK  17 active torsions:
REMARK  status: ('A' for Active; 'I' for Inactive)
REMARK    1  A    between atoms: C2_2  and  N2_6 
REMARK    2  A    between atoms: N2_6  and  C3_8 
REMARK    3  A    between atoms: C4_11  and  N4_12 
REMARK    4  A    between atoms: N4_12  and  N5_14 
REMARK    5  A    between atoms: N5_14  and  C5_16 
REMARK    6  A    between atoms: C6_18  and  C7_19 
REMARK    7  A    between atoms: C7_19  and  O2_20 
REMARK    8  A    between atoms: C7_19  and  O3_22 
REMARK    9  A    between atoms: C8_24  and  O4_25 
REMARK   10  A    between atoms: C9_27  and  O5_28 
REMARK   11  A    between atoms: C10_30  and  O6_31 
REMARK   12  A    between atoms: O6_31  and  C11_32 
REMARK   13  A    between atoms: C11_32  and  C12_33 
REMARK   14  A    between atoms: C11_32  and  C13_36 
REMARK   15  A    between atoms: C12_33  and  O7_34 
REMARK   16  A    between atoms: C13_36  and  O8_37 
REMARK   17  A    between atoms: N6_39  and  C14_40 
ROOT
HETATM    1  N5  UNL     1      20.994  27.360   2.545  1.00  0.00    -0.263 N 
ATOM      2  H5  UNL     1      20.195  27.288   3.176  1.00  0.00     0.189 HD
ENDROOT
BRANCH   1   3
HETATM    3  N4  UNL     1      20.786  27.223   1.159  1.00  0.00    -0.129 N 
ATOM      4  H4  UNL     1      20.951  28.001   0.519  1.00  0.00     0.205 HD
BRANCH   3   5
HETATM    5  C4  UNL     1      20.338  25.961   0.686  1.00  0.00     0.712 C 
HETATM    6  N3  UNL     1      19.515  25.225   1.380  1.00  0.00    -0.184 N 
HETATM    7  C3  UNL     1      19.052  23.936   0.909  1.00  0.00     0.319 C 
ATOM      8  H3  UNL     1      19.187  25.568   2.283  1.00  0.00     0.181 HD
HETATM    9  N8  UNL     1      19.354  23.805  -0.477  1.00  0.00    -0.278 N 
HETATM   10  N7  UNL     1      20.647  24.159  -0.850  1.00  0.00    -0.005 NA
ATOM     11  H8  UNL     1      18.665  23.473  -1.153  1.00  0.00     0.181 HD
HETATM   12  N6  UNL     1      20.805  25.500  -0.569  1.00  0.00    -0.085 N 
BRANCH   7  13
HETATM   13  N2  UNL     1      19.613  22.894   1.742  1.00  0.00    -0.342 N 
ATOM     14  H2  UNL     1      20.456  22.421   1.419  1.00  0.00     0.164 HD
BRANCH  13  15
HETATM   15  C2  UNL     1      19.061  22.498   2.974  1.00  0.00     0.069 C 
HETATM   16  C1  UNL     1      19.784  21.618   3.926  1.00  0.00     0.088 C 
HETATM   17  N1  UNL     1      17.888  22.904   3.306  1.00  0.00    -0.389 N 
ATOM     18  H12 UNL     1      17.488  22.617   4.199  1.00  0.00     0.157 HD
ATOM     19  H11 UNL     1      17.391  23.509   2.653  1.00  0.00     0.157 HD
ENDBRANCH  13  15
ENDBRANCH   7  13
BRANCH  12  20
HETATM   20  C14 UNL     1      21.418  26.370  -1.531  1.00  0.00     0.295 C 
HETATM   21  C15 UNL     1      22.812  26.707  -1.138  1.00  0.00     0.185 C 
HETATM   22  O9  UNL     1      23.178  27.680  -0.509  1.00  0.00    -0.293 OA
HETATM   23  C16 UNL     1      23.673  25.618  -1.663  1.00  0.00     0.260 C 
HETATM   24  O10 UNL     1      22.834  24.901  -2.557  1.00  0.00    -0.312 OA
HETATM   25  C17 UNL     1      21.680  25.615  -2.808  1.00  0.00     0.292 C 
HETATM   26  O11 UNL     1      20.946  25.689  -3.815  1.00  0.00    -0.262 OA
ENDBRANCH  12  20
ENDBRANCH   3   5
ENDBRANCH   1   3
BRANCH   1  27
HETATM   27  C5  UNL     1      22.160  27.574   3.040  1.00  0.00     0.200 A 
HETATM   28  O1  UNL     1      22.761  28.731   2.819  1.00  0.00    -0.286 OA
HETATM   29  C6  UNL     1      23.948  28.994   3.309  1.00  0.00     0.145 A 
HETATM   30  C8  UNL     1      24.614  28.073   4.077  1.00  0.00     0.137 A 
HETATM   31  C9  UNL     1      23.983  26.852   4.312  1.00  0.00     0.140 A 
HETATM   32  C10 UNL     1      22.749  26.559   3.809  1.00  0.00     0.158 A 
BRANCH  29  33
HETATM   33  C7  UNL     1      24.567  30.309   3.023  1.00  0.00     0.315 C 
BRANCH  33  34
HETATM   34  O2  UNL     1      24.351  30.560   1.655  1.00  0.00    -0.365 OA
ATOM     35  H2  UNL     1      23.858  31.371   1.606  1.00  0.00     0.213 HD
ENDBRANCH  33  34
BRANCH  33  36
HETATM   36  O3  UNL     1      23.895  31.335   3.716  1.00  0.00    -0.365 OA
ATOM     37  H3  UNL     1      24.516  31.895   4.169  1.00  0.00     0.213 HD
ENDBRANCH  33  36
ENDBRANCH  29  33
BRANCH  30  38
HETATM   38  O4  UNL     1      25.856  28.341   4.593  1.00  0.00    -0.356 OA
ATOM     39  H4  UNL     1      26.388  27.655   4.980  1.00  0.00     0.218 HD
ENDBRANCH  30  38
BRANCH  31  40
HETATM   40  O5  UNL     1      24.684  25.963   5.084  1.00  0.00    -0.355 OA
ATOM     41  H5  UNL     1      24.188  25.221   5.408  1.00  0.00     0.218 HD
ENDBRANCH  31  40
BRANCH  32  42
HETATM   42  O6  UNL     1      22.125  25.371   4.027  1.00  0.00    -0.335 OA
BRANCH  42  43
HETATM   43  C11 UNL     1      22.391  24.169   3.382  1.00  0.00     0.176 C 
BRANCH  43  44
HETATM   44  C12 UNL     1      23.081  24.358   2.079  1.00  0.00     0.198 C 
BRANCH  44  45
HETATM   45  O7  UNL     1      22.831  23.440   1.094  1.00  0.00    -0.398 OA
ATOM     46  H7  UNL     1      23.089  23.667   0.208  1.00  0.00     0.209 HD
ENDBRANCH  44  45
ENDBRANCH  43  44
BRANCH  43  47
HETATM   47  C13 UNL     1      23.193  23.176   4.245  1.00  0.00     0.198 C 
BRANCH  47  48
HETATM   48  O8  UNL     1      24.527  23.229   3.755  1.00  0.00    -0.398 OA
ATOM     49  H8  UNL     1      24.846  22.334   3.780  1.00  0.00     0.209 HD
ENDBRANCH  47  48
ENDBRANCH  43  47
ENDBRANCH  42  43
ENDBRANCH  32  42
ENDBRANCH   1  27
TORSDOF 17
ENDMDL
MODEL 3
REMARK VINA RESULT: -6.640198769      2.582      6.230
REMARK  17 active torsions:
REMARK  status: ('A' for Active; 'I' for Inactive)
REMARK    1  A    between atoms: C2_2  and  N2_6 
REMARK    2  A    between atoms: N2_6  and  C3_8 
REMARK    3  A    between atoms: C4_11  and  N4_12 
REMARK    4  A    between atoms: N4_12  and  N5_14 
REMARK    5  A    between atoms: N5_14  and  C5_16 
REMARK    6  A    between atoms: C6_18  and  C7_19 
REMARK    7  A    between atoms: C7_19  and  O2_20 
REMARK    8  A    between atoms: C7_19  and  O3_22 
REMARK    9  A    between atoms: C8_24  and  O4_25 
REMARK   10  A    between atoms: C9_27  and  O5_28 
REMARK   11  A    between atoms: C10_30  and  O6_31 
REMARK   12  A    between atoms: O6_31  and  C11_32 
REMARK   13  A    between atoms: C11_32  and  C12_33 
REMARK   14  A    between atoms: C11_32  and  C13_36 
REMARK   15  A    between atoms: C12_33  and  O7_34 
REMARK   16  A    between atoms: C13_36  and  O8_37 
REMARK   17  A    between atoms: N6_39  and  C14_40 
ROOT
HETATM    1  N5  UNL     1      21.613  27.830   1.307  1.00  0.00    -0.263 N 
ATOM      2  H5  UNL     1      21.615  28.438   0.488  1.00  0.00     0.189 HD
ENDROOT
BRANCH   1   3
HETATM    3  N4  UNL     1      20.400  27.244   1.721  1.00  0.00    -0.129 N 
ATOM      4  H4  UNL     1      19.946  27.525   2.590  1.00  0.00     0.205 HD
BRANCH   3   5
HETATM    5  C4  UNL     1      19.835  26.247   0.881  1.00  0.00     0.712 C 
HETATM    6  N3  UNL     1      19.905  26.330  -0.418  1.00  0.00    -0.184 N 
HETATM    7  C3  UNL     1      19.332  25.320  -1.285  1.00  0.00     0.319 C 
ATOM      8  H3  UNL     1      20.378  27.131  -0.838  1.00  0.00     0.181 HD
HETATM    9  N8  UNL     1      19.028  24.159  -0.518  1.00  0.00    -0.278 N 
HETATM   10  N7  UNL     1      18.355  24.385   0.679  1.00  0.00    -0.005 NA
ATOM     11  H8  UNL     1      19.288  23.222  -0.826  1.00  0.00     0.181 HD
HETATM   12  N6  UNL     1      19.182  25.143   1.481  1.00  0.00    -0.085 N 
BRANCH   7  13
HETATM   13  N2  UNL     1      18.201  25.883  -1.989  1.00  0.00    -0.342 N 
ATOM     14  H2  UNL     1      17.832  26.779  -1.669  1.00  0.00     0.164 HD
BRANCH  13  15
HETATM   15  C2  UNL     1      17.581  25.266  -3.090  1.00  0.00     0.069 C 
HETATM   16  C1  UNL     1      18.121  25.366  -4.470  1.00  0.00     0.088 C 
HETATM   17  N1  UNL     1      16.506  24.584  -2.916  1.00  0.00    -0.389 N 
ATOM     18  H12 UNL     1      16.056  24.136  -3.714  1.00  0.00     0.157 HD
ATOM     19  H11 UNL     1      16.134  24.514  -1.969  1.00  0.00     0.157 HD
ENDBRANCH  13  15
ENDBRANCH   7  13
BRANCH  12  20
HETATM   20  C14 UNL     1      19.357  24.801   2.863  1.00  0.00     0.295 C 
HETATM   21  C15 UNL     1      18.513  23.635   3.238  1.00  0.00     0.185 C 
HETATM   22  O9  UNL     1      17.401  23.666   3.724  1.00  0.00    -0.293 OA
HETATM   23  C16 UNL     1      19.298  22.421   2.899  1.00  0.00     0.260 C 
HETATM   24  O10 UNL     1      20.610  22.903   2.652  1.00  0.00    -0.312 OA
HETATM   25  C17 UNL     1      20.727  24.213   3.072  1.00  0.00     0.292 C 
HETATM   26  O11 UNL     1      21.692  24.858   3.533  1.00  0.00    -0.262 OA
ENDBRANCH  12  20
ENDBRANCH   3   5
ENDBRANCH   1   3
BRANCH   1  27
HETATM   27  C5  UNL     1      22.716  27.621   1.930  1.00  0.00     0.200 A 
HETATM   28  O1  UNL     1      22.805  27.917   3.216  1.00  0.00    -0.286 OA
HETATM   29  C6  UNL     1      23.910  27.715   3.894  1.00  0.00     0.145 A 
HETATM   30  C8  UNL     1      25.021  27.185   3.289  1.00  0.00     0.137 A 
HETATM   31  C9  UNL     1      24.930  26.872   1.933  1.00  0.00     0.140 A 
HETATM   32  C10 UNL     1      23.791  27.076   1.212  1.00  0.00     0.158 A 
BRANCH  29  33
HETATM   33  C7  UNL     1      23.943  28.068   5.332  1.00  0.00     0.315 C 
BRANCH  33  34
HETATM   34  O2  UNL     1      24.381  26.918   6.014  1.00  0.00    -0.365 OA
ATOM     35  H2  UNL     1      24.643  27.204   6.881  1.00  0.00     0.213 HD
ENDBRANCH  33  34
BRANCH  33  36
HETATM   36  O3  UNL     1      24.914  29.058   5.578  1.00  0.00    -0.365 OA
ATOM     37  H3  UNL     1      24.502  29.888   5.786  1.00  0.00     0.213 HD
ENDBRANCH  33  36
ENDBRANCH  29  33
BRANCH  30  38
HETATM   38  O4  UNL     1      26.179  26.971   3.991  1.00  0.00    -0.356 OA
ATOM     39  H4  UNL     1      26.277  26.221   4.566  1.00  0.00     0.218 HD
ENDBRANCH  30  38
BRANCH  31  40
HETATM   40  O5  UNL     1      26.063  26.344   1.371  1.00  0.00    -0.355 OA
ATOM     41  H5  UNL     1      26.528  26.917   0.773  1.00  0.00     0.218 HD
ENDBRANCH  31  40
BRANCH  32  42
HETATM   42  O6  UNL     1      23.691  26.780  -0.112  1.00  0.00    -0.335 OA
BRANCH  42  43
HETATM   43  C11 UNL     1      23.155  25.620  -0.659  1.00  0.00     0.176 C 
BRANCH  43  44
HETATM   44  C12 UNL     1      23.806  25.236  -1.939  1.00  0.00     0.198 C 
BRANCH  44  45
HETATM   45  O7  UNL     1      23.192  24.274  -2.696  1.00  0.00    -0.398 OA
ATOM     46  H7  UNL     1      22.745  24.556  -3.485  1.00  0.00     0.209 HD
ENDBRANCH  44  45
ENDBRANCH  43  44
BRANCH  43  47
HETATM   47  C13 UNL     1      23.180  24.420   0.306  1.00  0.00     0.198 C 
BRANCH  47  48
HETATM   48  O8  UNL     1      22.006  23.670   0.019  1.00  0.00    -0.398 OA
ATOM     49  H8  UNL     1      21.635  23.440   0.863  1.00  0.00     0.209 HD
ENDBRANCH  47  48
ENDBRANCH  43  47
ENDBRANCH  42  43
ENDBRANCH  32  42
ENDBRANCH   1  27
TORSDOF 17
ENDMDL
MODEL 4
REMARK VINA RESULT: -6.598882689      2.467      5.813
REMARK  17 active torsions:
REMARK  status: ('A' for Active; 'I' for Inactive)
REMARK    1  A    between atoms: C2_2  and  N2_6 
REMARK    2  A    between atoms: N2_6  and  C3_8 
REMARK    3  A    between atoms: C4_11  and  N4_12 
REMARK    4  A    between atoms: N4_12  and  N5_14 
REMARK    5  A    between atoms: N5_14  and  C5_16 
REMARK    6  A    between atoms: C6_18  and  C7_19 
REMARK    7  A    between atoms: C7_19  and  O2_20 
REMARK    8  A    between atoms: C7_19  and  O3_22 
REMARK    9  A    between atoms: C8_24  and  O4_25 
REMARK   10  A    between atoms: C9_27  and  O5_28 
REMARK   11  A    between atoms: C10_30  and  O6_31 
REMARK   12  A    between atoms: O6_31  and  C11_32 
REMARK   13  A    between atoms: C11_32  and  C12_33 
REMARK   14  A    between atoms: C11_32  and  C13_36 
REMARK   15  A    between atoms: C12_33  and  O7_34 
REMARK   16  A    between atoms: C13_36  and  O8_37 
REMARK   17  A    between atoms: N6_39  and  C14_40 
ROOT
HETATM    1  N5  UNL     1      21.503  25.378   3.280  1.00  0.00    -0.263 N 
ATOM      2  H5  UNL     1      21.871  24.811   4.045  1.00  0.00     0.189 HD
ENDROOT
BRANCH   1   3
HETATM    3  N4  UNL     1      21.584  26.781   3.370  1.00  0.00    -0.129 N 
ATOM      4  H4  UNL     1      20.952  27.311   3.971  1.00  0.00     0.205 HD
BRANCH   3   5
HETATM    5  C4  UNL     1      22.578  27.430   2.590  1.00  0.00     0.712 C 
HETATM    6  N3  UNL     1      22.435  27.598   1.305  1.00  0.00    -0.184 N 
HETATM    7  C3  UNL     1      23.443  28.257   0.499  1.00  0.00     0.319 C 
ATOM      8  H3  UNL     1      21.587  27.254   0.852  1.00  0.00     0.181 HD
HETATM    9  N8  UNL     1      24.358  28.938   1.353  1.00  0.00    -0.278 N 
HETATM   10  N7  UNL     1      24.832  28.204   2.436  1.00  0.00    -0.005 NA
ATOM     11  H8  UNL     1      24.646  29.901   1.181  1.00  0.00     0.181 HD
HETATM   12  N6  UNL     1      23.748  27.900   3.234  1.00  0.00    -0.085 N 
BRANCH   7  13
HETATM   13  N2  UNL     1      24.056  27.289  -0.383  1.00  0.00    -0.342 N 
ATOM     14  H2  UNL     1      25.013  26.996  -0.184  1.00  0.00     0.164 HD
BRANCH  13  15
HETATM   15  C2  UNL     1      23.409  26.728  -1.498  1.00  0.00     0.069 C 
HETATM   16  C1  UNL     1      23.544  25.294  -1.861  1.00  0.00     0.088 C 
HETATM   17  N1  UNL     1      22.668  27.467  -2.243  1.00  0.00    -0.389 N 
ATOM     18  H12 UNL     1      22.198  27.060  -3.052  1.00  0.00     0.157 HD
ATOM     19  H11 UNL     1      22.575  28.452  -1.994  1.00  0.00     0.157 HD
ENDBRANCH  13  15
ENDBRANCH   7  13
BRANCH  12  20
HETATM   20  C14 UNL     1      23.831  28.066   4.657  1.00  0.00     0.295 C 
HETATM   21  C15 UNL     1      24.180  26.785   5.327  1.00  0.00     0.185 C 
HETATM   22  O9  UNL     1      23.408  25.973   5.795  1.00  0.00    -0.293 OA
HETATM   23  C16 UNL     1      25.661  26.691   5.311  1.00  0.00     0.260 C 
HETATM   24  O10 UNL     1      26.097  27.990   4.939  1.00  0.00    -0.312 OA
HETATM   25  C17 UNL     1      25.048  28.884   5.004  1.00  0.00     0.292 C 
HETATM   26  O11 UNL     1      25.005  30.103   5.275  1.00  0.00    -0.262 OA
ENDBRANCH  12  20
ENDBRANCH   3   5
ENDBRANCH   1   3
BRANCH   1  27
HETATM   27  C5  UNL     1      20.980  24.790   2.265  1.00  0.00     0.200 A 
HETATM   28  O1  UNL     1      20.573  25.509   1.233  1.00  0.00    -0.286 OA
HETATM   29  C6  UNL     1      20.039  24.950   0.174  1.00  0.00     0.145 A 
HETATM   30  C8  UNL     1      19.883  23.590   0.097  1.00  0.00     0.137 A 
HETATM   31  C9  UNL     1      20.311  22.829   1.184  1.00  0.00     0.140 A 
HETATM   32  C10 UNL     1      20.867  23.392   2.295  1.00  0.00     0.158 A 
BRANCH  29  33
HETATM   33  C7  UNL     1      19.603  25.813  -0.949  1.00  0.00     0.315 C 
BRANCH  33  34
HETATM   34  O2  UNL     1      20.115  27.097  -0.685  1.00  0.00    -0.365 OA
ATOM     35  H2  UNL     1      20.259  27.507  -1.530  1.00  0.00     0.213 HD
ENDBRANCH  33  34
BRANCH  33  36
HETATM   36  O3  UNL     1      20.200  25.398  -2.155  1.00  0.00    -0.365 OA
ATOM     37  H3  UNL     1      19.563  24.967  -2.713  1.00  0.00     0.213 HD
ENDBRANCH  33  36
ENDBRANCH  29  33
BRANCH  30  38
HETATM   38  O4  UNL     1      19.325  22.998  -1.008  1.00  0.00    -0.356 OA
ATOM     39  H4  UNL     1      18.914  22.143  -0.955  1.00  0.00     0.218 HD
ENDBRANCH  30  38
BRANCH  31  40
HETATM   40  O5  UNL     1      20.136  21.475   1.063  1.00  0.00    -0.355 OA
ATOM     41  H5  UNL     1      20.690  20.939   1.619  1.00  0.00     0.218 HD
ENDBRANCH  31  40
BRANCH  32  42
HETATM   42  O6  UNL     1      21.284  22.662   3.364  1.00  0.00    -0.335 OA
BRANCH  42  43
HETATM   43  C11 UNL     1      22.440  21.894   3.437  1.00  0.00     0.176 C 
BRANCH  43  44
HETATM   44  C12 UNL     1      23.458  22.474   4.352  1.00  0.00     0.198 C 
BRANCH  44  45
HETATM   45  O7  UNL     1      24.008  23.678   4.003  1.00  0.00    -0.398 OA
ATOM     46  H7  UNL     1      24.448  24.174   4.684  1.00  0.00     0.209 HD
ENDBRANCH  44  45
ENDBRANCH  43  44
BRANCH  43  47
HETATM   47  C13 UNL     1      22.178  20.427   3.828  1.00  0.00     0.198 C 
BRANCH  47  48
HETATM   48  O8  UNL     1      22.036  19.720   2.602  1.00  0.00    -0.398 OA
ATOM     49  H8  UNL     1      21.513  18.954   2.807  1.00  0.00     0.209 HD
ENDBRANCH  47  48
ENDBRANCH  43  47
ENDBRANCH  42  43
ENDBRANCH  32  42
ENDBRANCH   1  27
TORSDOF 17
ENDMDL
MODEL 5
REMARK VINA RESULT: -6.570994889      2.485      6.428
REMARK  17 active torsions:
REMARK  status: ('A' for Active; 'I' for Inactive)
REMARK    1  A    between atoms: C2_2  and  N2_6 
REMARK    2  A    between atoms: N2_6  and  C3_8 
REMARK    3  A    between atoms: C4_11  and  N4_12 
REMARK    4  A    between atoms: N4_12  and  N5_14 
REMARK    5  A    between atoms: N5_14  and  C5_16 
REMARK    6  A    between atoms: C6_18  and  C7_19 
REMARK    7  A    between atoms: C7_19  and  O2_20 
REMARK    8  A    between atoms: C7_19  and  O3_22 
REMARK    9  A    between atoms: C8_24  and  O4_25 
REMARK   10  A    between atoms: C9_27  and  O5_28 
REMARK   11  A    between atoms: C10_30  and  O6_31 
REMARK   12  A    between atoms: O6_31  and  C11_32 
REMARK   13  A    between atoms: C11_32  and  C12_33 
REMARK   14  A    between atoms: C11_32  and  C13_36 
REMARK   15  A    between atoms: C12_33  and  O7_34 
REMARK   16  A    between atoms: C13_36  and  O8_37 
REMARK   17  A    between atoms: N6_39  and  C14_40 
ROOT
HETATM    1  N5  UNL     1      22.985  26.177   3.573  1.00  0.00    -0.263 N 
ATOM      2  H5  UNL     1      22.184  25.879   4.132  1.00  0.00     0.189 HD
ENDROOT
BRANCH   1   3
HETATM    3  N4  UNL     1      23.234  25.539   2.342  1.00  0.00    -0.129 N 
ATOM      4  H4  UNL     1      24.136  25.628   1.873  1.00  0.00     0.205 HD
BRANCH   3   5
HETATM    5  C4  UNL     1      22.182  24.770   1.778  1.00  0.00     0.712 C 
HETATM    6  N3  UNL     1      21.408  24.027   2.519  1.00  0.00    -0.184 N 
HETATM    7  C3  UNL     1      20.332  23.237   1.956  1.00  0.00     0.319 C 
ATOM      8  H3  UNL     1      21.564  24.002   3.527  1.00  0.00     0.181 HD
HETATM    9  N8  UNL     1      20.081  23.668   0.621  1.00  0.00    -0.278 N 
HETATM   10  N7  UNL     1      21.205  23.824  -0.184  1.00  0.00    -0.005 NA
ATOM     11  H8  UNL     1      19.138  23.849   0.278  1.00  0.00     0.181 HD
HETATM   12  N6  UNL     1      21.980  24.817   0.377  1.00  0.00    -0.085 N 
BRANCH   7  13
HETATM   13  N2  UNL     1      20.656  21.833   2.079  1.00  0.00    -0.342 N 
ATOM     14  H2  UNL     1      20.502  21.231   1.270  1.00  0.00     0.164 HD
BRANCH  13  15
HETATM   15  C2  UNL     1      21.172  21.251   3.251  1.00  0.00     0.069 C 
HETATM   16  C1  UNL     1      20.394  21.173   4.513  1.00  0.00     0.088 C 
HETATM   17  N1  UNL     1      22.360  20.761   3.248  1.00  0.00    -0.389 N 
ATOM     18  H12 UNL     1      22.735  20.338   4.097  1.00  0.00     0.157 HD
ATOM     19  H11 UNL     1      22.895  20.814   2.381  1.00  0.00     0.157 HD
ENDBRANCH  13  15
ENDBRANCH   7  13
BRANCH  12  20
HETATM   20  C14 UNL     1      22.543  25.846  -0.449  1.00  0.00     0.295 C 
HETATM   21  C15 UNL     1      22.135  25.676  -1.869  1.00  0.00     0.185 C 
HETATM   22  O9  UNL     1      22.750  25.094  -2.740  1.00  0.00    -0.293 OA
HETATM   23  C16 UNL     1      20.825  26.357  -2.015  1.00  0.00     0.260 C 
HETATM   24  O10 UNL     1      20.685  27.120  -0.826  1.00  0.00    -0.312 OA
HETATM   25  C17 UNL     1      21.883  27.164  -0.141  1.00  0.00     0.292 C 
HETATM   26  O11 UNL     1      22.395  28.038   0.589  1.00  0.00    -0.262 OA
ENDBRANCH  12  20
ENDBRANCH   3   5
ENDBRANCH   1   3
BRANCH   1  27
HETATM   27  C5  UNL     1      23.734  27.122   4.014  1.00  0.00     0.200 A 
HETATM   28  O1  UNL     1      23.729  28.297   3.405  1.00  0.00    -0.286 OA
HETATM   29  C6  UNL     1      24.473  29.292   3.825  1.00  0.00     0.145 A 
HETATM   30  C8  UNL     1      25.289  29.150   4.918  1.00  0.00     0.137 A 
HETATM   31  C9  UNL     1      25.297  27.913   5.561  1.00  0.00     0.140 A 
HETATM   32  C10 UNL     1      24.531  26.866   5.139  1.00  0.00     0.158 A 
BRANCH  29  33
HETATM   33  C7  UNL     1      24.421  30.581   3.097  1.00  0.00     0.315 C 
BRANCH  33  34
HETATM   34  O2  UNL     1      23.506  30.406   2.043  1.00  0.00    -0.365 OA
ATOM     35  H2  UNL     1      23.693  31.089   1.409  1.00  0.00     0.213 HD
ENDBRANCH  33  34
BRANCH  33  36
HETATM   36  O3  UNL     1      23.881  31.592   3.916  1.00  0.00    -0.365 OA
ATOM     37  H3  UNL     1      23.101  31.962   3.520  1.00  0.00     0.213 HD
ENDBRANCH  33  36
ENDBRANCH  29  33
BRANCH  30  38
HETATM   38  O4  UNL     1      26.071  30.186   5.362  1.00  0.00    -0.356 OA
ATOM     39  H4  UNL     1      27.000  30.068   5.524  1.00  0.00     0.218 HD
ENDBRANCH  30  38
BRANCH  31  40
HETATM   40  O5  UNL     1      26.126  27.817   6.648  1.00  0.00    -0.355 OA
ATOM     41  H5  UNL     1      26.414  28.644   7.018  1.00  0.00     0.218 HD
ENDBRANCH  31  40
BRANCH  32  42
HETATM   42  O6  UNL     1      24.533  25.654   5.755  1.00  0.00    -0.335 OA
BRANCH  42  43
HETATM   43  C11 UNL     1      25.384  24.590   5.480  1.00  0.00     0.176 C 
BRANCH  43  44
HETATM   44  C12 UNL     1      24.654  23.320   5.231  1.00  0.00     0.198 C 
BRANCH  44  45
HETATM   45  O7  UNL     1      23.392  23.409   4.708  1.00  0.00    -0.398 OA
ATOM     46  H7  UNL     1      22.714  22.875   5.106  1.00  0.00     0.209 HD
ENDBRANCH  44  45
ENDBRANCH  43  44
BRANCH  43  47
HETATM   47  C13 UNL     1      26.347  24.864   4.308  1.00  0.00     0.198 C 
BRANCH  47  48
HETATM   48  O8  UNL     1      25.719  24.313   3.157  1.00  0.00    -0.398 OA
ATOM     49  H8  UNL     1      25.836  23.373   3.225  1.00  0.00     0.209 HD
ENDBRANCH  47  48
ENDBRANCH  43  47
ENDBRANCH  42  43
ENDBRANCH  32  42
ENDBRANCH   1  27
TORSDOF 17
ENDMDL
