MODEL 1
REMARK VINA RESULT: -7.803558272      0.000      0.000
REMARK  18 active torsions:
REMARK  status: ('A' for Active; 'I' for Inactive)
REMARK    1  A    between atoms: C2_2  and  O1_3 
REMARK    2  A    between atoms: C2_2  and  N1_5 
REMARK    3  A    between atoms: N1_5  and  S1_6 
REMARK    4  A    between atoms: N1_5  and  C15_47 
REMARK    5  A    between atoms: S1_6  and  C3_7 
REMARK    6  A    between atoms: C5_10  and  O2_11 
REMARK    7  A    between atoms: C9_23  and  N6_24 
REMARK    8  A    between atoms: N6_24  and  C10_26 
REMARK    9  A    between atoms: C10_26  and  C11_27 
REMARK   10  A    between atoms: C10_26  and  C12_29 
REMARK   11  A    between atoms: C12_29  and  N10_36 
REMARK   12  A    between atoms: N7_30  and  N8_32 
REMARK   13  A    between atoms: N8_32  and  N9_33 
REMARK   14  A    between atoms: N10_36  and  C13_38 
REMARK   15  A    between atoms: C13_38  and  N11_39 
REMARK   16  A    between atoms: C13_38  and  O3_43 
REMARK   17  A    between atoms: C15_47  and  O5_48 
REMARK   18  A    between atoms: C15_47  and  O6_50 
ROOT
HETATM    1  C3  UNL     1      22.722  25.860   1.461  1.00  0.00     0.087 C 
HETATM    2  C4  UNL     1      21.347  26.002   1.376  1.00  0.00     0.102 C 
HETATM    3  N2  UNL     1      20.694  26.541   2.493  1.00  0.00    -0.098 NA
HETATM    4  C5  UNL     1      20.503  25.668   0.303  1.00  0.00     0.109 C 
HETATM    5  C6  UNL     1      20.939  25.555  -0.990  1.00  0.00     0.097 A 
HETATM    6  C7  UNL     1      22.187  25.219  -1.505  1.00  0.00     0.125 A 
HETATM    7  N3  UNL     1      23.297  24.922  -0.767  1.00  0.00    -0.327 N 
ATOM      8  H3  UNL     1      23.959  24.248  -1.151  1.00  0.00     0.169 HD
HETATM    9  C8  UNL     1      23.577  25.471   0.455  1.00  0.00     0.120 C 
HETATM   10  N4  UNL     1      24.822  25.666   0.735  1.00  0.00    -0.384 N 
ATOM     11  H41 UNL     1      25.455  25.378  -0.011  1.00  0.00     0.157 HD
ATOM     12  H42 UNL     1      25.030  26.075   1.646  1.00  0.00     0.157 HD
HETATM   13  N5  UNL     1      22.099  25.245  -2.909  1.00  0.00    -0.325 N 
ATOM     14  H5  UNL     1      22.880  25.035  -3.531  1.00  0.00     0.169 HD
HETATM   15  C9  UNL     1      20.933  25.561  -3.315  1.00  0.00     0.155 A 
HETATM   16  C14 UNL     1      20.078  25.790  -2.145  1.00  0.00     0.232 A 
HETATM   17  O4  UNL     1      18.861  26.120  -2.131  1.00  0.00    -0.283 OA
ENDROOT
BRANCH  15  18
HETATM   18  N6  UNL     1      20.445  25.696  -4.677  1.00  0.00    -0.361 N 
ATOM     19  H6  UNL     1      20.684  26.537  -5.202  1.00  0.00     0.162 HD
BRANCH  18  20
HETATM   20  C10 UNL     1      19.656  24.710  -5.299  1.00  0.00     0.163 C 
BRANCH  20  21
HETATM   21  C11 UNL     1      18.594  25.291  -6.224  1.00  0.00     0.119 C 
HETATM   22  S2  UNL     1      17.259  26.069  -5.316  1.00  0.00    -0.095 SA
ENDBRANCH  20  21
BRANCH  20  23
HETATM   23  C12 UNL     1      20.445  23.702  -6.025  1.00  0.00     0.132 C 
HETATM   24  N7  UNL     1      21.042  22.693  -5.643  1.00  0.00    -0.202 N 
ATOM     25  H7  UNL     1      21.466  22.267  -6.467  1.00  0.00     0.205 HD
BRANCH  24  26
HETATM   26  N8  UNL     1      21.347  21.964  -4.648  1.00  0.00    -0.242 NA
BRANCH  26  27
HETATM   27  N9  UNL     1      21.623  21.302  -3.791  1.00  0.00    -0.260 N 
ATOM     28  H92 UNL     1      20.903  21.139  -4.494  1.00  0.00     0.193 HD
ATOM     29  H91 UNL     1      21.893  20.715  -3.001  1.00  0.00     0.193 HD
ENDBRANCH  26  27
ENDBRANCH  24  26
BRANCH  23  30
HETATM   30  N10 UNL     1      20.526  23.909  -7.487  1.00  0.00    -0.328 N 
ATOM     31  H10 UNL     1      19.687  24.176  -8.003  1.00  0.00     0.165 HD
BRANCH  30  32
HETATM   32  C13 UNL     1      21.762  23.743  -8.191  1.00  0.00     0.424 C 
BRANCH  32  33
HETATM   33  N11 UNL     1      21.880  22.347  -8.591  1.00  0.00    -0.035 N 
ATOM     34 3H11 UNL     1      22.762  21.928  -8.296  1.00  0.00     0.279 HD
ATOM     35 2H11 UNL     1      21.253  21.736  -8.067  1.00  0.00     0.279 HD
ATOM     36 1H11 UNL     1      21.735  22.287  -9.598  1.00  0.00     0.279 HD
ENDBRANCH  32  33
BRANCH  32  37
HETATM   37  O3  UNL     1      21.762  24.512  -9.340  1.00  0.00    -0.355 OA
ATOM     38  H3  UNL     1      22.227  24.061 -10.035  1.00  0.00     0.213 HD
ENDBRANCH  32  37
ENDBRANCH  30  32
ENDBRANCH  23  30
ENDBRANCH  20  23
ENDBRANCH  18  20
ENDBRANCH  15  18
BRANCH   4  39
HETATM   39  O2  UNL     1      19.194  25.451   0.568  1.00  0.00    -0.358 OA
ATOM     40  H2  UNL     1      18.833  24.597   0.364  1.00  0.00     0.217 HD
ENDBRANCH   4  39
BRANCH   1  41
HETATM   41  S1  UNL     1      23.383  26.237   3.076  1.00  0.00    -0.030 SA
BRANCH  41  42
HETATM   42  N1  UNL     1      24.153  27.825   3.101  1.00  0.00    -0.176 NA
BRANCH  42  43
HETATM   43  C2  UNL     1      23.995  28.353   4.434  1.00  0.00     0.204 C 
HETATM   44  C1  UNL     1      24.723  27.569   5.482  1.00  0.00     0.057 C 
BRANCH  43  45
HETATM   45  O1  UNL     1      24.357  29.684   4.546  1.00  0.00    -0.381 OA
ATOM     46  H1  UNL     1      23.764  30.110   5.155  1.00  0.00     0.211 HD
ENDBRANCH  43  45
ENDBRANCH  42  43
BRANCH  42  47
HETATM   47  C15 UNL     1      23.494  28.629   2.097  1.00  0.00     0.351 C 
BRANCH  47  48
HETATM   48  O5  UNL     1      24.295  29.604   1.563  1.00  0.00    -0.358 OA
ATOM     49  H5  UNL     1      24.693  29.359   0.736  1.00  0.00     0.214 HD
ENDBRANCH  47  48
BRANCH  47  50
HETATM   50  O6  UNL     1      22.298  29.129   2.621  1.00  0.00    -0.358 OA
ATOM     51  H6  UNL     1      21.931  29.760   2.013  1.00  0.00     0.214 HD
ENDBRANCH  47  50
ENDBRANCH  42  47
ENDBRANCH  41  42
ENDBRANCH   1  41
TORSDOF 18
ENDMDL
MODEL 2
REMARK VINA RESULT: -7.262684733      2.915      9.218
REMARK  18 active torsions:
REMARK  status: ('A' for Active; 'I' for Inactive)
REMARK    1  A    between atoms: C2_2  and  O1_3 
REMARK    2  A    between atoms: C2_2  and  N1_5 
REMARK    3  A    between atoms: N1_5  and  S1_6 
REMARK    4  A    between atoms: N1_5  and  C15_47 
REMARK    5  A    between atoms: S1_6  and  C3_7 
REMARK    6  A    between atoms: C5_10  and  O2_11 
REMARK    7  A    between atoms: C9_23  and  N6_24 
REMARK    8  A    between atoms: N6_24  and  C10_26 
REMARK    9  A    between atoms: C10_26  and  C11_27 
REMARK   10  A    between atoms: C10_26  and  C12_29 
REMARK   11  A    between atoms: C12_29  and  N10_36 
REMARK   12  A    between atoms: N7_30  and  N8_32 
REMARK   13  A    between atoms: N8_32  and  N9_33 
REMARK   14  A    between atoms: N10_36  and  C13_38 
REMARK   15  A    between atoms: C13_38  and  N11_39 
REMARK   16  A    between atoms: C13_38  and  O3_43 
REMARK   17  A    between atoms: C15_47  and  O5_48 
REMARK   18  A    between atoms: C15_47  and  O6_50 
ROOT
HETATM    1  C3  UNL     1      19.369  25.545  -2.136  1.00  0.00     0.087 C 
HETATM    2  C4  UNL     1      18.666  25.260  -0.978  1.00  0.00     0.102 C 
HETATM    3  N2  UNL     1      17.468  24.547  -1.120  1.00  0.00    -0.098 NA
HETATM    4  C5  UNL     1      18.995  25.601   0.345  1.00  0.00     0.109 C 
HETATM    5  C6  UNL     1      20.272  25.887   0.753  1.00  0.00     0.097 A 
HETATM    6  C7  UNL     1      21.356  26.407   0.055  1.00  0.00     0.125 A 
HETATM    7  N3  UNL     1      21.359  26.752  -1.267  1.00  0.00    -0.327 N 
ATOM      8  H3  UNL     1      21.953  27.529  -1.556  1.00  0.00     0.169 HD
HETATM    9  C8  UNL     1      20.615  26.122  -2.226  1.00  0.00     0.120 C 
HETATM   10  N4  UNL     1      21.134  26.039  -3.405  1.00  0.00    -0.384 N 
ATOM     11  H41 UNL     1      22.058  26.467  -3.472  1.00  0.00     0.157 HD
ATOM     12  H42 UNL     1      20.580  25.569  -4.121  1.00  0.00     0.157 HD
HETATM   13  N5  UNL     1      22.440  26.508   0.947  1.00  0.00    -0.325 N 
ATOM     14  H5  UNL     1      23.359  26.862   0.686  1.00  0.00     0.169 HD
HETATM   15  C9  UNL     1      22.141  26.106   2.119  1.00  0.00     0.155 A 
HETATM   16  C14 UNL     1      20.739  25.671   2.119  1.00  0.00     0.232 A 
HETATM   17  O4  UNL     1      20.074  25.209   3.086  1.00  0.00    -0.283 OA
ENDROOT
BRANCH  15  18
HETATM   18  N6  UNL     1      22.974  26.051   3.307  1.00  0.00    -0.361 N 
ATOM     19  H6  UNL     1      23.286  25.140   3.645  1.00  0.00     0.162 HD
BRANCH  18  20
HETATM   20  C10 UNL     1      23.369  27.205   4.009  1.00  0.00     0.163 C 
BRANCH  20  21
HETATM   21  C11 UNL     1      23.507  26.974   5.509  1.00  0.00     0.119 C 
HETATM   22  S2  UNL     1      22.781  25.418   6.022  1.00  0.00    -0.095 SA
ENDBRANCH  20  21
BRANCH  20  23
HETATM   23  C12 UNL     1      24.604  27.812   3.488  1.00  0.00     0.132 C 
HETATM   24  N7  UNL     1      25.408  27.436   2.632  1.00  0.00    -0.202 N 
ATOM     25  H7  UNL     1      26.133  28.152   2.568  1.00  0.00     0.205 HD
BRANCH  24  26
HETATM   26  N8  UNL     1      25.708  26.527   1.797  1.00  0.00    -0.242 NA
BRANCH  26  27
HETATM   27  N9  UNL     1      25.945  25.727   1.053  1.00  0.00    -0.260 N 
ATOM     28  H92 UNL     1      25.026  25.994   1.406  1.00  0.00     0.193 HD
ATOM     29  H91 UNL     1      26.187  25.003   0.376  1.00  0.00     0.193 HD
ENDBRANCH  26  27
ENDBRANCH  24  26
BRANCH  23  30
HETATM   30  N10 UNL     1      24.945  29.129   4.069  1.00  0.00    -0.328 N 
ATOM     31  H10 UNL     1      25.552  29.173   4.888  1.00  0.00     0.165 HD
BRANCH  30  32
HETATM   32  C13 UNL     1      24.436  30.342   3.503  1.00  0.00     0.424 C 
BRANCH  32  33
HETATM   33  N11 UNL     1      24.894  31.458   4.319  1.00  0.00    -0.035 N 
ATOM     34 3H11 UNL     1      24.440  31.488   5.232  1.00  0.00     0.279 HD
ATOM     35 2H11 UNL     1      25.853  31.338   4.644  1.00  0.00     0.279 HD
ATOM     36 1H11 UNL     1      24.764  32.320   3.789  1.00  0.00     0.279 HD
ENDBRANCH  32  33
BRANCH  32  37
HETATM   37  O3  UNL     1      24.939  30.517   2.227  1.00  0.00    -0.355 OA
ATOM     38  H3  UNL     1      25.656  31.140   2.242  1.00  0.00     0.213 HD
ENDBRANCH  32  37
ENDBRANCH  30  32
ENDBRANCH  23  30
ENDBRANCH  20  23
ENDBRANCH  18  20
ENDBRANCH  15  18
BRANCH   4  39
HETATM   39  O2  UNL     1      17.997  25.646   1.258  1.00  0.00    -0.358 OA
ATOM     40  H2  UNL     1      17.946  26.405   1.827  1.00  0.00     0.217 HD
ENDBRANCH   4  39
BRANCH   1  41
HETATM   41  S1  UNL     1      18.504  25.088  -3.630  1.00  0.00    -0.030 SA
BRANCH  41  42
HETATM   42  N1  UNL     1      17.558  26.438  -4.263  1.00  0.00    -0.176 NA
BRANCH  42  43
HETATM   43  C2  UNL     1      16.208  26.272  -3.785  1.00  0.00     0.204 C 
HETATM   44  C1  UNL     1      15.200  27.091  -4.530  1.00  0.00     0.057 C 
BRANCH  43  45
HETATM   45  O1  UNL     1      15.786  24.954  -3.774  1.00  0.00    -0.381 OA
ATOM     46  H1  UNL     1      16.539  24.392  -3.914  1.00  0.00     0.211 HD
ENDBRANCH  43  45
ENDBRANCH  42  43
BRANCH  42  47
HETATM   47  C15 UNL     1      17.656  26.383  -5.703  1.00  0.00     0.351 C 
BRANCH  47  48
HETATM   48  O5  UNL     1      17.700  25.107  -6.202  1.00  0.00    -0.358 OA
ATOM     49  H5  UNL     1      17.903  25.068  -7.130  1.00  0.00     0.214 HD
ENDBRANCH  47  48
BRANCH  47  50
HETATM   50  O6  UNL     1      18.732  27.172  -6.121  1.00  0.00    -0.358 OA
ATOM     51  H6  UNL     1      18.411  27.859  -6.694  1.00  0.00     0.214 HD
ENDBRANCH  47  50
ENDBRANCH  42  47
ENDBRANCH  41  42
ENDBRANCH   1  41
TORSDOF 18
ENDMDL
MODEL 3
REMARK VINA RESULT: -7.248941934      2.927      9.542
REMARK  18 active torsions:
REMARK  status: ('A' for Active; 'I' for Inactive)
REMARK    1  A    between atoms: C2_2  and  O1_3 
REMARK    2  A    between atoms: C2_2  and  N1_5 
REMARK    3  A    between atoms: N1_5  and  S1_6 
REMARK    4  A    between atoms: N1_5  and  C15_47 
REMARK    5  A    between atoms: S1_6  and  C3_7 
REMARK    6  A    between atoms: C5_10  and  O2_11 
REMARK    7  A    between atoms: C9_23  and  N6_24 
REMARK    8  A    between atoms: N6_24  and  C10_26 
REMARK    9  A    between atoms: C10_26  and  C11_27 
REMARK   10  A    between atoms: C10_26  and  C12_29 
REMARK   11  A    between atoms: C12_29  and  N10_36 
REMARK   12  A    between atoms: N7_30  and  N8_32 
REMARK   13  A    between atoms: N8_32  and  N9_33 
REMARK   14  A    between atoms: N10_36  and  C13_38 
REMARK   15  A    between atoms: C13_38  and  N11_39 
REMARK   16  A    between atoms: C13_38  and  O3_43 
REMARK   17  A    between atoms: C15_47  and  O5_48 
REMARK   18  A    between atoms: C15_47  and  O6_50 
ROOT
HETATM    1  C3  UNL     1      19.454  25.364  -1.543  1.00  0.00     0.087 C 
HETATM    2  C4  UNL     1      20.691  25.823  -1.963  1.00  0.00     0.102 C 
HETATM    3  N2  UNL     1      20.943  25.797  -3.342  1.00  0.00    -0.098 NA
HETATM    4  C5  UNL     1      21.748  26.316  -1.180  1.00  0.00     0.109 C 
HETATM    5  C6  UNL     1      21.576  26.830   0.078  1.00  0.00     0.097 A 
HETATM    6  C7  UNL     1      20.614  26.565   1.046  1.00  0.00     0.125 A 
HETATM    7  N3  UNL     1      19.579  25.683   0.918  1.00  0.00    -0.327 N 
ATOM      8  H3  UNL     1      19.256  25.201   1.757  1.00  0.00     0.169 HD
HETATM    9  C8  UNL     1      18.948  25.407  -0.264  1.00  0.00     0.120 C 
HETATM   10  N4  UNL     1      17.685  25.144  -0.203  1.00  0.00    -0.384 N 
ATOM     11  H41 UNL     1      17.310  25.177   0.745  1.00  0.00     0.157 HD
ATOM     12  H42 UNL     1      17.215  24.938  -1.084  1.00  0.00     0.157 HD
HETATM   13  N5  UNL     1      20.895  27.366   2.169  1.00  0.00    -0.325 N 
ATOM     14  H5  UNL     1      20.338  27.363   3.023  1.00  0.00     0.169 HD
HETATM   15  C9  UNL     1      21.926  28.095   1.997  1.00  0.00     0.155 A 
HETATM   16  C14 UNL     1      22.464  27.833   0.658  1.00  0.00     0.232 A 
HETATM   17  O4  UNL     1      23.476  28.357   0.115  1.00  0.00    -0.283 OA
ENDROOT
BRANCH  15  18
HETATM   18  N6  UNL     1      22.534  29.048   2.909  1.00  0.00    -0.361 N 
ATOM     19  H6  UNL     1      22.167  30.000   2.941  1.00  0.00     0.162 HD
BRANCH  18  20
HETATM   20  C10 UNL     1      23.610  28.709   3.752  1.00  0.00     0.163 C 
BRANCH  20  21
HETATM   21  C11 UNL     1      23.514  27.292   4.303  1.00  0.00     0.119 C 
HETATM   22  S2  UNL     1      24.756  26.967   5.554  1.00  0.00    -0.095 SA
ENDBRANCH  20  21
BRANCH  20  23
HETATM   23  C12 UNL     1      24.927  28.907   3.126  1.00  0.00     0.132 C 
HETATM   24  N7  UNL     1      25.585  28.205   2.355  1.00  0.00    -0.202 N 
ATOM     25  H7  UNL     1      26.450  28.709   2.158  1.00  0.00     0.205 HD
BRANCH  24  26
HETATM   26  N8  UNL     1      25.632  27.115   1.704  1.00  0.00    -0.242 NA
BRANCH  26  27
HETATM   27  N9  UNL     1      25.696  26.148   1.147  1.00  0.00    -0.260 N 
ATOM     28  H92 UNL     1      25.506  27.074   0.764  1.00  0.00     0.193 HD
ATOM     29  H91 UNL     1      25.759  25.253   0.661  1.00  0.00     0.193 HD
ENDBRANCH  26  27
ENDBRANCH  24  26
BRANCH  23  30
HETATM   30  N10 UNL     1      25.584  30.191   3.451  1.00  0.00    -0.328 N 
ATOM     31  H10 UNL     1      26.144  30.662   2.740  1.00  0.00     0.165 HD
BRANCH  30  32
HETATM   32  C13 UNL     1      25.448  30.785   4.748  1.00  0.00     0.424 C 
BRANCH  32  33
HETATM   33  N11 UNL     1      26.469  30.224   5.621  1.00  0.00    -0.035 N 
ATOM     34 3H11 UNL     1      26.078  29.817   6.471  1.00  0.00     0.279 HD
ATOM     35 2H11 UNL     1      26.887  29.375   5.240  1.00  0.00     0.279 HD
ATOM     36 1H11 UNL     1      27.161  30.948   5.816  1.00  0.00     0.279 HD
ENDBRANCH  32  33
BRANCH  32  37
HETATM   37  O3  UNL     1      25.663  32.149   4.669  1.00  0.00    -0.355 OA
ATOM     38  H3  UNL     1      24.833  32.612   4.694  1.00  0.00     0.213 HD
ENDBRANCH  32  37
ENDBRANCH  30  32
ENDBRANCH  23  30
ENDBRANCH  20  23
ENDBRANCH  18  20
ENDBRANCH  15  18
BRANCH   4  39
HETATM   39  O2  UNL     1      22.997  26.279  -1.701  1.00  0.00    -0.358 OA
ATOM     40  H2  UNL     1      23.629  26.917  -1.392  1.00  0.00     0.217 HD
ENDBRANCH   4  39
BRANCH   1  41
HETATM   41  S1  UNL     1      18.471  24.651  -2.852  1.00  0.00    -0.030 SA
BRANCH  41  42
HETATM   42  N1  UNL     1      17.771  25.901  -3.883  1.00  0.00    -0.176 NA
BRANCH  42  43
HETATM   43  C2  UNL     1      16.386  26.037  -3.505  1.00  0.00     0.204 C 
HETATM   44  C1  UNL     1      15.468  26.287  -4.662  1.00  0.00     0.057 C 
BRANCH  43  45
HETATM   45  O1  UNL     1      15.904  24.961  -2.782  1.00  0.00    -0.381 OA
ATOM     46  H1  UNL     1      16.337  24.944  -1.936  1.00  0.00     0.211 HD
ENDBRANCH  43  45
ENDBRANCH  42  43
BRANCH  42  47
HETATM   47  C15 UNL     1      17.941  25.465  -5.250  1.00  0.00     0.351 C 
BRANCH  47  48
HETATM   48  O5  UNL     1      18.880  24.478  -5.398  1.00  0.00    -0.358 OA
ATOM     49  H5  UNL     1      18.782  23.763  -4.781  1.00  0.00     0.214 HD
ENDBRANCH  47  48
BRANCH  47  50
HETATM   50  O6  UNL     1      18.183  26.578  -6.060  1.00  0.00    -0.358 OA
ATOM     51  H6  UNL     1      17.509  26.630  -6.728  1.00  0.00     0.214 HD
ENDBRANCH  47  50
ENDBRANCH  42  47
ENDBRANCH  41  42
ENDBRANCH   1  41
TORSDOF 18
ENDMDL
MODEL 4
REMARK VINA RESULT: -7.120740718      2.959      9.664
REMARK  18 active torsions:
REMARK  status: ('A' for Active; 'I' for Inactive)
REMARK    1  A    between atoms: C2_2  and  O1_3 
REMARK    2  A    between atoms: C2_2  and  N1_5 
REMARK    3  A    between atoms: N1_5  and  S1_6 
REMARK    4  A    between atoms: N1_5  and  C15_47 
REMARK    5  A    between atoms: S1_6  and  C3_7 
REMARK    6  A    between atoms: C5_10  and  O2_11 
REMARK    7  A    between atoms: C9_23  and  N6_24 
REMARK    8  A    between atoms: N6_24  and  C10_26 
REMARK    9  A    between atoms: C10_26  and  C11_27 
REMARK   10  A    between atoms: C10_26  and  C12_29 
REMARK   11  A    between atoms: C12_29  and  N10_36 
REMARK   12  A    between atoms: N7_30  and  N8_32 
REMARK   13  A    between atoms: N8_32  and  N9_33 
REMARK   14  A    between atoms: N10_36  and  C13_38 
REMARK   15  A    between atoms: C13_38  and  N11_39 
REMARK   16  A    between atoms: C13_38  and  O3_43 
REMARK   17  A    between atoms: C15_47  and  O5_48 
REMARK   18  A    between atoms: C15_47  and  O6_50 
ROOT
HETATM    1  C3  UNL     1      19.464  25.533  -1.611  1.00  0.00     0.087 C 
HETATM    2  C4  UNL     1      19.080  25.485  -0.282  1.00  0.00     0.102 C 
HETATM    3  N2  UNL     1      17.875  24.830   0.008  1.00  0.00    -0.098 NA
HETATM    4  C5  UNL     1      19.744  26.019   0.836  1.00  0.00     0.109 C 
HETATM    5  C6  UNL     1      21.086  26.292   0.853  1.00  0.00     0.097 A 
HETATM    6  C7  UNL     1      21.961  26.626  -0.176  1.00  0.00     0.125 A 
HETATM    7  N3  UNL     1      21.628  26.748  -1.494  1.00  0.00    -0.327 N 
ATOM      8  H3  UNL     1      22.139  27.431  -2.054  1.00  0.00     0.169 HD
HETATM    9  C8  UNL     1      20.653  26.013  -2.111  1.00  0.00     0.120 C 
HETATM   10  N4  UNL     1      20.849  25.708  -3.350  1.00  0.00    -0.384 N 
ATOM     11  H41 UNL     1      21.730  26.063  -3.720  1.00  0.00     0.157 HD
ATOM     12  H42 UNL     1      20.122  25.159  -3.810  1.00  0.00     0.157 HD
HETATM   13  N5  UNL     1      23.240  26.808   0.384  1.00  0.00    -0.325 N 
ATOM     14  H5  UNL     1      24.066  27.060  -0.158  1.00  0.00     0.169 HD
HETATM   15  C9  UNL     1      23.248  26.623   1.644  1.00  0.00     0.155 A 
HETATM   16  C14 UNL     1      21.887  26.277   2.073  1.00  0.00     0.232 A 
HETATM   17  O4  UNL     1      21.487  26.020   3.242  1.00  0.00    -0.283 OA
ENDROOT
BRANCH  15  18
HETATM   18  N6  UNL     1      24.359  26.714   2.575  1.00  0.00    -0.361 N 
ATOM     19  H6  UNL     1      24.981  25.912   2.677  1.00  0.00     0.162 HD
BRANCH  18  20
HETATM   20  C10 UNL     1      24.611  27.868   3.342  1.00  0.00     0.163 C 
BRANCH  20  21
HETATM   21  C11 UNL     1      23.523  28.925   3.206  1.00  0.00     0.119 C 
HETATM   22  S2  UNL     1      24.200  30.556   2.900  1.00  0.00    -0.095 SA
ENDBRANCH  20  21
BRANCH  20  23
HETATM   23  C12 UNL     1      24.847  27.583   4.766  1.00  0.00     0.132 C 
HETATM   24  N7  UNL     1      24.304  26.800   5.549  1.00  0.00    -0.202 N 
ATOM     25  H7  UNL     1      24.767  26.912   6.452  1.00  0.00     0.205 HD
BRANCH  24  26
HETATM   26  N8  UNL     1      23.407  25.913   5.698  1.00  0.00    -0.242 NA
BRANCH  26  27
HETATM   27  N9  UNL     1      22.600  25.153   5.838  1.00  0.00    -0.260 N 
ATOM     28  H92 UNL     1      22.817  25.945   6.441  1.00  0.00     0.193 HD
ATOM     29  H91 UNL     1      21.871  24.447   5.944  1.00  0.00     0.193 HD
ENDBRANCH  26  27
ENDBRANCH  24  26
BRANCH  23  30
HETATM   30  N10 UNL     1      25.953  28.349   5.380  1.00  0.00    -0.328 N 
ATOM     31  H10 UNL     1      26.911  28.175   5.078  1.00  0.00     0.165 HD
BRANCH  30  32
HETATM   32  C13 UNL     1      25.701  29.332   6.391  1.00  0.00     0.424 C 
BRANCH  32  33
HETATM   33  N11 UNL     1      26.471  30.527   6.073  1.00  0.00    -0.035 N 
ATOM     34 3H11 UNL     1      26.457  30.749   5.078  1.00  0.00     0.279 HD
ATOM     35 2H11 UNL     1      26.026  31.380   6.412  1.00  0.00     0.279 HD
ATOM     36 1H11 UNL     1      27.417  30.407   6.435  1.00  0.00     0.279 HD
ENDBRANCH  32  33
BRANCH  32  37
HETATM   37  O3  UNL     1      24.362  29.680   6.391  1.00  0.00    -0.355 OA
ATOM     38  H3  UNL     1      23.894  29.172   7.044  1.00  0.00     0.213 HD
ENDBRANCH  32  37
ENDBRANCH  30  32
ENDBRANCH  23  30
ENDBRANCH  20  23
ENDBRANCH  18  20
ENDBRANCH  15  18
BRANCH   4  39
HETATM   39  O2  UNL     1      19.016  26.272   1.948  1.00  0.00    -0.358 OA
ATOM     40  H2  UNL     1      18.841  25.551   2.541  1.00  0.00     0.217 HD
ENDBRANCH   4  39
BRANCH   1  41
HETATM   41  S1  UNL     1      18.236  24.889  -2.736  1.00  0.00    -0.030 SA
BRANCH  41  42
HETATM   42  N1  UNL     1      17.753  26.102  -3.923  1.00  0.00    -0.176 NA
BRANCH  42  43
HETATM   43  C2  UNL     1      16.347  26.358  -3.722  1.00  0.00     0.204 C 
HETATM   44  C1  UNL     1      15.818  27.493  -4.543  1.00  0.00     0.057 C 
BRANCH  43  45
HETATM   45  O1  UNL     1      15.550  25.248  -3.936  1.00  0.00    -0.381 OA
ATOM     46  H1  UNL     1      15.480  25.099  -4.872  1.00  0.00     0.211 HD
ENDBRANCH  43  45
ENDBRANCH  42  43
BRANCH  42  47
HETATM   47  C15 UNL     1      18.043  25.555  -5.228  1.00  0.00     0.351 C 
BRANCH  47  48
HETATM   48  O5  UNL     1      18.901  24.487  -5.197  1.00  0.00    -0.358 OA
ATOM     49  H5  UNL     1      18.476  23.663  -4.987  1.00  0.00     0.214 HD
ENDBRANCH  47  48
BRANCH  47  50
HETATM   50  O6  UNL     1      18.479  26.583  -6.071  1.00  0.00    -0.358 OA
ATOM     51  H6  UNL     1      18.615  26.234  -6.944  1.00  0.00     0.214 HD
ENDBRANCH  47  50
ENDBRANCH  42  47
ENDBRANCH  41  42
ENDBRANCH   1  41
TORSDOF 18
ENDMDL
MODEL 5
REMARK VINA RESULT: -7.093076955     12.517     16.556
REMARK  18 active torsions:
REMARK  status: ('A' for Active; 'I' for Inactive)
REMARK    1  A    between atoms: C2_2  and  O1_3 
REMARK    2  A    between atoms: C2_2  and  N1_5 
REMARK    3  A    between atoms: N1_5  and  S1_6 
REMARK    4  A    between atoms: N1_5  and  C15_47 
REMARK    5  A    between atoms: S1_6  and  C3_7 
REMARK    6  A    between atoms: C5_10  and  O2_11 
REMARK    7  A    between atoms: C9_23  and  N6_24 
REMARK    8  A    between atoms: N6_24  and  C10_26 
REMARK    9  A    between atoms: C10_26  and  C11_27 
REMARK   10  A    between atoms: C10_26  and  C12_29 
REMARK   11  A    between atoms: C12_29  and  N10_36 
REMARK   12  A    between atoms: N7_30  and  N8_32 
REMARK   13  A    between atoms: N8_32  and  N9_33 
REMARK   14  A    between atoms: N10_36  and  C13_38 
REMARK   15  A    between atoms: C13_38  and  N11_39 
REMARK   16  A    between atoms: C13_38  and  O3_43 
REMARK   17  A    between atoms: C15_47  and  O5_48 
REMARK   18  A    between atoms: C15_47  and  O6_50 
ROOT
HETATM    1  C3  UNL     1       8.171  28.309  -7.951  1.00  0.00     0.087 C 
HETATM    2  C4  UNL     1       6.905  28.282  -7.390  1.00  0.00     0.102 C 
HETATM    3  N2  UNL     1       5.849  27.889  -8.224  1.00  0.00    -0.098 NA
HETATM    4  C5  UNL     1       6.529  28.606  -6.076  1.00  0.00     0.109 C 
HETATM    5  C6  UNL     1       7.398  28.582  -5.017  1.00  0.00     0.097 A 
HETATM    6  C7  UNL     1       8.775  28.767  -4.965  1.00  0.00     0.125 A 
HETATM    7  N3  UNL     1       9.584  29.022  -6.036  1.00  0.00    -0.327 N 
ATOM      8  H3  UNL     1      10.408  29.604  -5.885  1.00  0.00     0.169 HD
HETATM    9  C8  UNL     1       9.359  28.544  -7.298  1.00  0.00     0.120 C 
HETATM   10  N4  UNL     1      10.399  28.263  -8.009  1.00  0.00    -0.384 N 
ATOM     11  H41 UNL     1      11.280  28.437  -7.525  1.00  0.00     0.157 HD
ATOM     12  H42 UNL     1      10.232  27.907  -8.950  1.00  0.00     0.157 HD
HETATM   13  N5  UNL     1       9.180  28.643  -3.623  1.00  0.00    -0.325 N 
ATOM     14  H5  UNL     1      10.146  28.736  -3.310  1.00  0.00     0.169 HD
HETATM   15  C9  UNL     1       8.202  28.401  -2.843  1.00  0.00     0.155 A 
HETATM   16  C14 UNL     1       6.973  28.337  -3.642  1.00  0.00     0.232 A 
HETATM   17  O4  UNL     1       5.798  28.117  -3.238  1.00  0.00    -0.283 OA
ENDROOT
BRANCH  15  18
HETATM   18  N6  UNL     1       8.207  28.206  -1.404  1.00  0.00    -0.361 N 
ATOM     19  H6  UNL     1       8.133  27.257  -1.037  1.00  0.00     0.162 HD
BRANCH  18  20
HETATM   20  C10 UNL     1       8.309  29.277  -0.495  1.00  0.00     0.163 C 
BRANCH  20  21
HETATM   21  C11 UNL     1       7.179  29.304   0.526  1.00  0.00     0.119 C 
HETATM   22  S2  UNL     1       6.625  27.657   0.963  1.00  0.00    -0.095 SA
ENDBRANCH  20  21
BRANCH  20  23
HETATM   23  C12 UNL     1       9.604  29.331   0.200  1.00  0.00     0.132 C 
HETATM   24  N7  UNL     1      10.282  28.458   0.748  1.00  0.00    -0.202 N 
ATOM     25  H7  UNL     1      11.119  28.914   1.111  1.00  0.00     0.205 HD
BRANCH  24  26
HETATM   26  N8  UNL     1      10.369  27.226   1.046  1.00  0.00    -0.242 NA
BRANCH  26  27
HETATM   27  N9  UNL     1      10.445  26.136   1.281  1.00  0.00    -0.260 N 
ATOM     28  H92 UNL     1      11.209  26.786   1.096  1.00  0.00     0.193 HD
ATOM     29  H91 UNL     1      10.489  25.140   1.497  1.00  0.00     0.193 HD
ENDBRANCH  26  27
ENDBRANCH  24  26
BRANCH  23  30
HETATM   30  N10 UNL     1      10.237  30.668   0.236  1.00  0.00    -0.328 N 
ATOM     31  H10 UNL     1      10.138  31.291  -0.566  1.00  0.00     0.165 HD
BRANCH  30  32
HETATM   32  C13 UNL     1      10.986  31.102   1.377  1.00  0.00     0.424 C 
BRANCH  32  33
HETATM   33  N11 UNL     1      11.358  32.496   1.180  1.00  0.00    -0.035 N 
ATOM     34 3H11 UNL     1      10.879  32.921   0.386  1.00  0.00     0.279 HD
ATOM     35 2H11 UNL     1      10.989  33.107   1.909  1.00  0.00     0.279 HD
ATOM     36 1H11 UNL     1      12.374  32.551   1.099  1.00  0.00     0.279 HD
ENDBRANCH  32  33
BRANCH  32  37
HETATM   37  O3  UNL     1      10.202  31.031   2.514  1.00  0.00    -0.355 OA
ATOM     38  H3  UNL     1      10.463  30.285   3.043  1.00  0.00     0.213 HD
ENDBRANCH  32  37
ENDBRANCH  30  32
ENDBRANCH  23  30
ENDBRANCH  20  23
ENDBRANCH  18  20
ENDBRANCH  15  18
BRANCH   4  39
HETATM   39  O2  UNL     1       5.241  28.957  -5.851  1.00  0.00    -0.358 OA
ATOM     40  H2  UNL     1       4.600  28.264  -5.752  1.00  0.00     0.217 HD
ENDBRANCH   4  39
BRANCH   1  41
HETATM   41  S1  UNL     1       8.182  27.999  -9.710  1.00  0.00    -0.030 SA
BRANCH  41  42
HETATM   42  N1  UNL     1       9.081  26.531 -10.098  1.00  0.00    -0.176 NA
BRANCH  42  43
HETATM   43  C2  UNL     1       9.825  26.794 -11.305  1.00  0.00     0.204 C 
HETATM   44  C1  UNL     1      10.002  28.251 -11.597  1.00  0.00     0.057 C 
BRANCH  43  45
HETATM   45  O1  UNL     1      11.066  26.183 -11.331  1.00  0.00    -0.381 OA
ATOM     46  H1  UNL     1      10.942  25.241 -11.316  1.00  0.00     0.211 HD
ENDBRANCH  43  45
ENDBRANCH  42  43
BRANCH  42  47
HETATM   47  C15 UNL     1       8.111  25.471 -10.255  1.00  0.00     0.351 C 
BRANCH  47  48
HETATM   48  O5  UNL     1       8.404  24.606 -11.277  1.00  0.00    -0.358 OA
ATOM     49  H5  UNL     1       7.940  23.779 -11.220  1.00  0.00     0.214 HD
ENDBRANCH  47  48
BRANCH  47  50
HETATM   50  O6  UNL     1       6.834  26.030 -10.359  1.00  0.00    -0.358 OA
ATOM     51  H6  UNL     1       6.205  25.450  -9.944  1.00  0.00     0.214 HD
ENDBRANCH  47  50
ENDBRANCH  42  47
ENDBRANCH  41  42
ENDBRANCH   1  41
TORSDOF 18
ENDMDL
