MODEL 1
REMARK VINA RESULT: -8.806982344      0.000      0.000
REMARK  17 active torsions:
REMARK  status: ('A' for Active; 'I' for Inactive)
REMARK    1  A    between atoms: S1_2  and  N1_4 
REMARK    2  A    between atoms: S1_2  and  C2_8 
REMARK    3  A    between atoms: N1_4  and  O2_6 
REMARK    4  A    between atoms: C3_11  and  C4_12 
REMARK    5  A    between atoms: C4_12  and  O3_13 
REMARK    6  A    between atoms: C4_12  and  N3_15 
REMARK    7  A    between atoms: N3_15  and  C5_17 
REMARK    8  A    between atoms: C5_17  and  C6_18 
REMARK    9  A    between atoms: C6_18  and  O4_19 
REMARK   10  A    between atoms: O4_19  and  N4_20 
REMARK   11  A    between atoms: N4_20  and  N5_22 
REMARK   12  A    between atoms: N5_22  and  N6_24 
REMARK   13  A    between atoms: C7_25  and  C8_26 
REMARK       I    between atoms: C8_26  and  N7_28 
REMARK   14  A    between atoms: N7_28  and  N8_30 
REMARK   15  A    between atoms: C10_36  and  N10_37 
REMARK   16  A    between atoms: N11_40  and  N12_41 
REMARK   17  A    between atoms: C11_44  and  N13_45 
ROOT
HETATM    1  N6  UNL     1      23.198  27.251   0.912  1.00  0.00    -0.199 N 
HETATM    2  C7  UNL     1      23.461  25.992   1.260  1.00  0.00     0.201 A 
HETATM    3  N9  UNL     1      24.054  25.992   2.485  1.00  0.00    -0.330 N 
ATOM      4  H9  UNL     1      24.378  25.177   3.006  1.00  0.00     0.168 HD
HETATM    5  C9  UNL     1      24.130  27.305   2.879  1.00  0.00     0.127 A 
HETATM    6  C10 UNL     1      24.509  27.923   4.093  1.00  0.00     0.169 A 
HETATM    7  N11 UNL     1      24.362  29.259   4.270  1.00  0.00    -0.075 N 
HETATM    8  C11 UNL     1      23.844  30.051   3.297  1.00  0.00     0.700 A 
HETATM    9  N14 UNL     1      23.476  29.476   2.146  1.00  0.00    -0.171 N 
ATOM     10  H14 UNL     1      23.085  30.055   1.403  1.00  0.00     0.186 HD
HETATM   11  C12 UNL     1      23.611  28.129   1.943  1.00  0.00     0.176 A 
ENDROOT
BRANCH   1  12
HETATM   12  N5  UNL     1      22.658  27.763  -0.184  1.00  0.00    -0.213 N 
ATOM     13  H5  UNL     1      23.122  28.610  -0.513  1.00  0.00     0.211 HD
BRANCH  12  14
HETATM   14  N4  UNL     1      21.780  27.444  -0.829  1.00  0.00    -0.192 N 
ATOM     15  H4  UNL     1      22.188  27.464  -1.764  1.00  0.00     0.217 HD
BRANCH  14  16
HETATM   16  O4  UNL     1      20.539  27.062  -1.078  1.00  0.00    -0.259 OA
BRANCH  16  17
HETATM   17  C6  UNL     1      20.326  25.938  -2.040  1.00  0.00     0.247 C 
BRANCH  17  18
HETATM   18  C5  UNL     1      18.890  25.547  -1.711  1.00  0.00     0.087 C 
BRANCH  18  19
HETATM   19  N3  UNL     1      18.072  25.012  -2.667  1.00  0.00    -0.370 N 
ATOM     20  H3  UNL     1      18.484  24.491  -3.441  1.00  0.00     0.161 HD
BRANCH  19  21
HETATM   21  C4  UNL     1      16.629  25.168  -2.606  1.00  0.00     0.272 C 
BRANCH  21  22
HETATM   22  C3  UNL     1      16.354  26.299  -3.594  1.00  0.00     0.101 A 
HETATM   23  N2  UNL     1      15.628  27.374  -3.430  1.00  0.00    -0.331 N 
HETATM   24  C2  UNL     1      15.614  28.104  -4.606  1.00  0.00     0.185 A 
ATOM     25  H2  UNL     1      15.146  27.633  -2.570  1.00  0.00     0.168 HD
HETATM   26  N16 UNL     1      16.345  27.427  -5.474  1.00  0.00    -0.321 N 
HETATM   27  C13 UNL     1      16.816  26.308  -4.902  1.00  0.00     0.145 A 
ATOM     28  H16 UNL     1      16.524  27.713  -6.437  1.00  0.00     0.169 HD
HETATM   29  N15 UNL     1      17.558  25.342  -5.615  1.00  0.00    -0.080 NA
BRANCH  24  30
HETATM   30  S1  UNL     1      14.590  29.523  -4.877  1.00  0.00     0.103 S 
HETATM   31  C1  UNL     1      12.951  29.007  -5.158  1.00  0.00     0.147 C 
HETATM   32  O1  UNL     1      15.200  30.388  -5.898  1.00  0.00    -0.240 OA
BRANCH  30  33
HETATM   33  N1  UNL     1      14.675  30.353  -3.508  1.00  0.00    -0.221 N 
ATOM     34  H1  UNL     1      15.051  31.300  -3.460  1.00  0.00     0.204 HD
BRANCH  33  35
HETATM   35  O2  UNL     1      14.196  29.678  -2.390  1.00  0.00    -0.282 OA
ATOM     36  H2  UNL     1      14.555  29.977  -1.562  1.00  0.00     0.245 HD
ENDBRANCH  33  35
ENDBRANCH  30  33
ENDBRANCH  24  30
ENDBRANCH  21  22
BRANCH  21  37
HETATM   37  O3  UNL     1      16.055  24.022  -3.139  1.00  0.00    -0.371 OA
ATOM     38  H3  UNL     1      15.780  23.487  -2.405  1.00  0.00     0.212 HD
ENDBRANCH  21  37
ENDBRANCH  19  21
ENDBRANCH  18  19
ENDBRANCH  17  18
ENDBRANCH  16  17
ENDBRANCH  14  16
ENDBRANCH  12  14
ENDBRANCH   1  12
BRANCH   2  39
HETATM   39  C8  UNL     1      22.838  24.745   0.668  1.00  0.00     0.305 C 
HETATM   40  O5  UNL     1      22.838  24.552  -0.496  1.00  0.00    -0.263 OA
HETATM   41  N7  UNL     1      22.319  23.963   1.765  1.00  0.00    -0.270 N 
ATOM     42  H7  UNL     1      22.462  24.390   2.681  1.00  0.00     0.189 HD
BRANCH  41  43
HETATM   43  N8  UNL     1      21.671  22.757   1.811  1.00  0.00    -0.342 N 
ATOM     44  H82 UNL     1      20.678  22.838   1.593  1.00  0.00     0.176 HD
ATOM     45  H81 UNL     1      21.994  21.812   2.020  1.00  0.00     0.176 HD
ENDBRANCH  41  43
ENDBRANCH   2  39
BRANCH   6  46
HETATM   46  N10 UNL     1      24.936  27.200   4.993  1.00  0.00    -0.382 N 
ATOM     47 2H10 UNL     1      25.925  27.187   5.241  1.00  0.00     0.157 HD
ATOM     48 1H10 UNL     1      24.259  26.637   5.508  1.00  0.00     0.157 HD
ENDBRANCH   6  46
BRANCH   8  49
HETATM   49  N13 UNL     1      23.675  31.312   3.478  1.00  0.00    -0.233 N 
ATOM     50 2H13 UNL     1      24.188  31.802   4.211  1.00  0.00     0.174 HD
ATOM     51 1H13 UNL     1      23.052  31.856   2.882  1.00  0.00     0.174 HD
ENDBRANCH   8  49
BRANCH   7  52
HETATM   52  N12 UNL     1      24.662  29.831   5.468  1.00  0.00    -0.322 N 
ATOM     53 2H12 UNL     1      25.401  30.532   5.493  1.00  0.00     0.178 HD
ATOM     54 1H12 UNL     1      24.119  29.599   6.300  1.00  0.00     0.178 HD
ENDBRANCH   7  52
TORSDOF 17
ENDMDL
MODEL 2
REMARK VINA RESULT: -8.651764522      1.636      2.426
REMARK  17 active torsions:
REMARK  status: ('A' for Active; 'I' for Inactive)
REMARK    1  A    between atoms: S1_2  and  N1_4 
REMARK    2  A    between atoms: S1_2  and  C2_8 
REMARK    3  A    between atoms: N1_4  and  O2_6 
REMARK    4  A    between atoms: C3_11  and  C4_12 
REMARK    5  A    between atoms: C4_12  and  O3_13 
REMARK    6  A    between atoms: C4_12  and  N3_15 
REMARK    7  A    between atoms: N3_15  and  C5_17 
REMARK    8  A    between atoms: C5_17  and  C6_18 
REMARK    9  A    between atoms: C6_18  and  O4_19 
REMARK   10  A    between atoms: O4_19  and  N4_20 
REMARK   11  A    between atoms: N4_20  and  N5_22 
REMARK   12  A    between atoms: N5_22  and  N6_24 
REMARK   13  A    between atoms: C7_25  and  C8_26 
REMARK       I    between atoms: C8_26  and  N7_28 
REMARK   14  A    between atoms: N7_28  and  N8_30 
REMARK   15  A    between atoms: C10_36  and  N10_37 
REMARK   16  A    between atoms: N11_40  and  N12_41 
REMARK   17  A    between atoms: C11_44  and  N13_45 
ROOT
HETATM    1  N6  UNL     1      22.530  25.718   0.459  1.00  0.00    -0.199 N 
HETATM    2  C7  UNL     1      22.897  26.364  -0.646  1.00  0.00     0.201 A 
HETATM    3  N9  UNL     1      23.357  27.597  -0.300  1.00  0.00    -0.330 N 
ATOM      4  H9  UNL     1      23.698  28.321  -0.932  1.00  0.00     0.168 HD
HETATM    5  C9  UNL     1      23.269  27.673   1.068  1.00  0.00     0.127 A 
HETATM    6  C10 UNL     1      23.718  28.629   2.008  1.00  0.00     0.169 A 
HETATM    7  N11 UNL     1      23.622  28.396   3.339  1.00  0.00    -0.075 N 
HETATM    8  C11 UNL     1      23.100  27.239   3.822  1.00  0.00     0.700 A 
HETATM    9  N14 UNL     1      22.678  26.324   2.942  1.00  0.00    -0.171 N 
ATOM     10  H14 UNL     1      22.282  25.449   3.285  1.00  0.00     0.186 HD
HETATM   11  C12 UNL     1      22.766  26.534   1.592  1.00  0.00     0.176 A 
ENDROOT
BRANCH   1  12
HETATM   12  N5  UNL     1      22.003  24.516   0.638  1.00  0.00    -0.213 N 
ATOM     13  H5  UNL     1      22.252  24.087   1.530  1.00  0.00     0.211 HD
BRANCH  12  14
HETATM   14  N4  UNL     1      21.328  23.869  -0.006  1.00  0.00    -0.192 N 
ATOM     15  H4  UNL     1      21.705  22.936   0.162  1.00  0.00     0.217 HD
BRANCH  14  16
HETATM   16  O4  UNL     1      20.338  23.617  -0.847  1.00  0.00    -0.259 OA
BRANCH  16  17
HETATM   17  C6  UNL     1      18.972  24.114  -0.499  1.00  0.00     0.247 C 
BRANCH  17  18
HETATM   18  C5  UNL     1      18.770  25.173  -1.575  1.00  0.00     0.087 C 
BRANCH  18  19
HETATM   19  N3  UNL     1      17.996  24.920  -2.673  1.00  0.00    -0.370 N 
ATOM     20  H3  UNL     1      18.442  24.607  -3.535  1.00  0.00     0.161 HD
BRANCH  19  21
HETATM   21  C4  UNL     1      16.553  25.085  -2.641  1.00  0.00     0.272 C 
BRANCH  21  22
HETATM   22  C3  UNL     1      16.307  26.239  -3.609  1.00  0.00     0.101 A 
HETATM   23  N2  UNL     1      15.588  27.317  -3.437  1.00  0.00    -0.331 N 
HETATM   24  C2  UNL     1      15.604  28.072  -4.597  1.00  0.00     0.185 A 
ATOM     25  H2  UNL     1      15.092  27.562  -2.581  1.00  0.00     0.168 HD
HETATM   26  N16 UNL     1      16.346  27.407  -5.465  1.00  0.00    -0.321 N 
HETATM   27  C13 UNL     1      16.796  26.271  -4.908  1.00  0.00     0.145 A 
ATOM     28  H16 UNL     1      16.546  27.711  -6.417  1.00  0.00     0.169 HD
HETATM   29  N15 UNL     1      17.543  25.314  -5.626  1.00  0.00    -0.080 NA
BRANCH  24  30
HETATM   30  S1  UNL     1      14.599  29.506  -4.857  1.00  0.00     0.103 S 
HETATM   31  C1  UNL     1      12.948  29.015  -5.113  1.00  0.00     0.147 C 
HETATM   32  O1  UNL     1      15.207  30.359  -5.890  1.00  0.00    -0.240 OA
BRANCH  30  33
HETATM   33  N1  UNL     1      14.716  30.338  -3.492  1.00  0.00    -0.221 N 
ATOM     34  H1  UNL     1      15.095  31.284  -3.454  1.00  0.00     0.204 HD
BRANCH  33  35
HETATM   35  O2  UNL     1      14.261  29.666  -2.362  1.00  0.00    -0.282 OA
ATOM     36  H2  UNL     1      14.073  30.225  -1.617  1.00  0.00     0.245 HD
ENDBRANCH  33  35
ENDBRANCH  30  33
ENDBRANCH  24  30
ENDBRANCH  21  22
BRANCH  21  37
HETATM   37  O3  UNL     1      15.984  23.955  -3.212  1.00  0.00    -0.371 OA
ATOM     38  H3  UNL     1      15.150  23.819  -2.778  1.00  0.00     0.212 HD
ENDBRANCH  21  37
ENDBRANCH  19  21
ENDBRANCH  18  19
ENDBRANCH  17  18
ENDBRANCH  16  17
ENDBRANCH  14  16
ENDBRANCH  12  14
ENDBRANCH   1  12
BRANCH   2  39
HETATM   39  C8  UNL     1      23.198  25.743  -1.994  1.00  0.00     0.305 C 
HETATM   40  O5  UNL     1      22.599  26.057  -2.963  1.00  0.00    -0.263 OA
HETATM   41  N7  UNL     1      24.271  24.797  -1.801  1.00  0.00    -0.270 N 
ATOM     42  H7  UNL     1      24.594  24.731  -0.836  1.00  0.00     0.189 HD
BRANCH  41  43
HETATM   43  N8  UNL     1      24.937  23.970  -2.667  1.00  0.00    -0.342 N 
ATOM     44  H82 UNL     1      25.422  24.483  -3.402  1.00  0.00     0.176 HD
ATOM     45  H81 UNL     1      25.034  22.955  -2.709  1.00  0.00     0.176 HD
ENDBRANCH  41  43
ENDBRANCH   2  39
BRANCH   6  46
HETATM   46  N10 UNL     1      24.234  29.659   1.573  1.00  0.00    -0.382 N 
ATOM     47 2H10 UNL     1      24.043  29.991   0.627  1.00  0.00     0.157 HD
ATOM     48 1H10 UNL     1      24.835  30.189   2.203  1.00  0.00     0.157 HD
ENDBRANCH   6  46
BRANCH   8  49
HETATM   49  N13 UNL     1      23.040  27.005   5.083  1.00  0.00    -0.233 N 
ATOM     50 2H13 UNL     1      23.712  27.433   5.721  1.00  0.00     0.174 HD
ATOM     51 1H13 UNL     1      22.310  26.415   5.481  1.00  0.00     0.174 HD
ENDBRANCH   8  49
BRANCH   7  52
HETATM   52  N12 UNL     1      24.124  29.292   4.232  1.00  0.00    -0.322 N 
ATOM     53 2H12 UNL     1      24.948  29.828   3.961  1.00  0.00     0.178 HD
ATOM     54 1H12 UNL     1      23.649  29.457   5.120  1.00  0.00     0.178 HD
ENDBRANCH   7  52
TORSDOF 17
ENDMDL
MODEL 3
REMARK VINA RESULT: -8.596809993      1.773      2.085
REMARK  17 active torsions:
REMARK  status: ('A' for Active; 'I' for Inactive)
REMARK    1  A    between atoms: S1_2  and  N1_4 
REMARK    2  A    between atoms: S1_2  and  C2_8 
REMARK    3  A    between atoms: N1_4  and  O2_6 
REMARK    4  A    between atoms: C3_11  and  C4_12 
REMARK    5  A    between atoms: C4_12  and  O3_13 
REMARK    6  A    between atoms: C4_12  and  N3_15 
REMARK    7  A    between atoms: N3_15  and  C5_17 
REMARK    8  A    between atoms: C5_17  and  C6_18 
REMARK    9  A    between atoms: C6_18  and  O4_19 
REMARK   10  A    between atoms: O4_19  and  N4_20 
REMARK   11  A    between atoms: N4_20  and  N5_22 
REMARK   12  A    between atoms: N5_22  and  N6_24 
REMARK   13  A    between atoms: C7_25  and  C8_26 
REMARK       I    between atoms: C8_26  and  N7_28 
REMARK   14  A    between atoms: N7_28  and  N8_30 
REMARK   15  A    between atoms: C10_36  and  N10_37 
REMARK   16  A    between atoms: N11_40  and  N12_41 
REMARK   17  A    between atoms: C11_44  and  N13_45 
ROOT
HETATM    1  N6  UNL     1      23.231  26.714  -0.805  1.00  0.00    -0.199 N 
HETATM    2  C7  UNL     1      23.952  25.648  -1.147  1.00  0.00     0.201 A 
HETATM    3  N9  UNL     1      24.802  25.348  -0.127  1.00  0.00    -0.330 N 
ATOM      4  H9  UNL     1      25.484  24.590  -0.103  1.00  0.00     0.168 HD
HETATM    5  C9  UNL     1      24.560  26.269   0.862  1.00  0.00     0.127 A 
HETATM    6  C10 UNL     1      25.017  26.391   2.195  1.00  0.00     0.169 A 
HETATM    7  N11 UNL     1      24.509  27.337   3.022  1.00  0.00    -0.075 N 
HETATM    8  C11 UNL     1      23.543  28.197   2.609  1.00  0.00     0.700 A 
HETATM    9  N14 UNL     1      23.098  28.087   1.352  1.00  0.00    -0.171 N 
ATOM     10  H14 UNL     1      22.374  28.725   1.022  1.00  0.00     0.186 HD
HETATM   11  C12 UNL     1      23.592  27.139   0.497  1.00  0.00     0.176 A 
ENDROOT
BRANCH   1  12
HETATM   12  N5  UNL     1      22.303  27.393  -1.462  1.00  0.00    -0.213 N 
ATOM     13  H5  UNL     1      22.632  28.282  -1.836  1.00  0.00     0.211 HD
BRANCH  12  14
HETATM   14  N4  UNL     1      21.212  27.177  -1.691  1.00  0.00    -0.192 N 
ATOM     15  H4  UNL     1      20.876  28.091  -1.995  1.00  0.00     0.217 HD
BRANCH  14  16
HETATM   16  O4  UNL     1      20.121  26.436  -1.794  1.00  0.00    -0.259 OA
BRANCH  16  17
HETATM   17  C6  UNL     1      19.682  25.656  -0.597  1.00  0.00     0.247 C 
BRANCH  17  18
HETATM   18  C5  UNL     1      18.562  24.816  -1.197  1.00  0.00     0.087 C 
BRANCH  18  19
HETATM   19  N3  UNL     1      17.968  25.175  -2.375  1.00  0.00    -0.370 N 
ATOM     20  H3  UNL     1      18.554  25.441  -3.167  1.00  0.00     0.161 HD
BRANCH  19  21
HETATM   21  C4  UNL     1      16.523  25.187  -2.525  1.00  0.00     0.272 C 
BRANCH  21  22
HETATM   22  C3  UNL     1      16.283  26.303  -3.538  1.00  0.00     0.101 A 
HETATM   23  N2  UNL     1      15.546  27.377  -3.418  1.00  0.00    -0.331 N 
HETATM   24  C2  UNL     1      15.576  28.091  -4.603  1.00  0.00     0.185 A 
ATOM     25  H2  UNL     1      15.030  27.645  -2.581  1.00  0.00     0.168 HD
HETATM   26  N16 UNL     1      16.344  27.407  -5.432  1.00  0.00    -0.321 N 
HETATM   27  C13 UNL     1      16.797  26.298  -4.827  1.00  0.00     0.145 A 
ATOM     28  H16 UNL     1      16.560  27.681  -6.390  1.00  0.00     0.169 HD
HETATM   29  N15 UNL     1      17.571  25.326  -5.496  1.00  0.00    -0.080 NA
BRANCH  24  30
HETATM   30  S1  UNL     1      14.558  29.502  -4.933  1.00  0.00     0.103 S 
HETATM   31  C1  UNL     1      12.920  28.979  -5.210  1.00  0.00     0.147 C 
HETATM   32  O1  UNL     1      15.178  30.329  -5.980  1.00  0.00    -0.240 OA
BRANCH  30  33
HETATM   33  N1  UNL     1      14.633  30.380  -3.594  1.00  0.00    -0.221 N 
ATOM     34  H1  UNL     1      14.904  31.363  -3.594  1.00  0.00     0.204 HD
BRANCH  33  35
HETATM   35  O2  UNL     1      14.299  29.694  -2.431  1.00  0.00    -0.282 OA
ATOM     36  H2  UNL     1      13.500  29.183  -2.487  1.00  0.00     0.245 HD
ENDBRANCH  33  35
ENDBRANCH  30  33
ENDBRANCH  24  30
ENDBRANCH  21  22
BRANCH  21  37
HETATM   37  O3  UNL     1      16.151  24.000  -3.141  1.00  0.00    -0.371 OA
ATOM     38  H3  UNL     1      15.408  23.661  -2.656  1.00  0.00     0.212 HD
ENDBRANCH  21  37
ENDBRANCH  19  21
ENDBRANCH  18  19
ENDBRANCH  17  18
ENDBRANCH  16  17
ENDBRANCH  14  16
ENDBRANCH  12  14
ENDBRANCH   1  12
BRANCH   2  39
HETATM   39  C8  UNL     1      23.624  24.651  -2.238  1.00  0.00     0.305 C 
HETATM   40  O5  UNL     1      22.532  24.559  -2.679  1.00  0.00    -0.263 OA
HETATM   41  N7  UNL     1      24.842  23.942  -2.552  1.00  0.00    -0.270 N 
ATOM     42  H7  UNL     1      25.645  24.235  -1.996  1.00  0.00     0.189 HD
BRANCH  41  43
HETATM   43  N8  UNL     1      25.124  22.950  -3.454  1.00  0.00    -0.342 N 
ATOM     44  H82 UNL     1      24.440  22.194  -3.431  1.00  0.00     0.176 HD
ATOM     45  H81 UNL     1      25.879  22.832  -4.131  1.00  0.00     0.176 HD
ENDBRANCH  41  43
ENDBRANCH   2  39
BRANCH   6  46
HETATM   46  N10 UNL     1      25.859  25.582   2.585  1.00  0.00    -0.382 N 
ATOM     47 2H10 UNL     1      25.693  24.994   3.402  1.00  0.00     0.157 HD
ATOM     48 1H10 UNL     1      26.718  25.495   2.043  1.00  0.00     0.157 HD
ENDBRANCH   6  46
BRANCH   8  49
HETATM   49  N13 UNL     1      23.040  29.072   3.403  1.00  0.00    -0.233 N 
ATOM     50 2H13 UNL     1      23.525  29.330   4.262  1.00  0.00     0.174 HD
ATOM     51 1H13 UNL     1      22.164  29.547   3.186  1.00  0.00     0.174 HD
ENDBRANCH   8  49
BRANCH   7  52
HETATM   52  N12 UNL     1      24.905  27.396   4.323  1.00  0.00    -0.322 N 
ATOM     53 2H12 UNL     1      25.225  26.535   4.766  1.00  0.00     0.178 HD
ATOM     54 1H12 UNL     1      24.931  28.290   4.813  1.00  0.00     0.178 HD
ENDBRANCH   7  52
TORSDOF 17
ENDMDL
MODEL 4
REMARK VINA RESULT: -8.417631093      2.060      3.568
REMARK  17 active torsions:
REMARK  status: ('A' for Active; 'I' for Inactive)
REMARK    1  A    between atoms: S1_2  and  N1_4 
REMARK    2  A    between atoms: S1_2  and  C2_8 
REMARK    3  A    between atoms: N1_4  and  O2_6 
REMARK    4  A    between atoms: C3_11  and  C4_12 
REMARK    5  A    between atoms: C4_12  and  O3_13 
REMARK    6  A    between atoms: C4_12  and  N3_15 
REMARK    7  A    between atoms: N3_15  and  C5_17 
REMARK    8  A    between atoms: C5_17  and  C6_18 
REMARK    9  A    between atoms: C6_18  and  O4_19 
REMARK   10  A    between atoms: O4_19  and  N4_20 
REMARK   11  A    between atoms: N4_20  and  N5_22 
REMARK   12  A    between atoms: N5_22  and  N6_24 
REMARK   13  A    between atoms: C7_25  and  C8_26 
REMARK       I    between atoms: C8_26  and  N7_28 
REMARK   14  A    between atoms: N7_28  and  N8_30 
REMARK   15  A    between atoms: C10_36  and  N10_37 
REMARK   16  A    between atoms: N11_40  and  N12_41 
REMARK   17  A    between atoms: C11_44  and  N13_45 
ROOT
HETATM    1  N6  UNL     1      22.298  24.593   0.736  1.00  0.00    -0.199 N 
HETATM    2  C7  UNL     1      22.096  25.902   0.875  1.00  0.00     0.201 A 
HETATM    3  N9  UNL     1      22.678  26.314   2.034  1.00  0.00    -0.330 N 
ATOM      4  H9  UNL     1      22.682  27.261   2.413  1.00  0.00     0.168 HD
HETATM    5  C9  UNL     1      23.258  25.202   2.593  1.00  0.00     0.127 A 
HETATM    6  C10 UNL     1      24.112  25.019   3.705  1.00  0.00     0.169 A 
HETATM    7  N11 UNL     1      24.664  23.810   3.968  1.00  0.00    -0.075 N 
HETATM    8  C11 UNL     1      24.426  22.733   3.177  1.00  0.00     0.700 A 
HETATM    9  N14 UNL     1      23.624  22.895   2.118  1.00  0.00    -0.171 N 
ATOM     10  H14 UNL     1      23.432  22.098   1.512  1.00  0.00     0.186 HD
HETATM   11  C12 UNL     1      23.056  24.106   1.828  1.00  0.00     0.176 A 
ENDROOT
BRANCH   1  12
HETATM   12  N5  UNL     1      21.909  23.741  -0.201  1.00  0.00    -0.213 N 
ATOM     13  H5  UNL     1      22.662  23.439  -0.819  1.00  0.00     0.211 HD
BRANCH  12  14
HETATM   14  N4  UNL     1      20.902  23.280  -0.450  1.00  0.00    -0.192 N 
ATOM     15  H4  UNL     1      21.121  22.283  -0.451  1.00  0.00     0.217 HD
BRANCH  14  16
HETATM   16  O4  UNL     1      19.612  23.279  -0.741  1.00  0.00    -0.259 OA
BRANCH  16  17
HETATM   17  C6  UNL     1      18.779  24.422  -0.259  1.00  0.00     0.247 C 
BRANCH  17  18
HETATM   18  C5  UNL     1      18.615  25.220  -1.547  1.00  0.00     0.087 C 
BRANCH  18  19
HETATM   19  N3  UNL     1      17.858  24.740  -2.579  1.00  0.00    -0.370 N 
ATOM     20  H3  UNL     1      18.312  24.222  -3.331  1.00  0.00     0.161 HD
BRANCH  19  21
HETATM   21  C4  UNL     1      16.421  24.951  -2.630  1.00  0.00     0.272 C 
BRANCH  21  22
HETATM   22  C3  UNL     1      16.272  26.143  -3.573  1.00  0.00     0.101 A 
HETATM   23  N2  UNL     1      15.544  27.218  -3.428  1.00  0.00    -0.331 N 
HETATM   24  C2  UNL     1      15.671  28.016  -4.551  1.00  0.00     0.185 A 
ATOM     25  H2  UNL     1      14.970  27.435  -2.614  1.00  0.00     0.168 HD
HETATM   26  N16 UNL     1      16.490  27.379  -5.370  1.00  0.00    -0.321 N 
HETATM   27  C13 UNL     1      16.881  26.221  -4.817  1.00  0.00     0.145 A 
ATOM     28  H16 UNL     1      16.780  27.718  -6.287  1.00  0.00     0.169 HD
HETATM   29  N15 UNL     1      17.689  25.286  -5.498  1.00  0.00    -0.080 NA
BRANCH  24  30
HETATM   30  S1  UNL     1      14.700  29.467  -4.850  1.00  0.00     0.103 S 
HETATM   31  C1  UNL     1      13.042  29.006  -5.114  1.00  0.00     0.147 C 
HETATM   32  O1  UNL     1      15.338  30.286  -5.893  1.00  0.00    -0.240 OA
BRANCH  30  33
HETATM   33  N1  UNL     1      14.822  30.322  -3.500  1.00  0.00    -0.221 N 
ATOM     34  H1  UNL     1      15.301  31.222  -3.460  1.00  0.00     0.204 HD
BRANCH  33  35
HETATM   35  O2  UNL     1      14.224  29.740  -2.388  1.00  0.00    -0.282 OA
ATOM     36  H2  UNL     1      14.023  30.345  -1.683  1.00  0.00     0.245 HD
ENDBRANCH  33  35
ENDBRANCH  30  33
ENDBRANCH  24  30
ENDBRANCH  21  22
BRANCH  21  37
HETATM   37  O3  UNL     1      15.855  23.859  -3.273  1.00  0.00    -0.371 OA
ATOM     38  H3  UNL     1      15.735  23.185  -2.614  1.00  0.00     0.212 HD
ENDBRANCH  21  37
ENDBRANCH  19  21
ENDBRANCH  18  19
ENDBRANCH  17  18
ENDBRANCH  16  17
ENDBRANCH  14  16
ENDBRANCH  12  14
ENDBRANCH   1  12
BRANCH   2  39
HETATM   39  C8  UNL     1      21.708  26.875  -0.218  1.00  0.00     0.305 C 
HETATM   40  O5  UNL     1      20.683  27.460  -0.184  1.00  0.00    -0.263 OA
HETATM   41  N7  UNL     1      22.785  26.894  -1.179  1.00  0.00    -0.270 N 
ATOM     42  H7  UNL     1      23.558  26.270  -0.945  1.00  0.00     0.189 HD
BRANCH  41  43
HETATM   43  N8  UNL     1      22.969  27.589  -2.345  1.00  0.00    -0.342 N 
ATOM     44  H82 UNL     1      22.330  27.292  -3.082  1.00  0.00     0.176 HD
ATOM     45  H81 UNL     1      23.615  28.335  -2.605  1.00  0.00     0.176 HD
ENDBRANCH  41  43
ENDBRANCH   2  39
BRANCH   6  46
HETATM   46  N10 UNL     1      24.366  26.005   4.398  1.00  0.00    -0.382 N 
ATOM     47 2H10 UNL     1      23.642  26.677   4.652  1.00  0.00     0.157 HD
ATOM     48 1H10 UNL     1      25.322  26.109   4.738  1.00  0.00     0.157 HD
ENDBRANCH   6  46
BRANCH   8  49
HETATM   49  N13 UNL     1      24.976  21.595   3.408  1.00  0.00    -0.233 N 
ATOM     50 2H13 UNL     1      25.181  21.306   4.365  1.00  0.00     0.174 HD
ATOM     51 1H13 UNL     1      25.194  20.946   2.653  1.00  0.00     0.174 HD
ENDBRANCH   8  49
BRANCH   7  52
HETATM   52  N12 UNL     1      25.542  23.664   4.999  1.00  0.00    -0.322 N 
ATOM     53 2H12 UNL     1      26.536  23.608   4.778  1.00  0.00     0.178 HD
ATOM     54 1H12 UNL     1      25.209  23.671   5.963  1.00  0.00     0.178 HD
ENDBRANCH   7  52
TORSDOF 17
ENDMDL
MODEL 5
REMARK VINA RESULT: -8.392743654      1.851      3.012
REMARK  17 active torsions:
REMARK  status: ('A' for Active; 'I' for Inactive)
REMARK    1  A    between atoms: S1_2  and  N1_4 
REMARK    2  A    between atoms: S1_2  and  C2_8 
REMARK    3  A    between atoms: N1_4  and  O2_6 
REMARK    4  A    between atoms: C3_11  and  C4_12 
REMARK    5  A    between atoms: C4_12  and  O3_13 
REMARK    6  A    between atoms: C4_12  and  N3_15 
REMARK    7  A    between atoms: N3_15  and  C5_17 
REMARK    8  A    between atoms: C5_17  and  C6_18 
REMARK    9  A    between atoms: C6_18  and  O4_19 
REMARK   10  A    between atoms: O4_19  and  N4_20 
REMARK   11  A    between atoms: N4_20  and  N5_22 
REMARK   12  A    between atoms: N5_22  and  N6_24 
REMARK   13  A    between atoms: C7_25  and  C8_26 
REMARK       I    between atoms: C8_26  and  N7_28 
REMARK   14  A    between atoms: N7_28  and  N8_30 
REMARK   15  A    between atoms: C10_36  and  N10_37 
REMARK   16  A    between atoms: N11_40  and  N12_41 
REMARK   17  A    between atoms: C11_44  and  N13_45 
ROOT
HETATM    1  N6  UNL     1      21.865  23.745   0.870  1.00  0.00    -0.199 N 
HETATM    2  C7  UNL     1      22.050  23.454   2.156  1.00  0.00     0.201 A 
HETATM    3  N9  UNL     1      22.811  24.431   2.720  1.00  0.00    -0.330 N 
ATOM      4  H9  UNL     1      23.126  24.477   3.689  1.00  0.00     0.168 HD
HETATM    5  C9  UNL     1      23.072  25.342   1.726  1.00  0.00     0.127 A 
HETATM    6  C10 UNL     1      23.681  26.617   1.728  1.00  0.00     0.169 A 
HETATM    7  N11 UNL     1      23.693  27.385   0.611  1.00  0.00    -0.075 N 
HETATM    8  C11 UNL     1      23.120  26.965  -0.546  1.00  0.00     0.700 A 
HETATM    9  N14 UNL     1      22.534  25.762  -0.557  1.00  0.00    -0.171 N 
ATOM     10  H14 UNL     1      22.099  25.428  -1.417  1.00  0.00     0.186 HD
HETATM   11  C12 UNL     1      22.506  24.968   0.558  1.00  0.00     0.176 A 
ENDROOT
BRANCH   1  12
HETATM   12  N5  UNL     1      21.225  23.097  -0.092  1.00  0.00    -0.213 N 
ATOM     13  H5  UNL     1      21.832  22.518  -0.672  1.00  0.00     0.211 HD
BRANCH  12  14
HETATM   14  N4  UNL     1      20.132  23.060  -0.398  1.00  0.00    -0.192 N 
ATOM     15  H4  UNL     1      20.136  22.326  -1.107  1.00  0.00     0.217 HD
BRANCH  14  16
HETATM   16  O4  UNL     1      18.857  23.411  -0.373  1.00  0.00    -0.259 OA
BRANCH  16  17
HETATM   17  C6  UNL     1      18.527  24.862  -0.239  1.00  0.00     0.247 C 
BRANCH  17  18
HETATM   18  C5  UNL     1      18.795  25.349  -1.657  1.00  0.00     0.087 C 
BRANCH  18  19
HETATM   19  N3  UNL     1      18.002  24.954  -2.698  1.00  0.00    -0.370 N 
ATOM     20  H3  UNL     1      18.435  24.535  -3.522  1.00  0.00     0.161 HD
BRANCH  19  21
HETATM   21  C4  UNL     1      16.559  25.114  -2.659  1.00  0.00     0.272 C 
BRANCH  21  22
HETATM   22  C3  UNL     1      16.305  26.262  -3.633  1.00  0.00     0.101 A 
HETATM   23  N2  UNL     1      15.573  27.332  -3.468  1.00  0.00    -0.331 N 
HETATM   24  C2  UNL     1      15.584  28.082  -4.630  1.00  0.00     0.185 A 
ATOM     25  H2  UNL     1      15.070  27.576  -2.615  1.00  0.00     0.168 HD
HETATM   26  N16 UNL     1      16.337  27.422  -5.493  1.00  0.00    -0.321 N 
HETATM   27  C13 UNL     1      16.797  26.294  -4.929  1.00  0.00     0.145 A 
ATOM     28  H16 UNL     1      16.538  27.725  -6.446  1.00  0.00     0.169 HD
HETATM   29  N15 UNL     1      17.558  25.343  -5.641  1.00  0.00    -0.080 NA
BRANCH  24  30
HETATM   30  S1  UNL     1      14.564  29.505  -4.900  1.00  0.00     0.103 S 
HETATM   31  C1  UNL     1      12.918  28.994  -5.151  1.00  0.00     0.147 C 
HETATM   32  O1  UNL     1      15.163  30.356  -5.940  1.00  0.00    -0.240 OA
BRANCH  30  33
HETATM   33  N1  UNL     1      14.675  30.347  -3.541  1.00  0.00    -0.221 N 
ATOM     34  H1  UNL     1      15.069  31.287  -3.506  1.00  0.00     0.204 HD
BRANCH  33  35
HETATM   35  O2  UNL     1      14.189  29.696  -2.413  1.00  0.00    -0.282 OA
ATOM     36  H2  UNL     1      13.242  29.630  -2.369  1.00  0.00     0.245 HD
ENDBRANCH  33  35
ENDBRANCH  30  33
ENDBRANCH  24  30
ENDBRANCH  21  22
BRANCH  21  37
HETATM   37  O3  UNL     1      15.990  23.979  -3.219  1.00  0.00    -0.371 OA
ATOM     38  H3  UNL     1      16.668  23.313  -3.236  1.00  0.00     0.212 HD
ENDBRANCH  21  37
ENDBRANCH  19  21
ENDBRANCH  18  19
ENDBRANCH  17  18
ENDBRANCH  16  17
ENDBRANCH  14  16
ENDBRANCH  12  14
ENDBRANCH   1  12
BRANCH   2  39
HETATM   39  C8  UNL     1      21.230  22.493   2.990  1.00  0.00     0.305 C 
HETATM   40  O5  UNL     1      20.295  21.930   2.538  1.00  0.00    -0.263 OA
HETATM   41  N7  UNL     1      21.821  22.454   4.306  1.00  0.00    -0.270 N 
ATOM     42  H7  UNL     1      22.635  23.060   4.411  1.00  0.00     0.189 HD
BRANCH  41  43
HETATM   43  N8  UNL     1      21.499  21.758   5.441  1.00  0.00    -0.342 N 
ATOM     44  H82 UNL     1      22.154  21.002   5.636  1.00  0.00     0.176 HD
ATOM     45  H81 UNL     1      20.738  21.857   6.114  1.00  0.00     0.176 HD
ENDBRANCH  41  43
ENDBRANCH   2  39
BRANCH   6  46
HETATM   46  N10 UNL     1      24.161  27.020   2.788  1.00  0.00    -0.382 N 
ATOM     47 2H10 UNL     1      23.738  27.792   3.303  1.00  0.00     0.157 HD
ATOM     48 1H10 UNL     1      24.979  26.532   3.152  1.00  0.00     0.157 HD
ENDBRANCH   6  46
BRANCH   8  49
HETATM   49  N13 UNL     1      23.103  27.707  -1.594  1.00  0.00    -0.233 N 
ATOM     50 2H13 UNL     1      23.693  27.482  -2.396  1.00  0.00     0.174 HD
ATOM     51 1H13 UNL     1      22.486  28.515  -1.665  1.00  0.00     0.174 HD
ENDBRANCH   8  49
BRANCH   7  52
HETATM   52  N12 UNL     1      24.218  28.641   0.645  1.00  0.00    -0.322 N 
ATOM     53 2H12 UNL     1      25.083  28.784   1.166  1.00  0.00     0.178 HD
ATOM     54 1H12 UNL     1      23.782  29.396   0.115  1.00  0.00     0.178 HD
ENDBRANCH   7  52
TORSDOF 17
ENDMDL
