MODEL 1
REMARK VINA RESULT: -8.821764102      0.000      0.000
REMARK  15 active torsions:
REMARK  status: ('A' for Active; 'I' for Inactive)
REMARK    1  A    between atoms: C1_4  and  O1_5 
REMARK    2  A    between atoms: C1_4  and  C17_43 
REMARK    3  A    between atoms: O1_5  and  C2_6 
REMARK    4  A    between atoms: C2_6  and  O2_7 
REMARK    5  A    between atoms: O2_7  and  C3_8 
REMARK    6  A    between atoms: C3_8  and  O3_9 
REMARK    7  A    between atoms: C3_8  and  C4_11 
REMARK    8  A    between atoms: C7_15  and  O5_16 
REMARK    9  A    between atoms: C8_18  and  C9_19 
REMARK   10  A    between atoms: C9_19  and  O6_20 
REMARK   11  A    between atoms: C9_19  and  C10_22 
REMARK   12  A    between atoms: C11_24  and  N2_25 
REMARK   13  A    between atoms: C13_31  and  N6_32 
REMARK   14  A    between atoms: N6_32  and  N7_33 
REMARK   15  A    between atoms: C14_36  and  C15_37 
ROOT
HETATM    1  C9  UNL     1      17.152  24.904  -2.101  1.00  0.00     0.237 C 
ENDROOT
BRANCH   1   2
HETATM    2  C8  UNL     1      16.967  25.764  -3.300  1.00  0.00     0.125 A 
HETATM    3  C7  UNL     1      17.684  25.516  -4.449  1.00  0.00     0.149 A 
HETATM    4  C6  UNL     1      17.467  26.350  -5.527  1.00  0.00     0.210 A 
HETATM    5  C5  UNL     1      16.556  27.381  -5.413  1.00  0.00     0.095 A 
HETATM    6  O4  UNL     1      18.108  26.148  -6.591  1.00  0.00    -0.285 OA
HETATM    7  C4  UNL     1      15.871  27.573  -4.233  1.00  0.00     0.112 A 
HETATM    8  O10 UNL     1      16.115  26.760  -3.254  1.00  0.00    -0.308 OA
BRANCH   3   9
HETATM    9  O5  UNL     1      18.604  24.453  -4.523  1.00  0.00    -0.355 OA
ATOM     10  H5  UNL     1      19.025  24.111  -3.743  1.00  0.00     0.218 HD
ENDBRANCH   3   9
BRANCH   7  11
HETATM   11  C3  UNL     1      14.882  28.699  -4.120  1.00  0.00     0.318 C 
BRANCH  11  12
HETATM   12  O2  UNL     1      15.210  29.765  -4.921  1.00  0.00    -0.331 OA
BRANCH  12  13
HETATM   13  C2  UNL     1      14.192  30.716  -5.000  1.00  0.00     0.350 C 
BRANCH  13  14
HETATM   14  O1  UNL     1      12.936  30.140  -5.297  1.00  0.00    -0.306 OA
BRANCH  14  15
HETATM   15  C1  UNL     1      12.563  29.725  -6.557  1.00  0.00     0.204 C 
HETATM   16  N1  UNL     1      13.388  29.817  -7.533  1.00  0.00    -0.376 N 
ATOM     17  H12 UNL     1      14.317  30.200  -7.357  1.00  0.00     0.158 HD
ATOM     18  H11 UNL     1      13.112  29.510  -8.466  1.00  0.00     0.158 HD
BRANCH  15  19
HETATM   19  C17 UNL     1      11.232  29.176  -6.809  1.00  0.00     0.305 C 
HETATM   20  N9  UNL     1      10.249  29.137  -5.784  1.00  0.00    -0.054 NA
HETATM   21  O11 UNL     1      10.954  28.731  -7.953  1.00  0.00    -0.267 OA
ENDBRANCH  15  19
ENDBRANCH  14  15
ENDBRANCH  13  14
ENDBRANCH  12  13
ENDBRANCH  11  12
BRANCH  11  22
HETATM   22  O3  UNL     1      14.811  29.143  -2.800  1.00  0.00    -0.365 OA
ATOM     23  H3  UNL     1      14.048  29.702  -2.711  1.00  0.00     0.213 HD
ENDBRANCH  11  22
ENDBRANCH   7  11
ENDBRANCH   1   2
BRANCH   1  24
HETATM   24  O6  UNL     1      17.102  23.587  -2.504  1.00  0.00    -0.382 OA
ATOM     25  H6  UNL     1      17.777  23.109  -2.038  1.00  0.00     0.211 HD
ENDBRANCH   1  24
BRANCH   1  26
HETATM   26  C10 UNL     1      18.410  25.230  -1.380  1.00  0.00     0.116 A 
HETATM   27  O7  UNL     1      19.571  25.546  -1.878  1.00  0.00    -0.291 OA
HETATM   28  C11 UNL     1      20.467  25.774  -0.916  1.00  0.00     0.174 A 
HETATM   29  C14 UNL     1      19.877  25.599   0.310  1.00  0.00     0.119 A 
HETATM   30  C16 UNL     1      18.550  25.250  -0.010  1.00  0.00     0.100 A 
HETATM   31  N8  UNL     1      17.555  24.971   0.975  1.00  0.00    -0.098 NA
BRANCH  28  32
HETATM   32  N2  UNL     1      21.829  26.139  -1.150  1.00  0.00    -0.263 N 
HETATM   33  C12 UNL     1      22.631  25.649  -2.245  1.00  0.00     0.211 C 
HETATM   34  N3  UNL     1      22.475  24.435  -2.952  1.00  0.00    -0.062 NA
HETATM   35  N4  UNL     1      23.553  26.520  -2.505  1.00  0.00    -0.274 N 
HETATM   36  N5  UNL     1      23.430  27.601  -1.634  1.00  0.00    -0.093 NA
ATOM     37  H4  UNL     1      24.260  26.428  -3.234  1.00  0.00     0.185 HD
HETATM   38  C13 UNL     1      22.699  27.056  -0.468  1.00  0.00     0.322 C 
BRANCH  38  39
HETATM   39  N6  UNL     1      23.700  26.429   0.351  1.00  0.00    -0.103 NA
BRANCH  39  40
HETATM   40  N7  UNL     1      23.524  26.671   1.704  1.00  0.00    -0.345 N 
ATOM     41  H72 UNL     1      23.803  27.546   2.148  1.00  0.00     0.172 HD
ATOM     42  H71 UNL     1      23.092  25.889   2.196  1.00  0.00     0.172 HD
ENDBRANCH  39  40
ENDBRANCH  38  39
ENDBRANCH  28  32
BRANCH  29  43
HETATM   43  C15 UNL     1      20.405  25.712   1.661  1.00  0.00     0.215 C 
HETATM   44  O8  UNL     1      20.323  26.718   2.388  1.00  0.00    -0.644 OA
HETATM   45  O9  UNL     1      21.064  24.616   2.219  1.00  0.00    -0.644 OA
ENDBRANCH  29  43
ENDBRANCH   1  26
TORSDOF 15
ENDMDL
MODEL 2
REMARK VINA RESULT: -8.610422494      2.459     11.454
REMARK  15 active torsions:
REMARK  status: ('A' for Active; 'I' for Inactive)
REMARK    1  A    between atoms: C1_4  and  O1_5 
REMARK    2  A    between atoms: C1_4  and  C17_43 
REMARK    3  A    between atoms: O1_5  and  C2_6 
REMARK    4  A    between atoms: C2_6  and  O2_7 
REMARK    5  A    between atoms: O2_7  and  C3_8 
REMARK    6  A    between atoms: C3_8  and  O3_9 
REMARK    7  A    between atoms: C3_8  and  C4_11 
REMARK    8  A    between atoms: C7_15  and  O5_16 
REMARK    9  A    between atoms: C8_18  and  C9_19 
REMARK   10  A    between atoms: C9_19  and  O6_20 
REMARK   11  A    between atoms: C9_19  and  C10_22 
REMARK   12  A    between atoms: C11_24  and  N2_25 
REMARK   13  A    between atoms: C13_31  and  N6_32 
REMARK   14  A    between atoms: N6_32  and  N7_33 
REMARK   15  A    between atoms: C14_36  and  C15_37 
ROOT
HETATM    1  C9  UNL     1      12.956  29.724  -6.951  1.00  0.00     0.237 C 
ENDROOT
BRANCH   1   2
HETATM    2  C8  UNL     1      13.763  29.299  -5.776  1.00  0.00     0.125 A 
HETATM    3  C7  UNL     1      13.960  30.163  -4.721  1.00  0.00     0.149 A 
HETATM    4  C6  UNL     1      14.719  29.709  -3.661  1.00  0.00     0.210 A 
HETATM    5  C5  UNL     1      15.241  28.431  -3.699  1.00  0.00     0.095 A 
HETATM    6  O4  UNL     1      14.917  30.476  -2.682  1.00  0.00    -0.285 OA
HETATM    7  C4  UNL     1      15.005  27.619  -4.787  1.00  0.00     0.112 A 
HETATM    8  O10 UNL     1      14.286  28.096  -5.753  1.00  0.00    -0.308 OA
BRANCH   3   9
HETATM    9  O5  UNL     1      13.410  31.458  -4.722  1.00  0.00    -0.355 OA
ATOM     10  H5  UNL     1      12.760  31.717  -5.365  1.00  0.00     0.218 HD
ENDBRANCH   3   9
BRANCH   7  11
HETATM   11  C3  UNL     1      15.579  26.230  -4.817  1.00  0.00     0.318 C 
BRANCH  11  12
HETATM   12  O2  UNL     1      15.703  25.688  -3.562  1.00  0.00    -0.331 OA
BRANCH  12  13
HETATM   13  C2  UNL     1      16.952  25.105  -3.345  1.00  0.00     0.350 C 
BRANCH  13  14
HETATM   14  O1  UNL     1      17.859  25.989  -2.717  1.00  0.00    -0.306 OA
BRANCH  14  15
HETATM   15  C1  UNL     1      18.731  25.610  -1.721  1.00  0.00     0.204 C 
HETATM   16  N1  UNL     1      18.311  24.914  -0.730  1.00  0.00    -0.376 N 
ATOM     17  H12 UNL     1      17.325  24.651  -0.698  1.00  0.00     0.158 HD
ATOM     18  H11 UNL     1      18.957  24.633   0.008  1.00  0.00     0.158 HD
BRANCH  15  19
HETATM   19  C17 UNL     1      20.143  25.987  -1.767  1.00  0.00     0.305 C 
HETATM   20  N9  UNL     1      20.617  27.138  -1.083  1.00  0.00    -0.054 NA
HETATM   21  O11 UNL     1      20.950  25.279  -2.425  1.00  0.00    -0.267 OA
ENDBRANCH  15  19
ENDBRANCH  14  15
ENDBRANCH  13  14
ENDBRANCH  12  13
ENDBRANCH  11  12
BRANCH  11  22
HETATM   22  O3  UNL     1      16.836  26.246  -5.419  1.00  0.00    -0.365 OA
ATOM     23  H3  UNL     1      16.812  26.852  -6.151  1.00  0.00     0.213 HD
ENDBRANCH  11  22
ENDBRANCH   7  11
ENDBRANCH   1   2
BRANCH   1  24
HETATM   24  O6  UNL     1      13.560  29.234  -8.088  1.00  0.00    -0.382 OA
ATOM     25  H6  UNL     1      12.961  28.625  -8.503  1.00  0.00     0.211 HD
ENDBRANCH   1  24
BRANCH   1  26
HETATM   26  C10 UNL     1      11.539  29.291  -6.828  1.00  0.00     0.116 A 
HETATM   27  O7  UNL     1      10.749  29.383  -5.798  1.00  0.00    -0.291 OA
HETATM   28  C11 UNL     1       9.540  28.886  -6.065  1.00  0.00     0.174 A 
HETATM   29  C14 UNL     1       9.510  28.427  -7.358  1.00  0.00     0.119 A 
HETATM   30  C16 UNL     1      10.808  28.698  -7.834  1.00  0.00     0.100 A 
HETATM   31  N8  UNL     1      11.237  28.383  -9.159  1.00  0.00    -0.098 NA
BRANCH  28  32
HETATM   32  N2  UNL     1       8.458  28.845  -5.132  1.00  0.00    -0.263 N 
HETATM   33  C12 UNL     1       8.498  28.159  -3.863  1.00  0.00     0.211 C 
HETATM   34  N3  UNL     1       9.300  27.051  -3.507  1.00  0.00    -0.062 NA
HETATM   35  N4  UNL     1       7.660  28.729  -3.058  1.00  0.00    -0.274 N 
HETATM   36  N5  UNL     1       7.034  29.788  -3.712  1.00  0.00    -0.093 NA
ATOM     37  H4  UNL     1       7.486  28.447  -2.094  1.00  0.00     0.185 HD
HETATM   38  C13 UNL     1       7.162  29.462  -5.151  1.00  0.00     0.322 C 
BRANCH  38  39
HETATM   39  N6  UNL     1       6.078  28.562  -5.436  1.00  0.00    -0.103 NA
BRANCH  39  40
HETATM   40  N7  UNL     1       5.288  28.982  -6.495  1.00  0.00    -0.345 N 
ATOM     41  H72 UNL     1       5.441  29.868  -6.977  1.00  0.00     0.172 HD
ATOM     42  H71 UNL     1       4.552  28.317  -6.731  1.00  0.00     0.172 HD
ENDBRANCH  39  40
ENDBRANCH  38  39
ENDBRANCH  28  32
BRANCH  29  43
HETATM   43  C15 UNL     1       8.455  27.794  -8.133  1.00  0.00     0.215 C 
HETATM   44  O8  UNL     1       8.414  26.592  -8.455  1.00  0.00    -0.644 OA
HETATM   45  O9  UNL     1       7.381  28.571  -8.569  1.00  0.00    -0.644 OA
ENDBRANCH  29  43
ENDBRANCH   1  26
TORSDOF 15
ENDMDL
MODEL 3
REMARK VINA RESULT: -8.551234689      3.740     11.307
REMARK  15 active torsions:
REMARK  status: ('A' for Active; 'I' for Inactive)
REMARK    1  A    between atoms: C1_4  and  O1_5 
REMARK    2  A    between atoms: C1_4  and  C17_43 
REMARK    3  A    between atoms: O1_5  and  C2_6 
REMARK    4  A    between atoms: C2_6  and  O2_7 
REMARK    5  A    between atoms: O2_7  and  C3_8 
REMARK    6  A    between atoms: C3_8  and  O3_9 
REMARK    7  A    between atoms: C3_8  and  C4_11 
REMARK    8  A    between atoms: C7_15  and  O5_16 
REMARK    9  A    between atoms: C8_18  and  C9_19 
REMARK   10  A    between atoms: C9_19  and  O6_20 
REMARK   11  A    between atoms: C9_19  and  C10_22 
REMARK   12  A    between atoms: C11_24  and  N2_25 
REMARK   13  A    between atoms: C13_31  and  N6_32 
REMARK   14  A    between atoms: N6_32  and  N7_33 
REMARK   15  A    between atoms: C14_36  and  C15_37 
ROOT
HETATM    1  C9  UNL     1      13.056  29.428  -7.123  1.00  0.00     0.237 C 
ENDROOT
BRANCH   1   2
HETATM    2  C8  UNL     1      13.798  29.171  -5.860  1.00  0.00     0.125 A 
HETATM    3  C7  UNL     1      13.802  30.111  -4.854  1.00  0.00     0.149 A 
HETATM    4  C6  UNL     1      14.509  29.813  -3.707  1.00  0.00     0.210 A 
HETATM    5  C5  UNL     1      15.173  28.605  -3.615  1.00  0.00     0.095 A 
HETATM    6  O4  UNL     1      14.531  30.654  -2.770  1.00  0.00    -0.285 OA
HETATM    7  C4  UNL     1      15.127  27.709  -4.660  1.00  0.00     0.112 A 
HETATM    8  O10 UNL     1      14.448  28.041  -5.712  1.00  0.00    -0.308 OA
BRANCH   3   9
HETATM    9  O5  UNL     1      13.112  31.331  -4.989  1.00  0.00    -0.355 OA
ATOM     10  H5  UNL     1      12.660  31.555  -5.794  1.00  0.00     0.218 HD
ENDBRANCH   3   9
BRANCH   7  11
HETATM   11  C3  UNL     1      15.854  26.397  -4.549  1.00  0.00     0.318 C 
BRANCH  11  12
HETATM   12  O2  UNL     1      17.107  26.538  -4.004  1.00  0.00    -0.331 OA
BRANCH  12  13
HETATM   13  C2  UNL     1      17.640  25.331  -3.553  1.00  0.00     0.350 C 
BRANCH  13  14
HETATM   14  O1  UNL     1      18.240  24.584  -4.592  1.00  0.00    -0.306 OA
BRANCH  14  15
HETATM   15  C1  UNL     1      19.306  25.033  -5.340  1.00  0.00     0.204 C 
HETATM   16  N1  UNL     1      20.152  25.848  -4.827  1.00  0.00    -0.376 N 
ATOM     17  H12 UNL     1      20.018  26.151  -3.862  1.00  0.00     0.158 HD
ATOM     18  H11 UNL     1      20.942  26.180  -5.381  1.00  0.00     0.158 HD
BRANCH  15  19
HETATM   19  C17 UNL     1      19.497  24.598  -6.723  1.00  0.00     0.305 C 
HETATM   20  N9  UNL     1      20.625  23.819  -7.097  1.00  0.00    -0.054 NA
HETATM   21  O11 UNL     1      18.649  24.920  -7.594  1.00  0.00    -0.267 OA
ENDBRANCH  15  19
ENDBRANCH  14  15
ENDBRANCH  13  14
ENDBRANCH  12  13
ENDBRANCH  11  12
BRANCH  11  22
HETATM   22  O3  UNL     1      15.981  25.813  -5.808  1.00  0.00    -0.365 OA
ATOM     23  H3  UNL     1      15.515  24.985  -5.805  1.00  0.00     0.213 HD
ENDBRANCH  11  22
ENDBRANCH   7  11
ENDBRANCH   1   2
BRANCH   1  24
HETATM   24  O6  UNL     1      13.657  28.704  -8.130  1.00  0.00    -0.382 OA
ATOM     25  H6  UNL     1      13.627  29.221  -8.925  1.00  0.00     0.211 HD
ENDBRANCH   1  24
BRANCH   1  26
HETATM   26  C10 UNL     1      11.610  29.115  -6.984  1.00  0.00     0.116 A 
HETATM   27  O7  UNL     1      10.851  29.241  -5.934  1.00  0.00    -0.291 OA
HETATM   28  C11 UNL     1       9.598  28.859  -6.191  1.00  0.00     0.174 A 
HETATM   29  C14 UNL     1       9.503  28.449  -7.496  1.00  0.00     0.119 A 
HETATM   30  C16 UNL     1      10.811  28.622  -7.992  1.00  0.00     0.100 A 
HETATM   31  N8  UNL     1      11.185  28.316  -9.335  1.00  0.00    -0.098 NA
BRANCH  28  32
HETATM   32  N2  UNL     1       8.535  28.881  -5.236  1.00  0.00    -0.263 N 
HETATM   33  C12 UNL     1       8.591  28.260  -3.934  1.00  0.00     0.211 C 
HETATM   34  N3  UNL     1       9.387  27.160  -3.537  1.00  0.00    -0.062 NA
HETATM   35  N4  UNL     1       7.778  28.881  -3.143  1.00  0.00    -0.274 N 
HETATM   36  N5  UNL     1       7.151  29.914  -3.838  1.00  0.00    -0.093 NA
ATOM     37  H4  UNL     1       7.619  28.650  -2.162  1.00  0.00     0.185 HD
HETATM   38  C13 UNL     1       7.246  29.514  -5.261  1.00  0.00     0.322 C 
BRANCH  38  39
HETATM   39  N6  UNL     1       6.146  28.615  -5.478  1.00  0.00    -0.103 NA
BRANCH  39  40
HETATM   40  N7  UNL     1       5.352  28.980  -6.554  1.00  0.00    -0.345 N 
ATOM     41  H72 UNL     1       4.339  29.079  -6.482  1.00  0.00     0.172 HD
ATOM     42  H71 UNL     1       5.886  29.135  -7.409  1.00  0.00     0.172 HD
ENDBRANCH  39  40
ENDBRANCH  38  39
ENDBRANCH  28  32
BRANCH  29  43
HETATM   43  C15 UNL     1       8.383  27.936  -8.268  1.00  0.00     0.215 C 
HETATM   44  O8  UNL     1       7.442  28.615  -8.718  1.00  0.00    -0.644 OA
HETATM   45  O9  UNL     1       8.326  26.569  -8.545  1.00  0.00    -0.644 OA
ENDBRANCH  29  43
ENDBRANCH   1  26
TORSDOF 15
ENDMDL
MODEL 4
REMARK VINA RESULT: -8.516108087      3.335      6.506
REMARK  15 active torsions:
REMARK  status: ('A' for Active; 'I' for Inactive)
REMARK    1  A    between atoms: C1_4  and  O1_5 
REMARK    2  A    between atoms: C1_4  and  C17_43 
REMARK    3  A    between atoms: O1_5  and  C2_6 
REMARK    4  A    between atoms: C2_6  and  O2_7 
REMARK    5  A    between atoms: O2_7  and  C3_8 
REMARK    6  A    between atoms: C3_8  and  O3_9 
REMARK    7  A    between atoms: C3_8  and  C4_11 
REMARK    8  A    between atoms: C7_15  and  O5_16 
REMARK    9  A    between atoms: C8_18  and  C9_19 
REMARK   10  A    between atoms: C9_19  and  O6_20 
REMARK   11  A    between atoms: C9_19  and  C10_22 
REMARK   12  A    between atoms: C11_24  and  N2_25 
REMARK   13  A    between atoms: C13_31  and  N6_32 
REMARK   14  A    between atoms: N6_32  and  N7_33 
REMARK   15  A    between atoms: C14_36  and  C15_37 
ROOT
HETATM    1  C9  UNL     1      20.194  27.398   1.991  1.00  0.00     0.237 C 
ENDROOT
BRANCH   1   2
HETATM    2  C8  UNL     1      19.828  26.034   1.523  1.00  0.00     0.125 A 
HETATM    3  C7  UNL     1      20.127  24.933   2.294  1.00  0.00     0.149 A 
HETATM    4  C6  UNL     1      19.761  23.696   1.805  1.00  0.00     0.210 A 
HETATM    5  C5  UNL     1      19.122  23.612   0.584  1.00  0.00     0.095 A 
HETATM    6  O4  UNL     1      20.021  22.670   2.487  1.00  0.00    -0.285 OA
HETATM    7  C4  UNL     1      18.853  24.755  -0.136  1.00  0.00     0.112 A 
HETATM    8  O10 UNL     1      19.218  25.889   0.371  1.00  0.00    -0.308 OA
BRANCH   3   9
HETATM    9  O5  UNL     1      20.781  25.063   3.534  1.00  0.00    -0.355 OA
ATOM     10  H5  UNL     1      20.436  24.652   4.318  1.00  0.00     0.218 HD
ENDBRANCH   3   9
BRANCH   7  11
HETATM   11  C3  UNL     1      18.156  24.651  -1.465  1.00  0.00     0.318 C 
BRANCH  11  12
HETATM   12  O2  UNL     1      18.642  25.551  -2.382  1.00  0.00    -0.331 OA
BRANCH  12  13
HETATM   13  C2  UNL     1      17.863  25.621  -3.536  1.00  0.00     0.350 C 
BRANCH  13  14
HETATM   14  O1  UNL     1      16.823  26.573  -3.430  1.00  0.00    -0.306 OA
BRANCH  14  15
HETATM   15  C1  UNL     1      16.087  27.026  -4.502  1.00  0.00     0.204 C 
HETATM   16  N1  UNL     1      15.786  26.226  -5.457  1.00  0.00    -0.376 N 
ATOM     17  H12 UNL     1      16.100  25.257  -5.404  1.00  0.00     0.158 HD
ATOM     18  H11 UNL     1      15.241  26.562  -6.251  1.00  0.00     0.158 HD
BRANCH  15  19
HETATM   19  C17 UNL     1      15.637  28.415  -4.578  1.00  0.00     0.305 C 
HETATM   20  N9  UNL     1      16.024  29.253  -5.658  1.00  0.00    -0.054 NA
HETATM   21  O11 UNL     1      14.894  28.873  -3.672  1.00  0.00    -0.267 OA
ENDBRANCH  15  19
ENDBRANCH  14  15
ENDBRANCH  13  14
ENDBRANCH  12  13
ENDBRANCH  11  12
BRANCH  11  22
HETATM   22  O3  UNL     1      16.789  24.875  -1.306  1.00  0.00    -0.365 OA
ATOM     23  H3  UNL     1      16.318  24.266  -1.863  1.00  0.00     0.213 HD
ENDBRANCH  11  22
ENDBRANCH   7  11
ENDBRANCH   1   2
BRANCH   1  24
HETATM   24  O6  UNL     1      19.352  27.737   3.027  1.00  0.00    -0.382 OA
ATOM     25  H6  UNL     1      19.537  28.634   3.277  1.00  0.00     0.211 HD
ENDBRANCH   1  24
BRANCH   1  26
HETATM   26  C10 UNL     1      21.628  27.480   2.374  1.00  0.00     0.116 A 
HETATM   27  O7  UNL     1      22.145  27.587   3.564  1.00  0.00    -0.291 OA
HETATM   28  C11 UNL     1      23.477  27.633   3.514  1.00  0.00     0.174 A 
HETATM   29  C14 UNL     1      23.889  27.553   2.208  1.00  0.00     0.119 A 
HETATM   30  C16 UNL     1      22.682  27.453   1.487  1.00  0.00     0.100 A 
HETATM   31  N8  UNL     1      22.627  27.346   0.065  1.00  0.00    -0.098 NA
BRANCH  28  32
HETATM   32  N2  UNL     1      24.326  27.750   4.658  1.00  0.00    -0.263 N 
HETATM   33  C12 UNL     1      24.505  26.720   5.652  1.00  0.00     0.211 C 
HETATM   34  N3  UNL     1      23.601  25.690   6.000  1.00  0.00    -0.062 NA
HETATM   35  N4  UNL     1      25.665  26.874   6.205  1.00  0.00    -0.274 N 
HETATM   36  N5  UNL     1      26.307  27.974   5.637  1.00  0.00    -0.093 NA
ATOM     37  H4  UNL     1      26.050  26.283   6.941  1.00  0.00     0.185 HD
HETATM   38  C13 UNL     1      25.209  28.799   5.084  1.00  0.00     0.322 C 
BRANCH  38  39
HETATM   39  N6  UNL     1      24.721  29.575   6.191  1.00  0.00    -0.103 NA
BRANCH  39  40
HETATM   40  N7  UNL     1      25.391  30.779   6.347  1.00  0.00    -0.345 N 
ATOM     41  H72 UNL     1      26.271  30.856   6.857  1.00  0.00     0.172 HD
ATOM     42  H71 UNL     1      24.913  31.562   5.902  1.00  0.00     0.172 HD
ENDBRANCH  39  40
ENDBRANCH  38  39
ENDBRANCH  28  32
BRANCH  29  43
HETATM   43  C15 UNL     1      25.215  27.568   1.611  1.00  0.00     0.215 C 
HETATM   44  O8  UNL     1      25.882  26.564   1.301  1.00  0.00    -0.644 OA
HETATM   45  O9  UNL     1      25.821  28.799   1.350  1.00  0.00    -0.644 OA
ENDBRANCH  29  43
ENDBRANCH   1  26
TORSDOF 15
ENDMDL
MODEL 5
REMARK VINA RESULT: -8.467892950      3.233      6.379
REMARK  15 active torsions:
REMARK  status: ('A' for Active; 'I' for Inactive)
REMARK    1  A    between atoms: C1_4  and  O1_5 
REMARK    2  A    between atoms: C1_4  and  C17_43 
REMARK    3  A    between atoms: O1_5  and  C2_6 
REMARK    4  A    between atoms: C2_6  and  O2_7 
REMARK    5  A    between atoms: O2_7  and  C3_8 
REMARK    6  A    between atoms: C3_8  and  O3_9 
REMARK    7  A    between atoms: C3_8  and  C4_11 
REMARK    8  A    between atoms: C7_15  and  O5_16 
REMARK    9  A    between atoms: C8_18  and  C9_19 
REMARK   10  A    between atoms: C9_19  and  O6_20 
REMARK   11  A    between atoms: C9_19  and  C10_22 
REMARK   12  A    between atoms: C11_24  and  N2_25 
REMARK   13  A    between atoms: C13_31  and  N6_32 
REMARK   14  A    between atoms: N6_32  and  N7_33 
REMARK   15  A    between atoms: C14_36  and  C15_37 
ROOT
HETATM    1  C9  UNL     1      23.147  24.821  -0.025  1.00  0.00     0.237 C 
ENDROOT
BRANCH   1   2
HETATM    2  C8  UNL     1      21.713  24.442   0.086  1.00  0.00     0.125 A 
HETATM    3  C7  UNL     1      21.314  23.502   1.010  1.00  0.00     0.149 A 
HETATM    4  C6  UNL     1      19.970  23.194   1.063  1.00  0.00     0.210 A 
HETATM    5  C5  UNL     1      19.094  23.829   0.205  1.00  0.00     0.095 A 
HETATM    6  O4  UNL     1      19.575  22.337   1.898  1.00  0.00    -0.285 OA
HETATM    7  C4  UNL     1      19.561  24.761  -0.696  1.00  0.00     0.112 A 
HETATM    8  O10 UNL     1      20.832  25.011  -0.702  1.00  0.00    -0.308 OA
BRANCH   3   9
HETATM    9  O5  UNL     1      22.240  22.878   1.867  1.00  0.00    -0.355 OA
ATOM     10  H5  UNL     1      22.958  22.360   1.523  1.00  0.00     0.218 HD
ENDBRANCH   3   9
BRANCH   7  11
HETATM   11  C3  UNL     1      18.599  25.445  -1.626  1.00  0.00     0.318 C 
BRANCH  11  12
HETATM   12  O2  UNL     1      17.363  24.846  -1.633  1.00  0.00    -0.331 OA
BRANCH  12  13
HETATM   13  C2  UNL     1      16.672  25.044  -2.829  1.00  0.00     0.350 C 
BRANCH  13  14
HETATM   14  O1  UNL     1      16.432  26.412  -3.094  1.00  0.00    -0.306 OA
BRANCH  14  15
HETATM   15  C1  UNL     1      16.062  26.898  -4.328  1.00  0.00     0.204 C 
HETATM   16  N1  UNL     1      16.043  26.120  -5.346  1.00  0.00    -0.376 N 
ATOM     17  H12 UNL     1      16.306  25.142  -5.220  1.00  0.00     0.158 HD
ATOM     18  H11 UNL     1      15.768  26.480  -6.259  1.00  0.00     0.158 HD
BRANCH  15  19
HETATM   19  C17 UNL     1      15.685  28.300  -4.506  1.00  0.00     0.305 C 
HETATM   20  N9  UNL     1      16.112  29.034  -5.645  1.00  0.00    -0.054 NA
HETATM   21  O11 UNL     1      14.971  28.863  -3.636  1.00  0.00    -0.267 OA
ENDBRANCH  15  19
ENDBRANCH  14  15
ENDBRANCH  13  14
ENDBRANCH  12  13
ENDBRANCH  11  12
BRANCH  11  22
HETATM   22  O3  UNL     1      19.102  25.437  -2.926  1.00  0.00    -0.365 OA
ATOM     23  H3  UNL     1      19.934  24.977  -2.924  1.00  0.00     0.213 HD
ENDBRANCH  11  22
ENDBRANCH   7  11
ENDBRANCH   1   2
BRANCH   1  24
HETATM   24  O6  UNL     1      23.382  25.241  -1.316  1.00  0.00    -0.382 OA
ATOM     25  H6  UNL     1      24.311  25.413  -1.408  1.00  0.00     0.211 HD
ENDBRANCH   1  24
BRANCH   1  26
HETATM   26  C10 UNL     1      23.524  25.846   0.983  1.00  0.00     0.116 A 
HETATM   27  O7  UNL     1      23.745  25.688   2.256  1.00  0.00    -0.291 OA
HETATM   28  C11 UNL     1      24.063  26.844   2.842  1.00  0.00     0.174 A 
HETATM   29  C14 UNL     1      24.057  27.848   1.907  1.00  0.00     0.119 A 
HETATM   30  C16 UNL     1      23.708  27.184   0.714  1.00  0.00     0.100 A 
HETATM   31  N8  UNL     1      23.580  27.850  -0.543  1.00  0.00    -0.098 NA
BRANCH  28  32
HETATM   32  N2  UNL     1      24.360  26.991   4.233  1.00  0.00    -0.263 N 
HETATM   33  C12 UNL     1      23.867  26.118   5.270  1.00  0.00     0.211 C 
HETATM   34  N3  UNL     1      22.691  25.333   5.251  1.00  0.00    -0.062 NA
HETATM   35  N4  UNL     1      24.692  26.152   6.267  1.00  0.00    -0.274 N 
HETATM   36  N5  UNL     1      25.745  27.015   5.968  1.00  0.00    -0.093 NA
ATOM     37  H4  UNL     1      24.589  25.628   7.135  1.00  0.00     0.185 HD
HETATM   38  C13 UNL     1      25.199  27.922   4.933  1.00  0.00     0.322 C 
BRANCH  38  39
HETATM   39  N6  UNL     1      24.485  28.939   5.656  1.00  0.00    -0.103 NA
BRANCH  39  40
HETATM   40  N7  UNL     1      24.626  30.200   5.098  1.00  0.00    -0.345 N 
ATOM     41  H72 UNL     1      25.445  30.786   5.262  1.00  0.00     0.172 HD
ATOM     42  H71 UNL     1      23.832  30.470   4.517  1.00  0.00     0.172 HD
ENDBRANCH  39  40
ENDBRANCH  38  39
ENDBRANCH  28  32
BRANCH  29  43
HETATM   43  C15 UNL     1      24.319  29.274   2.019  1.00  0.00     0.215 C 
HETATM   44  O8  UNL     1      23.459  30.173   1.994  1.00  0.00    -0.644 OA
HETATM   45  O9  UNL     1      25.638  29.705   2.171  1.00  0.00    -0.644 OA
ENDBRANCH  29  43
ENDBRANCH   1  26
TORSDOF 15
ENDMDL
