MODEL 1
REMARK VINA RESULT: -5.457648960      0.000      0.000
REMARK  5 active torsions:
REMARK  status: ('A' for Active; 'I' for Inactive)
REMARK    1  A    between atoms: C2_2  and  C3_3 
REMARK    2  A    between atoms: C3_3  and  O1_4 
REMARK    3  A    between atoms: O1_4  and  N1_5 
REMARK    4  A    between atoms: C7_12  and  C8_13 
REMARK    5  A    between atoms: C8_13  and  O2_16 
ROOT
HETATM    1  N1  UNL     1     101.139  99.301  78.797  1.00  0.00    -0.164 NA
HETATM    2  C4  UNL     1     101.116  99.881  77.528  1.00  0.00     0.114 C 
HETATM    3  C5  UNL     1     102.260 100.799  77.342  1.00  0.00     0.017 C 
HETATM    4  N2  UNL     1     102.497 101.409  76.294  1.00  0.00    -0.402 N 
ATOM      5  H21 UNL     1     103.287 102.042  76.165  1.00  0.00     0.156 HD
ATOM      6  H22 UNL     1     102.050 101.394  75.377  1.00  0.00     0.156 HD
HETATM    7  C6  UNL     1     102.925 100.822  78.703  1.00  0.00     0.083 C 
HETATM    8  C7  UNL     1     102.447  99.560  79.275  1.00  0.00     0.130 C 
ENDROOT
BRANCH   8   9
HETATM    9  C8  UNL     1     102.931  99.078  80.559  1.00  0.00     0.069 C 
HETATM   10  C9  UNL     1     103.312  97.642  80.440  1.00  0.00     0.047 C 
HETATM   11  C10 UNL     1     104.273  99.817  80.959  1.00  0.00     0.047 C 
BRANCH   9  12
HETATM   12  O2  UNL     1     102.166  99.373  81.671  1.00  0.00    -0.389 OA
ATOM     13  H2  UNL     1     101.246  99.137  81.639  1.00  0.00     0.210 HD
ENDBRANCH   9  12
ENDBRANCH   8   9
BRANCH   1  14
HETATM   14  O1  UNL     1     100.249  99.748  79.689  1.00  0.00    -0.299 OA
BRANCH  14  15
HETATM   15  C3  UNL     1      99.119  99.080  79.873  1.00  0.00     0.194 C 
BRANCH  15  16
HETATM   16  C2  UNL     1      98.573  99.642  81.220  1.00  0.00     0.024 C 
HETATM   17  C1  UNL     1      98.230  98.554  82.117  1.00  0.00     0.007 C 
ENDBRANCH  15  16
ENDBRANCH  14  15
ENDBRANCH   1  14
TORSDOF 5
ENDMDL
MODEL 2
REMARK VINA RESULT: -5.408137026      2.531      4.626
REMARK  5 active torsions:
REMARK  status: ('A' for Active; 'I' for Inactive)
REMARK    1  A    between atoms: C2_2  and  C3_3 
REMARK    2  A    between atoms: C3_3  and  O1_4 
REMARK    3  A    between atoms: O1_4  and  N1_5 
REMARK    4  A    between atoms: C7_12  and  C8_13 
REMARK    5  A    between atoms: C8_13  and  O2_16 
ROOT
HETATM    1  N1  UNL     1     101.435  98.695  81.762  1.00  0.00    -0.164 NA
HETATM    2  C4  UNL     1     100.627  99.622  81.105  1.00  0.00     0.114 C 
HETATM    3  C5  UNL     1      99.490  98.954  80.434  1.00  0.00     0.017 C 
HETATM    4  N2  UNL     1      98.601  99.550  79.817  1.00  0.00    -0.402 N 
ATOM      5  H21 UNL     1      97.817  99.090  79.354  1.00  0.00     0.156 HD
ATOM      6  H22 UNL     1      98.413 100.543  79.677  1.00  0.00     0.156 HD
HETATM    7  C6  UNL     1      99.768  97.480  80.642  1.00  0.00     0.083 C 
HETATM    8  C7  UNL     1     100.648  97.519  81.813  1.00  0.00     0.130 C 
ENDROOT
BRANCH   8   9
HETATM    9  C8  UNL     1     101.089  96.298  82.471  1.00  0.00     0.069 C 
HETATM   10  C9  UNL     1     100.535  96.252  83.855  1.00  0.00     0.047 C 
HETATM   11  C10 UNL     1     100.478  95.028  81.751  1.00  0.00     0.047 C 
BRANCH   9  12
HETATM   12  O2  UNL     1     102.433  95.987  82.386  1.00  0.00    -0.389 OA
ATOM     13  H2  UNL     1     102.797  95.870  81.516  1.00  0.00     0.210 HD
ENDBRANCH   9  12
ENDBRANCH   8   9
BRANCH   1  14
HETATM   14  O1  UNL     1     102.615  98.409  81.201  1.00  0.00    -0.299 OA
BRANCH  14  15
HETATM   15  C3  UNL     1     103.054  99.150  80.193  1.00  0.00     0.194 C 
BRANCH  15  16
HETATM   16  C2  UNL     1     104.137 100.061  80.848  1.00  0.00     0.024 C 
HETATM   17  C1  UNL     1     103.976 101.432  80.403  1.00  0.00     0.007 C 
ENDBRANCH  15  16
ENDBRANCH  14  15
ENDBRANCH   1  14
TORSDOF 5
ENDMDL
MODEL 3
REMARK VINA RESULT: -5.270950610      1.661      4.007
REMARK  5 active torsions:
REMARK  status: ('A' for Active; 'I' for Inactive)
REMARK    1  A    between atoms: C2_2  and  C3_3 
REMARK    2  A    between atoms: C3_3  and  O1_4 
REMARK    3  A    between atoms: O1_4  and  N1_5 
REMARK    4  A    between atoms: C7_12  and  C8_13 
REMARK    5  A    between atoms: C8_13  and  O2_16 
ROOT
HETATM    1  N1  UNL     1     102.654 100.548  79.424  1.00  0.00    -0.164 NA
HETATM    2  C4  UNL     1     102.932 101.457  78.404  1.00  0.00     0.114 C 
HETATM    3  C5  UNL     1     102.291 101.045  77.136  1.00  0.00     0.017 C 
HETATM    4  N2  UNL     1     102.344 101.696  76.088  1.00  0.00    -0.402 N 
ATOM      5  H21 UNL     1     101.902 101.413  75.213  1.00  0.00     0.156 HD
ATOM      6  H22 UNL     1     102.748 102.607  75.868  1.00  0.00     0.156 HD
HETATM    7  C6  UNL     1     101.691  99.693  77.462  1.00  0.00     0.083 C 
HETATM    8  C7  UNL     1     101.580  99.775  78.921  1.00  0.00     0.130 C 
ENDROOT
BRANCH   8   9
HETATM    9  C8  UNL     1     100.927  98.727  79.692  1.00  0.00     0.069 C 
HETATM   10  C9  UNL     1     100.355  99.310  80.939  1.00  0.00     0.047 C 
HETATM   11  C10 UNL     1      99.678  98.156  78.906  1.00  0.00     0.047 C 
BRANCH   9  12
HETATM   12  O2  UNL     1     101.634  97.555  79.884  1.00  0.00    -0.389 OA
ATOM     13  H2  UNL     1     101.655  96.938  79.162  1.00  0.00     0.210 HD
ENDBRANCH   9  12
ENDBRANCH   8   9
BRANCH   1  14
HETATM   14  O1  UNL     1     103.644  99.731  79.800  1.00  0.00    -0.299 OA
BRANCH  14  15
HETATM   15  C3  UNL     1     104.111  99.800  81.039  1.00  0.00     0.194 C 
BRANCH  15  16
HETATM   16  C2  UNL     1     105.527 100.426  80.866  1.00  0.00     0.024 C 
HETATM   17  C1  UNL     1     106.465  99.811  81.786  1.00  0.00     0.007 C 
ENDBRANCH  15  16
ENDBRANCH  14  15
ENDBRANCH   1  14
TORSDOF 5
ENDMDL
MODEL 4
REMARK VINA RESULT: -5.249350448      2.062      4.390
REMARK  5 active torsions:
REMARK  status: ('A' for Active; 'I' for Inactive)
REMARK    1  A    between atoms: C2_2  and  C3_3 
REMARK    2  A    between atoms: C3_3  and  O1_4 
REMARK    3  A    between atoms: O1_4  and  N1_5 
REMARK    4  A    between atoms: C7_12  and  C8_13 
REMARK    5  A    between atoms: C8_13  and  O2_16 
ROOT
HETATM    1  N1  UNL     1     103.586 100.489  81.038  1.00  0.00    -0.164 NA
HETATM    2  C4  UNL     1     103.888 101.616  80.274  1.00  0.00     0.114 C 
HETATM    3  C5  UNL     1     103.296 101.517  78.922  1.00  0.00     0.017 C 
HETATM    4  N2  UNL     1     103.379 102.400  78.062  1.00  0.00    -0.402 N 
ATOM      5  H21 UNL     1     102.971 102.332  77.129  1.00  0.00     0.156 HD
ATOM      6  H22 UNL     1     103.779 103.338  78.080  1.00  0.00     0.156 HD
HETATM    7  C6  UNL     1     102.702 100.124  78.894  1.00  0.00     0.083 C 
HETATM    8  C7  UNL     1     102.539  99.855  80.325  1.00  0.00     0.130 C 
ENDROOT
BRANCH   8   9
HETATM    9  C8  UNL     1     101.873  98.652  80.799  1.00  0.00     0.069 C 
HETATM   10  C9  UNL     1     100.565  98.499  80.099  1.00  0.00     0.047 C 
HETATM   11  C10 UNL     1     102.698  97.364  80.393  1.00  0.00     0.047 C 
BRANCH   9  12
HETATM   12  O2  UNL     1     101.810  98.464  82.167  1.00  0.00    -0.389 OA
ATOM     13  H2  UNL     1     101.470  97.632  82.475  1.00  0.00     0.210 HD
ENDBRANCH   9  12
ENDBRANCH   8   9
BRANCH   1  14
HETATM   14  O1  UNL     1     104.571  99.609  81.244  1.00  0.00    -0.299 OA
BRANCH  14  15
HETATM   15  C3  UNL     1     105.820  99.952  80.958  1.00  0.00     0.194 C 
BRANCH  15  16
HETATM   16  C2  UNL     1     106.568  99.787  82.316  1.00  0.00     0.024 C 
HETATM   17  C1  UNL     1     106.910  98.395  82.537  1.00  0.00     0.007 C 
ENDBRANCH  15  16
ENDBRANCH  14  15
ENDBRANCH   1  14
TORSDOF 5
ENDMDL
MODEL 5
REMARK VINA RESULT: -5.112493519      1.898      3.526
REMARK  5 active torsions:
REMARK  status: ('A' for Active; 'I' for Inactive)
REMARK    1  A    between atoms: C2_2  and  C3_3 
REMARK    2  A    between atoms: C3_3  and  O1_4 
REMARK    3  A    between atoms: O1_4  and  N1_5 
REMARK    4  A    between atoms: C7_12  and  C8_13 
REMARK    5  A    between atoms: C8_13  and  O2_16 
ROOT
HETATM    1  N1  UNL     1     102.393  99.011  80.207  1.00  0.00    -0.164 NA
HETATM    2  C4  UNL     1     103.482  99.882  80.235  1.00  0.00     0.114 C 
HETATM    3  C5  UNL     1     103.451 100.808  79.082  1.00  0.00     0.017 C 
HETATM    4  N2  UNL     1     104.276 101.707  78.892  1.00  0.00    -0.402 N 
ATOM      5  H21 UNL     1     104.255 102.346  78.097  1.00  0.00     0.156 HD
ATOM      6  H22 UNL     1     105.066 102.040  79.446  1.00  0.00     0.156 HD
HETATM    7  C6  UNL     1     102.279 100.315  78.259  1.00  0.00     0.083 C 
HETATM    8  C7  UNL     1     101.503  99.593  79.271  1.00  0.00     0.130 C 
ENDROOT
BRANCH   8   9
HETATM    9  C8  UNL     1     100.195  99.034  78.968  1.00  0.00     0.069 C 
HETATM   10  C9  UNL     1      99.308  99.169  80.159  1.00  0.00     0.047 C 
HETATM   11  C10 UNL     1      99.479  99.879  77.838  1.00  0.00     0.047 C 
BRANCH   9  12
HETATM   12  O2  UNL     1     100.165  97.785  78.376  1.00  0.00    -0.389 OA
ATOM     13  H2  UNL     1      99.816  97.069  78.893  1.00  0.00     0.210 HD
ENDBRANCH   9  12
ENDBRANCH   8   9
BRANCH   1  14
HETATM   14  O1  UNL     1     102.634  97.744  79.854  1.00  0.00    -0.299 OA
BRANCH  14  15
HETATM   15  C3  UNL     1     102.906  96.847  80.792  1.00  0.00     0.194 C 
BRANCH  15  16
HETATM   16  C2  UNL     1     101.648  96.882  81.713  1.00  0.00     0.024 C 
HETATM   17  C1  UNL     1     100.851  95.686  81.520  1.00  0.00     0.007 C 
ENDBRANCH  15  16
ENDBRANCH  14  15
ENDBRANCH   1  14
TORSDOF 5
ENDMDL
