MODEL 1
REMARK VINA RESULT: -6.878457900      0.000      0.000
REMARK  4 active torsions:
REMARK  status: ('A' for Active; 'I' for Inactive)
REMARK    1  A    between atoms: N2_4  and  O1_5 
REMARK    2  A    between atoms: N2_4  and  N3_7 
REMARK    3  A    between atoms: N4_9  and  N5_11 
REMARK       I    between atoms: N5_11  and  C1_13 
REMARK       I    between atoms: C1_13  and  N6_15 
REMARK    4  A    between atoms: N6_15  and  C2_17 
ROOT
HETATM    1  N5  UNL     1     101.454  96.219  80.998  1.00  0.00    -0.236 N 
ATOM      2  H5  UNL     1     101.868  95.708  80.218  1.00  0.00     0.193 HD
HETATM    3  C1  UNL     1     101.771  97.588  81.154  1.00  0.00     0.336 C 
HETATM    4  O2  UNL     1     101.262  98.220  82.111  1.00  0.00    -0.246 OA
HETATM    5  N6  UNL     1     102.645  98.203  80.235  1.00  0.00    -0.337 N 
ATOM      6  H6  UNL     1     103.027  97.638  79.476  1.00  0.00     0.164 HD
ENDROOT
BRANCH   1   7
HETATM    7  N4  UNL     1     100.598  95.537  81.865  1.00  0.00    -0.221 N 
HETATM    8  N3  UNL     1     100.963  95.358  83.066  1.00  0.00    -0.186 N 
ATOM      9  H3  UNL     1     101.871  95.718  83.361  1.00  0.00     0.214 HD
ATOM     10  H4  UNL     1      99.696  95.191  81.539  1.00  0.00     0.210 HD
BRANCH   8  11
HETATM   11  N2  UNL     1     100.177  94.690  83.997  1.00  0.00    -0.086 N 
HETATM   12  N1  UNL     1      99.203  93.996  83.598  1.00  0.00    -0.302 N 
ATOM     13  H12 UNL     1      98.626  93.507  84.282  1.00  0.00     0.181 HD
ATOM     14  H11 UNL     1      99.012  93.939  82.597  1.00  0.00     0.181 HD
BRANCH  11  15
HETATM   15  O1  UNL     1     100.435  94.768  85.349  1.00  0.00    -0.253 OA
ATOM     16  H1  UNL     1      99.932  94.227  85.948  1.00  0.00     0.248 HD
ENDBRANCH  11  15
ENDBRANCH   8  11
ENDBRANCH   1   7
BRANCH   5  17
HETATM   17  C2  UNL     1     103.027  99.599  80.314  1.00  0.00     0.086 C 
HETATM   18  C3  UNL     1     103.062 100.232  78.929  1.00  0.00     0.025 C 
HETATM   19  C4  UNL     1     103.309 101.717  79.231  1.00  0.00     0.002 C 
HETATM   20  C5  UNL     1     104.757 101.824  79.612  1.00  0.00     0.000 C 
HETATM   21  C6  UNL     1     105.266 100.745  80.478  1.00  0.00     0.002 C 
HETATM   22  C7  UNL     1     104.305  99.781  81.035  1.00  0.00     0.025 C 
ENDBRANCH   5  17
TORSDOF 4
ENDMDL
MODEL 2
REMARK VINA RESULT: -6.694398857      1.060      1.651
REMARK  4 active torsions:
REMARK  status: ('A' for Active; 'I' for Inactive)
REMARK    1  A    between atoms: N2_4  and  O1_5 
REMARK    2  A    between atoms: N2_4  and  N3_7 
REMARK    3  A    between atoms: N4_9  and  N5_11 
REMARK       I    between atoms: N5_11  and  C1_13 
REMARK       I    between atoms: C1_13  and  N6_15 
REMARK    4  A    between atoms: N6_15  and  C2_17 
ROOT
HETATM    1  N5  UNL     1     100.168  97.661  82.190  1.00  0.00    -0.236 N 
ATOM      2  H5  UNL     1      99.456  98.392  82.228  1.00  0.00     0.193 HD
HETATM    3  C1  UNL     1     101.406  97.954  81.574  1.00  0.00     0.336 C 
HETATM    4  O2  UNL     1     102.283  97.059  81.527  1.00  0.00    -0.246 OA
HETATM    5  N6  UNL     1     101.621  99.239  81.034  1.00  0.00    -0.337 N 
ATOM      6  H6  UNL     1     100.870  99.926  81.104  1.00  0.00     0.164 HD
ENDROOT
BRANCH   1   7
HETATM    7  N4  UNL     1      99.877  96.414  82.748  1.00  0.00    -0.221 N 
HETATM    8  N3  UNL     1     100.519  96.041  83.776  1.00  0.00    -0.186 N 
ATOM      9  H3  UNL     1     101.227  96.665  84.164  1.00  0.00     0.214 HD
ATOM     10  H4  UNL     1      99.162  95.815  82.335  1.00  0.00     0.210 HD
BRANCH   8  11
HETATM   11  N2  UNL     1     100.297  94.818  84.395  1.00  0.00    -0.086 N 
HETATM   12  N1  UNL     1      99.817  93.865  83.724  1.00  0.00    -0.302 N 
ATOM     13  H12 UNL     1      99.654  92.966  84.180  1.00  0.00     0.181 HD
ATOM     14  H11 UNL     1      99.602  94.011  82.738  1.00  0.00     0.181 HD
BRANCH  11  15
HETATM   15  O1  UNL     1     100.588  94.620  85.728  1.00  0.00    -0.253 OA
ATOM     16  H1  UNL     1     100.961  95.335  86.231  1.00  0.00     0.248 HD
ENDBRANCH  11  15
ENDBRANCH   8  11
ENDBRANCH   1   7
BRANCH   5  17
HETATM   17  C2  UNL     1     102.856  99.631  80.386  1.00  0.00     0.086 C 
HETATM   18  C3  UNL     1     103.687 100.527  81.296  1.00  0.00     0.025 C 
HETATM   19  C4  UNL     1     105.001 100.689  80.520  1.00  0.00     0.002 C 
HETATM   20  C5  UNL     1     104.704 101.644  79.401  1.00  0.00     0.000 C 
HETATM   21  C6  UNL     1     103.407 101.448  78.728  1.00  0.00     0.002 C 
HETATM   22  C7  UNL     1     102.613 100.258  79.069  1.00  0.00     0.025 C 
ENDBRANCH   5  17
TORSDOF 4
ENDMDL
MODEL 3
REMARK VINA RESULT: -6.524446337      1.052      1.628
REMARK  4 active torsions:
REMARK  status: ('A' for Active; 'I' for Inactive)
REMARK    1  A    between atoms: N2_4  and  O1_5 
REMARK    2  A    between atoms: N2_4  and  N3_7 
REMARK    3  A    between atoms: N4_9  and  N5_11 
REMARK       I    between atoms: N5_11  and  C1_13 
REMARK       I    between atoms: C1_13  and  N6_15 
REMARK    4  A    between atoms: N6_15  and  C2_17 
ROOT
HETATM    1  N5  UNL     1     100.441  96.667  80.684  1.00  0.00    -0.236 N 
ATOM      2  H5  UNL     1      99.618  97.089  80.253  1.00  0.00     0.193 HD
HETATM    3  C1  UNL     1     101.675  97.353  80.601  1.00  0.00     0.336 C 
HETATM    4  O2  UNL     1     102.688  96.838  81.131  1.00  0.00    -0.246 OA
HETATM    5  N6  UNL     1     101.732  98.592  79.929  1.00  0.00    -0.337 N 
ATOM      6  H6  UNL     1     100.874  98.961  79.519  1.00  0.00     0.164 HD
ENDROOT
BRANCH   1   7
HETATM    7  N4  UNL     1     100.302  95.437  81.330  1.00  0.00    -0.221 N 
HETATM    8  N3  UNL     1     100.311  95.410  82.598  1.00  0.00    -0.186 N 
ATOM      9  H3  UNL     1     100.419  96.289  83.106  1.00  0.00     0.214 HD
ATOM     10  H4  UNL     1     100.195  94.577  80.792  1.00  0.00     0.210 HD
BRANCH   8  11
HETATM   11  N2  UNL     1     100.180  94.233  83.323  1.00  0.00    -0.086 N 
HETATM   12  N1  UNL     1      99.027  93.800  83.594  1.00  0.00    -0.302 N 
ATOM     13  H12 UNL     1      98.931  92.936  84.127  1.00  0.00     0.181 HD
ATOM     14  H11 UNL     1      98.212  94.325  83.274  1.00  0.00     0.181 HD
BRANCH  11  15
HETATM   15  O1  UNL     1     101.280  93.524  83.756  1.00  0.00    -0.253 OA
ATOM     16  H1  UNL     1     101.488  93.513  84.683  1.00  0.00     0.248 HD
ENDBRANCH  11  15
ENDBRANCH   8  11
ENDBRANCH   1   7
BRANCH   5  17
HETATM   17  C2  UNL     1     102.949  99.366  79.794  1.00  0.00     0.086 C 
HETATM   18  C3  UNL     1     103.272 100.102  81.089  1.00  0.00     0.025 C 
HETATM   19  C4  UNL     1     104.653 100.710  80.810  1.00  0.00     0.002 C 
HETATM   20  C5  UNL     1     104.413 101.873  79.891  1.00  0.00     0.000 C 
HETATM   21  C6  UNL     1     103.419 101.646  78.827  1.00  0.00     0.002 C 
HETATM   22  C7  UNL     1     102.893 100.285  78.638  1.00  0.00     0.025 C 
ENDBRANCH   5  17
TORSDOF 4
ENDMDL
MODEL 4
REMARK VINA RESULT: -6.481673441      1.355      1.887
REMARK  4 active torsions:
REMARK  status: ('A' for Active; 'I' for Inactive)
REMARK    1  A    between atoms: N2_4  and  O1_5 
REMARK    2  A    between atoms: N2_4  and  N3_7 
REMARK    3  A    between atoms: N4_9  and  N5_11 
REMARK       I    between atoms: N5_11  and  C1_13 
REMARK       I    between atoms: C1_13  and  N6_15 
REMARK    4  A    between atoms: N6_15  and  C2_17 
ROOT
HETATM    1  N5  UNL     1     100.561  97.730  82.123  1.00  0.00    -0.236 N 
ATOM      2  H5  UNL     1     100.022  98.490  82.538  1.00  0.00     0.193 HD
HETATM    3  C1  UNL     1     101.703  98.052  81.353  1.00  0.00     0.336 C 
HETATM    4  O2  UNL     1     102.369  97.120  80.843  1.00  0.00    -0.246 OA
HETATM    5  N6  UNL     1     102.061  99.405  81.184  1.00  0.00    -0.337 N 
ATOM      6  H6  UNL     1     101.482 100.119  81.625  1.00  0.00     0.164 HD
ENDROOT
BRANCH   1   7
HETATM    7  N4  UNL     1     100.140  96.415  82.337  1.00  0.00    -0.221 N 
HETATM    8  N3  UNL     1     100.881  95.640  83.014  1.00  0.00    -0.186 N 
ATOM      9  H3  UNL     1     101.761  96.002  83.381  1.00  0.00     0.214 HD
ATOM     10  H4  UNL     1      99.253  96.086  81.956  1.00  0.00     0.210 HD
BRANCH   8  11
HETATM   11  N2  UNL     1     100.543  94.319  83.276  1.00  0.00    -0.086 N 
HETATM   12  N1  UNL     1     100.532  93.909  84.468  1.00  0.00    -0.302 N 
ATOM     13  H12 UNL     1     100.284  92.938  84.660  1.00  0.00     0.181 HD
ATOM     14  H11 UNL     1     100.773  94.558  85.218  1.00  0.00     0.181 HD
BRANCH  11  15
HETATM   15  O1  UNL     1     100.217  93.442  82.263  1.00  0.00    -0.253 OA
ATOM     16  H1  UNL     1     100.708  93.472  81.450  1.00  0.00     0.248 HD
ENDBRANCH  11  15
ENDBRANCH   8  11
ENDBRANCH   1   7
BRANCH   5  17
HETATM   17  C2  UNL     1     103.213  99.831  80.415  1.00  0.00     0.086 C 
HETATM   18  C3  UNL     1     104.160 100.663  81.270  1.00  0.00     0.025 C 
HETATM   19  C4  UNL     1     105.372 100.867  80.351  1.00  0.00     0.002 C 
HETATM   20  C5  UNL     1     104.953 101.892  79.337  1.00  0.00     0.000 C 
HETATM   21  C6  UNL     1     103.581 101.745  78.818  1.00  0.00     0.002 C 
HETATM   22  C7  UNL     1     102.820 100.540  79.179  1.00  0.00     0.025 C 
ENDBRANCH   5  17
TORSDOF 4
ENDMDL
MODEL 5
REMARK VINA RESULT: -6.420349323      3.115      3.959
REMARK  4 active torsions:
REMARK  status: ('A' for Active; 'I' for Inactive)
REMARK    1  A    between atoms: N2_4  and  O1_5 
REMARK    2  A    between atoms: N2_4  and  N3_7 
REMARK    3  A    between atoms: N4_9  and  N5_11 
REMARK       I    between atoms: N5_11  and  C1_13 
REMARK       I    between atoms: C1_13  and  N6_15 
REMARK    4  A    between atoms: N6_15  and  C2_17 
ROOT
HETATM    1  N5  UNL     1     100.511  97.192  79.761  1.00  0.00    -0.236 N 
ATOM      2  H5  UNL     1     101.157  96.435  79.988  1.00  0.00     0.193 HD
HETATM    3  C1  UNL     1     100.994  98.521  79.771  1.00  0.00     0.336 C 
HETATM    4  O2  UNL     1     100.203  99.452  79.491  1.00  0.00    -0.246 OA
HETATM    5  N6  UNL     1     102.346  98.760  80.092  1.00  0.00    -0.337 N 
ATOM      6  H6  UNL     1     102.942  97.962  80.310  1.00  0.00     0.164 HD
ENDROOT
BRANCH   1   7
HETATM    7  N4  UNL     1      99.187  96.871  79.455  1.00  0.00    -0.221 N 
HETATM    8  N3  UNL     1      98.798  96.972  78.252  1.00  0.00    -0.186 N 
ATOM      9  H3  UNL     1      99.466  97.283  77.546  1.00  0.00     0.214 HD
ATOM     10  H4  UNL     1      98.545  96.562  80.184  1.00  0.00     0.210 HD
BRANCH   8  11
HETATM   11  N2  UNL     1      97.500  96.675  77.856  1.00  0.00    -0.086 N 
HETATM   12  N1  UNL     1      96.596  96.576  78.730  1.00  0.00    -0.302 N 
ATOM     13  H12 UNL     1      95.643  96.358  78.439  1.00  0.00     0.181 HD
ATOM     14  H11 UNL     1      96.837  96.717  79.711  1.00  0.00     0.181 HD
BRANCH  11  15
HETATM   15  O1  UNL     1      97.174  96.485  76.530  1.00  0.00    -0.253 OA
ATOM     16  H1  UNL     1      97.192  95.605  76.171  1.00  0.00     0.248 HD
ENDBRANCH  11  15
ENDBRANCH   8  11
ENDBRANCH   1   7
BRANCH   5  17
HETATM   17  C2  UNL     1     102.930 100.086  80.126  1.00  0.00     0.086 C 
HETATM   18  C3  UNL     1     103.230 100.585  78.718  1.00  0.00     0.025 C 
HETATM   19  C4  UNL     1     103.669 102.038  78.949  1.00  0.00     0.002 C 
HETATM   20  C5  UNL     1     105.060 101.963  79.509  1.00  0.00     0.000 C 
HETATM   21  C6  UNL     1     105.286 100.900  80.505  1.00  0.00     0.002 C 
HETATM   22  C7  UNL     1     104.125 100.140  80.995  1.00  0.00     0.025 C 
ENDBRANCH   5  17
TORSDOF 4
ENDMDL
