MODEL 1
REMARK VINA RESULT: -6.199053898      0.000      0.000
REMARK  3 active torsions:
REMARK  status: ('A' for Active; 'I' for Inactive)
REMARK    1  A    between atoms: N1_3  and  N2_5 
REMARK    2  A    between atoms: C3_7  and  C4_8 
REMARK    3  A    between atoms: N3_9  and  N4_11 
ROOT
HETATM    1  N4  UNL     1     101.686  99.490  79.524  1.00  0.00    -0.281 N 
HETATM    2  C5  UNL     1     102.180  99.708  80.842  1.00  0.00     0.150 C 
HETATM    3  C6  UNL     1     103.639 100.089  80.896  1.00  0.00     0.022 C 
HETATM    4  C7  UNL     1     103.939 101.392  80.218  1.00  0.00     0.002 C 
HETATM    5  C8  UNL     1     104.157 101.091  78.740  1.00  0.00     0.007 C 
HETATM    6  C9  UNL     1     102.817 101.308  78.061  1.00  0.00     0.077 C 
HETATM    7  C10 UNL     1     101.921 100.174  78.302  1.00  0.00     0.091 C 
HETATM    8  N5  UNL     1     101.278  99.769  77.251  1.00  0.00    -0.388 N 
ATOM      9  H51 UNL     1     101.447 100.260  76.373  1.00  0.00     0.157 HD
ATOM     10  H52 UNL     1     100.654  98.980  77.419  1.00  0.00     0.157 HD
ENDROOT
BRANCH   1  11
HETATM   11  N3  UNL     1     100.803  98.410  79.373  1.00  0.00    -0.307 N 
HETATM   12  C4  UNL     1      99.888  98.126  80.231  1.00  0.00     0.126 C 
ATOM     13  H3  UNL     1     100.890  97.823  78.544  1.00  0.00     0.186 HD
BRANCH  12  14
HETATM   14  C3  UNL     1      99.029  96.992  79.982  1.00  0.00     0.125 C 
HETATM   15  N2  UNL     1      99.343  95.823  80.433  1.00  0.00    -0.311 N 
ATOM     16  H2  UNL     1      98.714  95.044  80.239  1.00  0.00     0.186 HD
BRANCH  15  17
HETATM   17  N1  UNL     1     100.498  95.573  81.173  1.00  0.00    -0.317 N 
HETATM   18  C2  UNL     1     100.464  94.691  82.098  1.00  0.00     0.075 C 
HETATM   19  C1  UNL     1      99.232  93.955  82.377  1.00  0.00     0.056 C 
ATOM     20  H1  UNL     1     101.358  96.086  80.979  1.00  0.00     0.185 HD
ENDBRANCH  15  17
ENDBRANCH  12  14
ENDBRANCH   1  11
TORSDOF 3
ENDMDL
MODEL 2
REMARK VINA RESULT: -6.139199678      2.419      3.507
REMARK  3 active torsions:
REMARK  status: ('A' for Active; 'I' for Inactive)
REMARK    1  A    between atoms: N1_3  and  N2_5 
REMARK    2  A    between atoms: C3_7  and  C4_8 
REMARK    3  A    between atoms: N3_9  and  N4_11 
ROOT
HETATM    1  N4  UNL     1     101.385  99.287  79.069  1.00  0.00    -0.281 N 
HETATM    2  C5  UNL     1     101.625  99.358  80.471  1.00  0.00     0.150 C 
HETATM    3  C6  UNL     1     103.036  99.747  80.835  1.00  0.00     0.022 C 
HETATM    4  C7  UNL     1     103.410 101.123  80.373  1.00  0.00     0.002 C 
HETATM    5  C8  UNL     1     103.903 100.997  78.936  1.00  0.00     0.007 C 
HETATM    6  C9  UNL     1     102.702 101.275  78.050  1.00  0.00     0.077 C 
HETATM    7  C10 UNL     1     101.815 100.110  77.995  1.00  0.00     0.091 C 
HETATM    8  N5  UNL     1     101.388  99.821  76.805  1.00  0.00    -0.388 N 
ATOM      9  H51 UNL     1     101.697 100.412  76.034  1.00  0.00     0.157 HD
ATOM     10  H52 UNL     1     100.770  99.010  76.767  1.00  0.00     0.157 HD
ENDROOT
BRANCH   1  11
HETATM   11  N3  UNL     1     100.580  98.221  78.639  1.00  0.00    -0.307 N 
HETATM   12  C4  UNL     1      99.358  98.070  79.011  1.00  0.00     0.126 C 
ATOM     13  H3  UNL     1     100.983  97.534  78.003  1.00  0.00     0.186 HD
BRANCH  12  14
HETATM   14  C3  UNL     1      98.614  96.937  78.510  1.00  0.00     0.125 C 
HETATM   15  N2  UNL     1      97.598  97.116  77.733  1.00  0.00    -0.311 N 
ATOM     16  H2  UNL     1      97.096  96.294  77.397  1.00  0.00     0.186 HD
BRANCH  15  17
HETATM   17  N1  UNL     1      97.153  98.375  77.332  1.00  0.00    -0.317 N 
HETATM   18  C2  UNL     1      96.349  98.462  76.341  1.00  0.00     0.075 C 
HETATM   19  C1  UNL     1      95.902  97.259  75.639  1.00  0.00     0.056 C 
ATOM     20  H1  UNL     1      97.465  99.213  77.820  1.00  0.00     0.185 HD
ENDBRANCH  15  17
ENDBRANCH  12  14
ENDBRANCH   1  11
TORSDOF 3
ENDMDL
MODEL 3
REMARK VINA RESULT: -6.090786840      1.621      2.200
REMARK  3 active torsions:
REMARK  status: ('A' for Active; 'I' for Inactive)
REMARK    1  A    between atoms: N1_3  and  N2_5 
REMARK    2  A    between atoms: C3_7  and  C4_8 
REMARK    3  A    between atoms: N3_9  and  N4_11 
ROOT
HETATM    1  N4  UNL     1     103.097 100.264  79.649  1.00  0.00    -0.281 N 
HETATM    2  C5  UNL     1     103.459  99.565  80.836  1.00  0.00     0.150 C 
HETATM    3  C6  UNL     1     104.947  99.407  81.027  1.00  0.00     0.022 C 
HETATM    4  C7  UNL     1     105.667 100.713  81.189  1.00  0.00     0.002 C 
HETATM    5  C8  UNL     1     105.984 101.227  79.790  1.00  0.00     0.007 C 
HETATM    6  C9  UNL     1     104.849 102.161  79.414  1.00  0.00     0.077 C 
HETATM    7  C10 UNL     1     103.660 101.403  79.016  1.00  0.00     0.091 C 
HETATM    8  N5  UNL     1     103.073 101.852  77.950  1.00  0.00    -0.388 N 
ATOM      9  H51 UNL     1     103.478 102.670  77.495  1.00  0.00     0.157 HD
ATOM     10  H52 UNL     1     102.246 101.324  77.673  1.00  0.00     0.157 HD
ENDROOT
BRANCH   1  11
HETATM   11  N3  UNL     1     101.985  99.759  78.957  1.00  0.00    -0.307 N 
HETATM   12  C4  UNL     1     101.278  98.775  79.387  1.00  0.00     0.126 C 
ATOM     13  H3  UNL     1     101.726 100.194  78.071  1.00  0.00     0.186 HD
BRANCH  12  14
HETATM   14  C3  UNL     1     100.152  98.332  78.599  1.00  0.00     0.125 C 
HETATM   15  N2  UNL     1      99.483  97.284  78.948  1.00  0.00    -0.311 N 
ATOM     16  H2  UNL     1      98.693  96.999  78.369  1.00  0.00     0.186 HD
BRANCH  15  17
HETATM   17  N1  UNL     1      99.786  96.523  80.076  1.00  0.00    -0.317 N 
HETATM   18  C2  UNL     1      98.831  96.093  80.809  1.00  0.00     0.075 C 
HETATM   19  C1  UNL     1      97.440  96.394  80.470  1.00  0.00     0.056 C 
ATOM     20  H1  UNL     1     100.755  96.313  80.314  1.00  0.00     0.185 HD
ENDBRANCH  15  17
ENDBRANCH  12  14
ENDBRANCH   1  11
TORSDOF 3
ENDMDL
MODEL 4
REMARK VINA RESULT: -5.833987761      2.794      6.362
REMARK  3 active torsions:
REMARK  status: ('A' for Active; 'I' for Inactive)
REMARK    1  A    between atoms: N1_3  and  N2_5 
REMARK    2  A    between atoms: C3_7  and  C4_8 
REMARK    3  A    between atoms: N3_9  and  N4_11 
ROOT
HETATM    1  N4  UNL     1     100.131  99.164  78.855  1.00  0.00    -0.281 N 
HETATM    2  C5  UNL     1     101.078  98.544  79.719  1.00  0.00     0.150 C 
HETATM    3  C6  UNL     1     100.916  98.911  81.174  1.00  0.00     0.022 C 
HETATM    4  C7  UNL     1      99.609  98.466  81.756  1.00  0.00     0.002 C 
HETATM    5  C8  UNL     1      98.587  99.555  81.453  1.00  0.00     0.007 C 
HETATM    6  C9  UNL     1      97.894  99.140  80.168  1.00  0.00     0.077 C 
HETATM    7  C10 UNL     1      98.742  99.419  79.006  1.00  0.00     0.091 C 
HETATM    8  N5  UNL     1      98.118  99.965  78.009  1.00  0.00    -0.388 N 
ATOM      9  H51 UNL     1      97.121 100.149  78.117  1.00  0.00     0.157 HD
ATOM     10  H52 UNL     1      98.708 100.159  77.200  1.00  0.00     0.157 HD
ENDROOT
BRANCH   1  11
HETATM   11  N3  UNL     1     100.629  99.615  77.623  1.00  0.00    -0.307 N 
HETATM   12  C4  UNL     1     101.674 100.356  77.518  1.00  0.00     0.126 C 
ATOM     13  H3  UNL     1     100.139  99.342  76.772  1.00  0.00     0.186 HD
BRANCH  12  14
HETATM   14  C3  UNL     1     102.106 100.766  76.202  1.00  0.00     0.125 C 
HETATM   15  N2  UNL     1     102.466 101.987  75.984  1.00  0.00    -0.311 N 
ATOM     16  H2  UNL     1     102.766 102.243  75.044  1.00  0.00     0.186 HD
BRANCH  15  17
HETATM   17  N1  UNL     1     102.467 102.973  76.971  1.00  0.00    -0.317 N 
HETATM   18  C2  UNL     1     101.670 103.965  76.856  1.00  0.00     0.075 C 
HETATM   19  C1  UNL     1     100.770 104.067  75.708  1.00  0.00     0.056 C 
ATOM     20  H1  UNL     1     103.094 102.902  77.771  1.00  0.00     0.185 HD
ENDBRANCH  15  17
ENDBRANCH  12  14
ENDBRANCH   1  11
TORSDOF 3
ENDMDL
MODEL 5
REMARK VINA RESULT: -5.811655585      2.270      2.704
REMARK  3 active torsions:
REMARK  status: ('A' for Active; 'I' for Inactive)
REMARK    1  A    between atoms: N1_3  and  N2_5 
REMARK    2  A    between atoms: C3_7  and  C4_8 
REMARK    3  A    between atoms: N3_9  and  N4_11 
ROOT
HETATM    1  N4  UNL     1     101.758  98.629  79.969  1.00  0.00    -0.281 N 
HETATM    2  C5  UNL     1     102.624  99.537  80.641  1.00  0.00     0.150 C 
HETATM    3  C6  UNL     1     103.568 100.278  79.726  1.00  0.00     0.022 C 
HETATM    4  C7  UNL     1     102.867 101.167  78.744  1.00  0.00     0.002 C 
HETATM    5  C8  UNL     1     102.505 100.307  77.539  1.00  0.00     0.007 C 
HETATM    6  C9  UNL     1     101.084  99.828  77.771  1.00  0.00     0.077 C 
HETATM    7  C10 UNL     1     101.057  98.729  78.739  1.00  0.00     0.091 C 
HETATM    8  N5  UNL     1     100.288  97.740  78.401  1.00  0.00    -0.388 N 
ATOM      9  H51 UNL     1      99.785  97.811  77.517  1.00  0.00     0.157 HD
ATOM     10  H52 UNL     1     100.269  96.974  79.075  1.00  0.00     0.157 HD
ENDROOT
BRANCH   1  11
HETATM   11  N3  UNL     1     101.537  97.402  80.615  1.00  0.00    -0.307 N 
HETATM   12  C4  UNL     1     101.213  97.311  81.856  1.00  0.00     0.126 C 
ATOM     13  H3  UNL     1     101.639  96.543  80.074  1.00  0.00     0.186 HD
BRANCH  12  14
HETATM   14  C3  UNL     1     101.008  96.000  82.426  1.00  0.00     0.125 C 
HETATM   15  N2  UNL     1     100.877  95.856  83.703  1.00  0.00    -0.311 N 
ATOM     16  H2  UNL     1     100.732  94.916  84.071  1.00  0.00     0.186 HD
BRANCH  15  17
HETATM   17  N1  UNL     1     100.923  96.921  84.602  1.00  0.00    -0.317 N 
HETATM   18  C2  UNL     1     100.907  96.675  85.856  1.00  0.00     0.075 C 
HETATM   19  C1  UNL     1     100.842  95.297  86.342  1.00  0.00     0.056 C 
ATOM     20  H1  UNL     1     100.968  97.882  84.263  1.00  0.00     0.185 HD
ENDBRANCH  15  17
ENDBRANCH  12  14
ENDBRANCH   1  11
TORSDOF 3
ENDMDL
