MODEL 1
REMARK VINA RESULT: -4.890960204      0.000      0.000
REMARK  4 active torsions:
REMARK  status: ('A' for Active; 'I' for Inactive)
REMARK    1  A    between atoms: N3_4  and  C2_6 
REMARK    2  A    between atoms: C2_6  and  C3_7 
REMARK    3  A    between atoms: C3_7  and  N4_8 
REMARK    4  A    between atoms: C6_11  and  N5_12 
ROOT
HETATM    1  N4  UNL     1      -1.749   4.975  12.617  1.00  0.00     0.121 N 
HETATM    2  C4  UNL     1      -2.761   6.036  12.477  1.00  0.00     0.279 C 
HETATM    3  C5  UNL     1      -2.516   6.327  13.946  1.00  0.00     0.095 C 
HETATM    4  C6  UNL     1      -2.202   4.833  13.984  1.00  0.00     0.418 C 
ENDROOT
BRANCH   1   5
HETATM    5  C3  UNL     1      -1.991   3.837  11.759  1.00  0.00     0.294 C 
BRANCH   5   6
HETATM    6  C2  UNL     1      -3.353   3.296  12.111  1.00  0.00     0.152 C 
BRANCH   6   7
HETATM    7  N3  UNL     1      -3.370   1.892  12.340  1.00  0.00    -0.365 N 
HETATM    8  C1  UNL     1      -4.304   1.181  11.842  1.00  0.00     0.197 C 
HETATM    9  N1  UNL     1      -5.315   1.774  11.070  1.00  0.00    -0.067 NA
HETATM   10  N2  UNL     1      -4.314  -0.215  12.073  1.00  0.00    -0.067 NA
ATOM     11  H3  UNL     1      -2.637   1.456  12.900  1.00  0.00     0.161 HD
ENDBRANCH   6   7
ENDBRANCH   5   6
ENDBRANCH   1   5
BRANCH   4  12
HETATM   12  N5  UNL     1      -1.228   4.443  14.947  1.00  0.00    -0.048 N 
ATOM     13  H53 UNL     1      -0.613   3.736  14.544  1.00  0.00     0.276 HD
ATOM     14  H52 UNL     1      -0.566   5.206  15.092  1.00  0.00     0.276 HD
ATOM     15  H51 UNL     1      -1.577   4.119  15.850  1.00  0.00     0.276 HD
ENDBRANCH   4  12
TORSDOF 4
ENDMDL
MODEL 2
REMARK VINA RESULT: -4.854282056      2.962      3.270
REMARK  4 active torsions:
REMARK  status: ('A' for Active; 'I' for Inactive)
REMARK    1  A    between atoms: N3_4  and  C2_6 
REMARK    2  A    between atoms: C2_6  and  C3_7 
REMARK    3  A    between atoms: C3_7  and  N4_8 
REMARK    4  A    between atoms: C6_11  and  N5_12 
ROOT
HETATM    1  N4  UNL     1      -3.284   3.955  13.508  1.00  0.00     0.121 N 
HETATM    2  C4  UNL     1      -3.524   4.968  12.466  1.00  0.00     0.279 C 
HETATM    3  C5  UNL     1      -2.070   5.359  12.648  1.00  0.00     0.095 C 
HETATM    4  C6  UNL     1      -2.328   4.882  14.076  1.00  0.00     0.418 C 
ENDROOT
BRANCH   1   5
HETATM    5  C3  UNL     1      -4.447   3.683  14.321  1.00  0.00     0.294 C 
BRANCH   5   6
HETATM    6  C2  UNL     1      -4.497   2.192  14.540  1.00  0.00     0.152 C 
BRANCH   6   7
HETATM    7  N3  UNL     1      -5.019   1.817  15.809  1.00  0.00    -0.365 N 
HETATM    8  C1  UNL     1      -5.016   0.590  16.157  1.00  0.00     0.197 C 
HETATM    9  N1  UNL     1      -4.502  -0.392  15.296  1.00  0.00    -0.067 NA
HETATM   10  N2  UNL     1      -5.537   0.224  17.421  1.00  0.00    -0.067 NA
ATOM     11  H3  UNL     1      -5.393   2.527  16.439  1.00  0.00     0.161 HD
ENDBRANCH   6   7
ENDBRANCH   5   6
ENDBRANCH   1   5
BRANCH   4  12
HETATM   12  N5  UNL     1      -1.201   4.318  14.739  1.00  0.00    -0.048 N 
ATOM     13  H53 UNL     1      -0.441   4.998  14.759  1.00  0.00     0.276 HD
ATOM     14  H52 UNL     1      -1.400   4.230  15.736  1.00  0.00     0.276 HD
ATOM     15  H51 UNL     1      -0.854   3.428  14.382  1.00  0.00     0.276 HD
ENDBRANCH   4  12
TORSDOF 4
ENDMDL
MODEL 3
REMARK VINA RESULT: -4.816668627      2.177      2.437
REMARK  4 active torsions:
REMARK  status: ('A' for Active; 'I' for Inactive)
REMARK    1  A    between atoms: N3_4  and  C2_6 
REMARK    2  A    between atoms: C2_6  and  C3_7 
REMARK    3  A    between atoms: C3_7  and  N4_8 
REMARK    4  A    between atoms: C6_11  and  N5_12 
ROOT
HETATM    1  N4  UNL     1      -2.808   4.686  13.394  1.00  0.00     0.121 N 
HETATM    2  C4  UNL     1      -2.415   5.763  12.470  1.00  0.00     0.279 C 
HETATM    3  C5  UNL     1      -1.047   5.689  13.122  1.00  0.00     0.095 C 
HETATM    4  C6  UNL     1      -1.869   5.258  14.334  1.00  0.00     0.418 C 
ENDROOT
BRANCH   1   5
HETATM    5  C3  UNL     1      -4.198   4.746  13.785  1.00  0.00     0.294 C 
BRANCH   5   6
HETATM    6  C2  UNL     1      -4.718   3.331  13.799  1.00  0.00     0.152 C 
BRANCH   6   7
HETATM    7  N3  UNL     1      -4.411   2.620  14.992  1.00  0.00    -0.365 N 
HETATM    8  C1  UNL     1      -4.213   1.361  14.946  1.00  0.00     0.197 C 
HETATM    9  N1  UNL     1      -4.297   0.673  13.725  1.00  0.00    -0.067 NA
HETATM   10  N2  UNL     1      -3.908   0.660  16.136  1.00  0.00    -0.067 NA
ATOM     11  H3  UNL     1      -4.348   3.115  15.882  1.00  0.00     0.161 HD
ENDBRANCH   6   7
ENDBRANCH   5   6
ENDBRANCH   1   5
BRANCH   4  12
HETATM   12  N5  UNL     1      -1.214   4.355  15.220  1.00  0.00    -0.048 N 
ATOM     13  H53 UNL     1      -1.251   3.411  14.834  1.00  0.00     0.276 HD
ATOM     14  H52 UNL     1      -0.209   4.527  15.200  1.00  0.00     0.276 HD
ATOM     15  H51 UNL     1      -1.539   4.342  16.187  1.00  0.00     0.276 HD
ENDBRANCH   4  12
TORSDOF 4
ENDMDL
MODEL 4
REMARK VINA RESULT: -4.620358460      2.984      4.165
REMARK  4 active torsions:
REMARK  status: ('A' for Active; 'I' for Inactive)
REMARK    1  A    between atoms: N3_4  and  C2_6 
REMARK    2  A    between atoms: C2_6  and  C3_7 
REMARK    3  A    between atoms: C3_7  and  N4_8 
REMARK    4  A    between atoms: C6_11  and  N5_12 
ROOT
HETATM    1  N4  UNL     1      -4.434   3.571  12.668  1.00  0.00     0.121 N 
HETATM    2  C4  UNL     1      -3.014   3.964  12.680  1.00  0.00     0.279 C 
HETATM    3  C5  UNL     1      -2.884   3.166  11.396  1.00  0.00     0.095 C 
HETATM    4  C6  UNL     1      -4.008   2.347  12.027  1.00  0.00     0.418 C 
ENDROOT
BRANCH   1   5
HETATM    5  C3  UNL     1      -4.997   3.420  13.990  1.00  0.00     0.294 C 
BRANCH   5   6
HETATM    6  C2  UNL     1      -4.419   2.158  14.578  1.00  0.00     0.152 C 
BRANCH   6   7
HETATM    7  N3  UNL     1      -4.980   1.804  15.836  1.00  0.00    -0.365 N 
HETATM    8  C1  UNL     1      -5.018   0.579  16.190  1.00  0.00     0.197 C 
HETATM    9  N1  UNL     1      -4.509  -0.421  15.347  1.00  0.00    -0.067 NA
HETATM   10  N2  UNL     1      -5.578   0.234  17.443  1.00  0.00    -0.067 NA
ATOM     11  H3  UNL     1      -5.351   2.527  16.453  1.00  0.00     0.161 HD
ENDBRANCH   6   7
ENDBRANCH   5   6
ENDBRANCH   1   5
BRANCH   4  12
HETATM   12  N5  UNL     1      -4.917   1.753  11.104  1.00  0.00    -0.048 N 
ATOM     13  H53 UNL     1      -5.863   2.081  11.299  1.00  0.00     0.276 HD
ATOM     14  H52 UNL     1      -4.768   2.150  10.176  1.00  0.00     0.276 HD
ATOM     15  H51 UNL     1      -4.913   0.735  11.044  1.00  0.00     0.276 HD
ENDBRANCH   4  12
TORSDOF 4
ENDMDL
MODEL 5
REMARK VINA RESULT: -4.610657784      2.153      2.555
REMARK  4 active torsions:
REMARK  status: ('A' for Active; 'I' for Inactive)
REMARK    1  A    between atoms: N3_4  and  C2_6 
REMARK    2  A    between atoms: C2_6  and  C3_7 
REMARK    3  A    between atoms: C3_7  and  N4_8 
REMARK    4  A    between atoms: C6_11  and  N5_12 
ROOT
HETATM    1  N4  UNL     1      -4.528   4.628  12.959  1.00  0.00     0.121 N 
HETATM    2  C4  UNL     1      -4.971   4.228  14.306  1.00  0.00     0.279 C 
HETATM    3  C5  UNL     1      -5.897   5.429  14.250  1.00  0.00     0.095 C 
HETATM    4  C6  UNL     1      -4.787   5.992  13.365  1.00  0.00     0.418 C 
ENDROOT
BRANCH   1   5
HETATM    5  C3  UNL     1      -3.144   4.308  12.694  1.00  0.00     0.294 C 
BRANCH   5   6
HETATM    6  C2  UNL     1      -3.129   3.260  11.610  1.00  0.00     0.152 C 
BRANCH   6   7
HETATM    7  N3  UNL     1      -3.207   1.928  12.101  1.00  0.00    -0.365 N 
HETATM    8  C1  UNL     1      -4.227   1.212  11.831  1.00  0.00     0.197 C 
HETATM    9  N1  UNL     1      -5.274   1.731  11.053  1.00  0.00    -0.067 NA
HETATM   10  N2  UNL     1      -4.297  -0.113  12.324  1.00  0.00    -0.067 NA
ATOM     11  H3  UNL     1      -2.448   1.546  12.667  1.00  0.00     0.161 HD
ENDBRANCH   6   7
ENDBRANCH   5   6
ENDBRANCH   1   5
BRANCH   4  12
HETATM   12  N5  UNL     1      -5.220   6.894  12.351  1.00  0.00    -0.048 N 
ATOM     13  H53 UNL     1      -5.160   6.437  11.440  1.00  0.00     0.276 HD
ATOM     14  H52 UNL     1      -6.229   7.032  12.425  1.00  0.00     0.276 HD
ATOM     15  H51 UNL     1      -4.754   7.800  12.310  1.00  0.00     0.276 HD
ENDBRANCH   4  12
TORSDOF 4
ENDMDL
