MODEL 1
REMARK VINA RESULT: -4.796779839      0.000      0.000
REMARK  3 active torsions:
REMARK  status: ('A' for Active; 'I' for Inactive)
REMARK    1  A    between atoms: C2_2  and  C4_4 
REMARK    2  A    between atoms: C4_4  and  N2_8 
REMARK       I    between atoms: N2_8  and  C5_10 
REMARK    3  A    between atoms: N4_12  and  O1_14 
ROOT
HETATM    1  N2  UNL     1      -4.257   2.607  13.122  1.00  0.00    -0.315 N 
ATOM      2  H2  UNL     1      -4.447   1.762  13.662  1.00  0.00     0.170 HD
HETATM    3  C5  UNL     1      -4.259   2.503  11.724  1.00  0.00     0.213 C 
HETATM    4  N3  UNL     1      -5.313   1.830  11.092  1.00  0.00    -0.061 NA
HETATM    5  N4  UNL     1      -3.323   3.010  11.037  1.00  0.00    -0.239 N 
ATOM      6  H4  UNL     1      -2.588   3.485  11.559  1.00  0.00     0.197 HD
ENDROOT
BRANCH   1   7
HETATM    7  C4  UNL     1      -4.006   3.813  13.842  1.00  0.00     0.106 C 
HETATM    8  N1  UNL     1      -2.945   3.793  14.569  1.00  0.00    -0.385 N 
ATOM      9  H12 UNL     1      -2.766   4.656  15.084  1.00  0.00     0.157 HD
ATOM     10  H11 UNL     1      -2.330   2.981  14.627  1.00  0.00     0.157 HD
BRANCH   7  11
HETATM   11  C2  UNL     1      -4.877   4.963  13.760  1.00  0.00    -0.028 C 
HETATM   12  C1  UNL     1      -5.972   5.012  14.473  1.00  0.00     0.022 C 
HETATM   13  C3  UNL     1      -4.514   6.079  12.865  1.00  0.00     0.051 C 
ENDBRANCH   7  11
ENDBRANCH   1   7
BRANCH   5  14
HETATM   14  O1  UNL     1      -3.187   2.993   9.695  1.00  0.00    -0.283 OA
HETATM   15  C6  UNL     1      -2.718   4.030   8.890  1.00  0.00     0.237 C 
ENDBRANCH   5  14
TORSDOF 3
ENDMDL
MODEL 2
REMARK VINA RESULT: -4.671468137      2.562      3.281
REMARK  3 active torsions:
REMARK  status: ('A' for Active; 'I' for Inactive)
REMARK    1  A    between atoms: C2_2  and  C4_4 
REMARK    2  A    between atoms: C4_4  and  N2_8 
REMARK       I    between atoms: N2_8  and  C5_10 
REMARK    3  A    between atoms: N4_12  and  O1_14 
ROOT
HETATM    1  N2  UNL     1      -1.148   4.801  12.793  1.00  0.00    -0.315 N 
ATOM      2  H2  UNL     1      -0.569   5.390  12.194  1.00  0.00     0.170 HD
HETATM    3  C5  UNL     1      -1.566   3.563  12.286  1.00  0.00     0.213 C 
HETATM    4  N3  UNL     1      -0.628   2.730  11.660  1.00  0.00    -0.061 NA
HETATM    5  N4  UNL     1      -2.775   3.197  12.387  1.00  0.00    -0.239 N 
ATOM      6  H4  UNL     1      -3.405   3.850  12.853  1.00  0.00     0.197 HD
ENDROOT
BRANCH   1   7
HETATM    7  C4  UNL     1      -1.478   5.294  14.092  1.00  0.00     0.106 C 
HETATM    8  N1  UNL     1      -1.132   4.522  15.062  1.00  0.00    -0.385 N 
ATOM      9  H12 UNL     1      -1.367   4.874  15.990  1.00  0.00     0.157 HD
ATOM     10  H11 UNL     1      -0.659   3.630  14.917  1.00  0.00     0.157 HD
BRANCH   7  11
HETATM   11  C2  UNL     1      -2.148   6.557  14.297  1.00  0.00    -0.028 C 
HETATM   12  C1  UNL     1      -3.292   6.799  13.712  1.00  0.00     0.022 C 
HETATM   13  C3  UNL     1      -1.526   7.568  15.175  1.00  0.00     0.051 C 
ENDBRANCH   7  11
ENDBRANCH   1   7
BRANCH   5  14
HETATM   14  O1  UNL     1      -3.324   2.045  11.952  1.00  0.00    -0.283 OA
HETATM   15  C6  UNL     1      -4.529   1.901  11.265  1.00  0.00     0.237 C 
ENDBRANCH   5  14
TORSDOF 3
ENDMDL
MODEL 3
REMARK VINA RESULT: -4.515706859      2.780      3.914
REMARK  3 active torsions:
REMARK  status: ('A' for Active; 'I' for Inactive)
REMARK    1  A    between atoms: C2_2  and  C4_4 
REMARK    2  A    between atoms: C4_4  and  N2_8 
REMARK       I    between atoms: N2_8  and  C5_10 
REMARK    3  A    between atoms: N4_12  and  O1_14 
ROOT
HETATM    1  N2  UNL     1      -4.265   3.196  12.954  1.00  0.00    -0.315 N 
ATOM      2  H2  UNL     1      -4.928   3.221  12.179  1.00  0.00     0.170 HD
HETATM    3  C5  UNL     1      -4.209   2.031  13.731  1.00  0.00     0.213 C 
HETATM    4  N3  UNL     1      -4.151   0.786  13.090  1.00  0.00    -0.061 NA
HETATM    5  N4  UNL     1      -4.213   2.096  14.996  1.00  0.00    -0.239 N 
ATOM      6  H4  UNL     1      -4.257   3.032  15.398  1.00  0.00     0.197 HD
ENDROOT
BRANCH   1   7
HETATM    7  C4  UNL     1      -3.456   4.352  13.173  1.00  0.00     0.106 C 
HETATM    8  N1  UNL     1      -2.214   4.202  12.871  1.00  0.00    -0.385 N 
ATOM      9  H12 UNL     1      -1.635   5.028  13.028  1.00  0.00     0.157 HD
ATOM     10  H11 UNL     1      -1.836   3.329  12.504  1.00  0.00     0.157 HD
BRANCH   7  11
HETATM   11  C2  UNL     1      -3.990   5.588  13.694  1.00  0.00    -0.028 C 
HETATM   12  C1  UNL     1      -3.228   6.647  13.790  1.00  0.00     0.022 C 
HETATM   13  C3  UNL     1      -5.405   5.642  14.113  1.00  0.00     0.051 C 
ENDBRANCH   7  11
ENDBRANCH   1   7
BRANCH   5  14
HETATM   14  O1  UNL     1      -4.164   1.072  15.872  1.00  0.00    -0.283 OA
HETATM   15  C6  UNL     1      -5.213   0.593  16.656  1.00  0.00     0.237 C 
ENDBRANCH   5  14
TORSDOF 3
ENDMDL
MODEL 4
REMARK VINA RESULT: -4.499969276      2.461      3.748
REMARK  3 active torsions:
REMARK  status: ('A' for Active; 'I' for Inactive)
REMARK    1  A    between atoms: C2_2  and  C4_4 
REMARK    2  A    between atoms: C4_4  and  N2_8 
REMARK       I    between atoms: N2_8  and  C5_10 
REMARK    3  A    between atoms: N4_12  and  O1_14 
ROOT
HETATM    1  N2  UNL     1      -3.959   3.472  12.151  1.00  0.00    -0.315 N 
ATOM      2  H2  UNL     1      -4.638   4.232  12.185  1.00  0.00     0.170 HD
HETATM    3  C5  UNL     1      -4.447   2.164  12.029  1.00  0.00     0.213 C 
HETATM    4  N3  UNL     1      -5.431   1.889  11.069  1.00  0.00    -0.061 NA
HETATM    5  N4  UNL     1      -4.009   1.238  12.775  1.00  0.00    -0.239 N 
ATOM      6  H4  UNL     1      -3.294   1.505  13.451  1.00  0.00     0.197 HD
ENDROOT
BRANCH   1   7
HETATM    7  C4  UNL     1      -2.575   3.813  12.231  1.00  0.00     0.106 C 
HETATM    8  N1  UNL     1      -2.192   4.228  13.388  1.00  0.00    -0.385 N 
ATOM      9  H12 UNL     1      -1.203   4.472  13.445  1.00  0.00     0.157 HD
ATOM     10  H11 UNL     1      -2.824   4.308  14.184  1.00  0.00     0.157 HD
BRANCH   7  11
HETATM   11  C2  UNL     1      -1.680   3.700  11.104  1.00  0.00    -0.028 C 
HETATM   12  C1  UNL     1      -0.426   3.378  11.288  1.00  0.00     0.022 C 
HETATM   13  C3  UNL     1      -2.197   3.952   9.744  1.00  0.00     0.051 C 
ENDBRANCH   7  11
ENDBRANCH   1   7
BRANCH   5  14
HETATM   14  O1  UNL     1      -4.378  -0.060  12.777  1.00  0.00    -0.283 OA
HETATM   15  C6  UNL     1      -3.878  -1.071  11.957  1.00  0.00     0.237 C 
ENDBRANCH   5  14
TORSDOF 3
ENDMDL
MODEL 5
REMARK VINA RESULT: -4.492520358      2.566      3.075
REMARK  3 active torsions:
REMARK  status: ('A' for Active; 'I' for Inactive)
REMARK    1  A    between atoms: C2_2  and  C4_4 
REMARK    2  A    between atoms: C4_4  and  N2_8 
REMARK       I    between atoms: N2_8  and  C5_10 
REMARK    3  A    between atoms: N4_12  and  O1_14 
ROOT
HETATM    1  N2  UNL     1      -4.054   2.734  14.927  1.00  0.00    -0.315 N 
ATOM      2  H2  UNL     1      -3.490   2.798  15.776  1.00  0.00     0.170 HD
HETATM    3  C5  UNL     1      -4.254   1.463  14.370  1.00  0.00     0.213 C 
HETATM    4  N3  UNL     1      -4.633   0.404  15.206  1.00  0.00    -0.061 NA
HETATM    5  N4  UNL     1      -4.095   1.269  13.128  1.00  0.00    -0.239 N 
ATOM      6  H4  UNL     1      -3.818   2.082  12.578  1.00  0.00     0.197 HD
ENDROOT
BRANCH   1   7
HETATM    7  C4  UNL     1      -4.584   3.944  14.388  1.00  0.00     0.106 C 
HETATM    8  N1  UNL     1      -5.869   4.016  14.395  1.00  0.00    -0.385 N 
ATOM      9  H12 UNL     1      -6.248   4.881  14.009  1.00  0.00     0.157 HD
ATOM     10  H11 UNL     1      -6.462   3.270  14.756  1.00  0.00     0.157 HD
BRANCH   7  11
HETATM   11  C2  UNL     1      -3.744   5.002  13.876  1.00  0.00    -0.028 C 
HETATM   12  C1  UNL     1      -4.276   6.118  13.450  1.00  0.00     0.022 C 
HETATM   13  C3  UNL     1      -2.281   4.807  13.842  1.00  0.00     0.051 C 
ENDBRANCH   7  11
ENDBRANCH   1   7
BRANCH   5  14
HETATM   14  O1  UNL     1      -4.248   0.114  12.451  1.00  0.00    -0.283 OA
HETATM   15  C6  UNL     1      -4.587  -0.028  11.106  1.00  0.00     0.237 C 
ENDBRANCH   5  14
TORSDOF 3
ENDMDL
