MODEL 1
REMARK VINA RESULT: -5.178056381      0.000      0.000
REMARK  3 active torsions:
REMARK  status: ('A' for Active; 'I' for Inactive)
REMARK       I    between atoms: N3_4  and  C2_6 
REMARK    1  A    between atoms: N5_8  and  N6_10 
REMARK    2  A    between atoms: N6_10  and  C3_12 
REMARK    3  A    between atoms: C3_12  and  C4_13 
ROOT
HETATM    1  N1  UNL     1      -4.118   0.993  12.935  1.00  0.00    -0.066 NA
HETATM    2  C1  UNL     1      -4.561   1.972  12.008  1.00  0.00     0.203 C 
HETATM    3  N2  UNL     1      -5.367   1.591  10.904  1.00  0.00    -0.066 NA
HETATM    4  N3  UNL     1      -4.219   3.188  12.188  1.00  0.00    -0.306 N 
ATOM      5  H3  UNL     1      -4.536   3.891  11.521  1.00  0.00     0.170 HD
HETATM    6  C2  UNL     1      -3.421   3.593  13.274  1.00  0.00     0.208 C 
HETATM    7  N4  UNL     1      -3.889   3.403  14.598  1.00  0.00    -0.062 NA
HETATM    8  N5  UNL     1      -2.283   4.127  13.064  1.00  0.00    -0.278 N 
ATOM      9  H5  UNL     1      -1.982   4.246  12.096  1.00  0.00     0.189 HD
ENDROOT
BRANCH   8  10
HETATM   10  N6  UNL     1      -1.423   4.559  14.074  1.00  0.00    -0.334 N 
ATOM     11  H6  UNL     1      -1.110   3.912  14.797  1.00  0.00     0.180 HD
BRANCH  10  12
HETATM   12  C3  UNL     1      -0.988   5.916  14.083  1.00  0.00     0.144 C 
BRANCH  12  13
HETATM   13  C4  UNL     1      -2.097   6.899  14.402  1.00  0.00     0.005 A 
HETATM   14  C5  UNL     1      -1.944   8.228  13.678  1.00  0.00     0.007 A 
HETATM   15  C6  UNL     1      -1.853   8.129  15.156  1.00  0.00     0.007 A 
ENDBRANCH  12  13
ENDBRANCH  10  12
ENDBRANCH   8  10
TORSDOF 3
ENDMDL
MODEL 2
REMARK VINA RESULT: -5.119833483      3.173      3.895
REMARK  3 active torsions:
REMARK  status: ('A' for Active; 'I' for Inactive)
REMARK       I    between atoms: N3_4  and  C2_6 
REMARK    1  A    between atoms: N5_8  and  N6_10 
REMARK    2  A    between atoms: N6_10  and  C3_12 
REMARK    3  A    between atoms: C3_12  and  C4_13 
ROOT
HETATM    1  N1  UNL     1      -5.224   1.762  11.064  1.00  0.00    -0.066 NA
HETATM    2  C1  UNL     1      -4.266   1.787  12.110  1.00  0.00     0.203 C 
HETATM    3  N2  UNL     1      -4.170   0.696  13.012  1.00  0.00    -0.066 NA
HETATM    4  N3  UNL     1      -3.502   2.804  12.220  1.00  0.00    -0.306 N 
ATOM      5  H3  UNL     1      -2.815   2.823  12.972  1.00  0.00     0.170 HD
HETATM    6  C2  UNL     1      -3.576   3.899  11.340  1.00  0.00     0.208 C 
HETATM    7  N4  UNL     1      -3.323   3.709   9.959  1.00  0.00    -0.062 NA
HETATM    8  N5  UNL     1      -3.870   5.056  11.786  1.00  0.00    -0.278 N 
ATOM      9  H5  UNL     1      -4.046   5.152  12.786  1.00  0.00     0.189 HD
ENDROOT
BRANCH   8  10
HETATM   10  N6  UNL     1      -3.967   6.200  10.992  1.00  0.00    -0.334 N 
ATOM     11  H6  UNL     1      -3.127   6.646  10.624  1.00  0.00     0.180 HD
BRANCH  10  12
HETATM   12  C3  UNL     1      -5.254   6.737  10.702  1.00  0.00     0.144 C 
BRANCH  12  13
HETATM   13  C4  UNL     1      -5.652   7.870  11.628  1.00  0.00     0.005 A 
HETATM   14  C5  UNL     1      -7.139   7.881  11.952  1.00  0.00     0.007 A 
HETATM   15  C6  UNL     1      -6.500   8.977  11.183  1.00  0.00     0.007 A 
ENDBRANCH  12  13
ENDBRANCH  10  12
ENDBRANCH   8  10
TORSDOF 3
ENDMDL
MODEL 3
REMARK VINA RESULT: -5.103399860      3.101      3.853
REMARK  3 active torsions:
REMARK  status: ('A' for Active; 'I' for Inactive)
REMARK       I    between atoms: N3_4  and  C2_6 
REMARK    1  A    between atoms: N5_8  and  N6_10 
REMARK    2  A    between atoms: N6_10  and  C3_12 
REMARK    3  A    between atoms: C3_12  and  C4_13 
ROOT
HETATM    1  N1  UNL     1      -4.319   1.105  13.645  1.00  0.00    -0.066 NA
HETATM    2  C1  UNL     1      -4.010   1.785  14.852  1.00  0.00     0.203 C 
HETATM    3  N2  UNL     1      -4.005   1.080  16.084  1.00  0.00    -0.066 NA
HETATM    4  N3  UNL     1      -3.741   3.031  14.803  1.00  0.00    -0.306 N 
ATOM      5  H3  UNL     1      -3.520   3.520  15.669  1.00  0.00     0.170 HD
HETATM    6  C2  UNL     1      -3.739   3.754  13.596  1.00  0.00     0.208 C 
HETATM    7  N4  UNL     1      -2.834   3.396  12.565  1.00  0.00    -0.062 NA
HETATM    8  N5  UNL     1      -4.548   4.725  13.433  1.00  0.00    -0.278 N 
ATOM      9  H5  UNL     1      -5.183   4.951  14.198  1.00  0.00     0.189 HD
ENDROOT
BRANCH   8  10
HETATM   10  N6  UNL     1      -4.619   5.498  12.274  1.00  0.00    -0.334 N 
ATOM     11  H6  UNL     1      -4.436   5.080  11.362  1.00  0.00     0.180 HD
BRANCH  10  12
HETATM   12  C3  UNL     1      -4.952   6.880  12.380  1.00  0.00     0.144 C 
BRANCH  12  13
HETATM   13  C4  UNL     1      -6.106   7.287  11.485  1.00  0.00     0.005 A 
HETATM   14  C5  UNL     1      -6.197   8.792  11.277  1.00  0.00     0.007 A 
HETATM   15  C6  UNL     1      -7.256   8.037  11.991  1.00  0.00     0.007 A 
ENDBRANCH  12  13
ENDBRANCH  10  12
ENDBRANCH   8  10
TORSDOF 3
ENDMDL
MODEL 4
REMARK VINA RESULT: -5.005488634      2.183      3.046
REMARK  3 active torsions:
REMARK  status: ('A' for Active; 'I' for Inactive)
REMARK       I    between atoms: N3_4  and  C2_6 
REMARK    1  A    between atoms: N5_8  and  N6_10 
REMARK    2  A    between atoms: N6_10  and  C3_12 
REMARK    3  A    between atoms: C3_12  and  C4_13 
ROOT
HETATM    1  N1  UNL     1      -5.283   1.766  11.099  1.00  0.00    -0.066 NA
HETATM    2  C1  UNL     1      -4.265   1.075  11.804  1.00  0.00     0.203 C 
HETATM    3  N2  UNL     1      -4.367  -0.326  12.008  1.00  0.00    -0.066 NA
HETATM    4  N3  UNL     1      -3.266   1.736  12.245  1.00  0.00    -0.306 N 
ATOM      5  H3  UNL     1      -2.535   1.240  12.753  1.00  0.00     0.170 HD
HETATM    6  C2  UNL     1      -3.139   3.124  12.056  1.00  0.00     0.208 C 
HETATM    7  N4  UNL     1      -3.059   3.650  10.743  1.00  0.00    -0.062 NA
HETATM    8  N5  UNL     1      -3.098   3.903  13.064  1.00  0.00    -0.278 N 
ATOM      9  H5  UNL     1      -3.160   3.486  13.993  1.00  0.00     0.189 HD
ENDROOT
BRANCH   8  10
HETATM   10  N6  UNL     1      -2.975   5.290  12.977  1.00  0.00    -0.334 N 
ATOM     11  H6  UNL     1      -2.146   5.709  12.555  1.00  0.00     0.180 HD
BRANCH  10  12
HETATM   12  C3  UNL     1      -4.021   6.114  13.485  1.00  0.00     0.144 C 
BRANCH  12  13
HETATM   13  C4  UNL     1      -5.342   5.384  13.628  1.00  0.00     0.005 A 
HETATM   14  C5  UNL     1      -6.548   6.279  13.382  1.00  0.00     0.007 A 
HETATM   15  C6  UNL     1      -6.280   5.678  14.713  1.00  0.00     0.007 A 
ENDBRANCH  12  13
ENDBRANCH  10  12
ENDBRANCH   8  10
TORSDOF 3
ENDMDL
MODEL 5
REMARK VINA RESULT: -4.885245304      1.195      1.817
REMARK  3 active torsions:
REMARK  status: ('A' for Active; 'I' for Inactive)
REMARK       I    between atoms: N3_4  and  C2_6 
REMARK    1  A    between atoms: N5_8  and  N6_10 
REMARK    2  A    between atoms: N6_10  and  C3_12 
REMARK    3  A    between atoms: C3_12  and  C4_13 
ROOT
HETATM    1  N1  UNL     1      -5.306   1.749  11.083  1.00  0.00    -0.066 NA
HETATM    2  C1  UNL     1      -4.289   1.048  11.781  1.00  0.00     0.203 C 
HETATM    3  N2  UNL     1      -4.389  -0.356  11.961  1.00  0.00    -0.066 NA
HETATM    4  N3  UNL     1      -3.294   1.703  12.237  1.00  0.00    -0.306 N 
ATOM      5  H3  UNL     1      -2.563   1.201  12.740  1.00  0.00     0.170 HD
HETATM    6  C2  UNL     1      -3.169   3.095  12.072  1.00  0.00     0.208 C 
HETATM    7  N4  UNL     1      -3.084   3.643  10.768  1.00  0.00    -0.062 NA
HETATM    8  N5  UNL     1      -3.134   3.857  13.093  1.00  0.00    -0.278 N 
ATOM      9  H5  UNL     1      -3.199   3.425  14.015  1.00  0.00     0.189 HD
ENDROOT
BRANCH   8  10
HETATM   10  N6  UNL     1      -3.013   5.246  13.030  1.00  0.00    -0.334 N 
ATOM     11  H6  UNL     1      -3.587   5.785  12.381  1.00  0.00     0.180 HD
BRANCH  10  12
HETATM   12  C3  UNL     1      -2.079   5.902  13.882  1.00  0.00     0.144 C 
BRANCH  12  13
HETATM   13  C4  UNL     1      -2.431   7.351  14.153  1.00  0.00     0.005 A 
HETATM   14  C5  UNL     1      -1.235   8.285  14.048  1.00  0.00     0.007 A 
HETATM   15  C6  UNL     1      -1.940   8.063  15.335  1.00  0.00     0.007 A 
ENDBRANCH  12  13
ENDBRANCH  10  12
ENDBRANCH   8  10
TORSDOF 3
ENDMDL
