MODEL 1
REMARK VINA RESULT: -4.604735167      0.000      0.000
REMARK  3 active torsions:
REMARK  status: ('A' for Active; 'I' for Inactive)
REMARK    1  A    between atoms: C1_2  and  N1_3 
REMARK    2  A    between atoms: C2_5  and  N2_6 
REMARK    3  A    between atoms: N2_6  and  C3_8 
ROOT
HETATM    1  C3  UNL     1      -3.229   4.381  14.186  1.00  0.00     0.284 C 
HETATM    2  C4  UNL     1      -3.854   5.700  13.783  1.00  0.00     0.056 C 
HETATM    3  C5  UNL     1      -2.656   6.543  13.380  1.00  0.00     0.031 C 
HETATM    4  C6  UNL     1      -1.607   5.945  14.327  1.00  0.00     0.235 C 
HETATM    5  N3  UNL     1      -1.802   4.523  14.017  1.00  0.00    -0.054 N 
ATOM      6  H31 UNL     1      -1.440   4.222  13.112  1.00  0.00     0.279 HD
ATOM      7  H32 UNL     1      -1.234   3.877  14.564  1.00  0.00     0.279 HD
ENDROOT
BRANCH   1   8
HETATM    8  N2  UNL     1      -3.780   3.288  13.418  1.00  0.00    -0.359 N 
ATOM      9  H2  UNL     1      -3.708   3.281  12.401  1.00  0.00     0.162 HD
BRANCH   8  10
HETATM   10  C2  UNL     1      -4.423   2.224  14.102  1.00  0.00     0.179 C 
HETATM   11  N1  UNL     1      -4.033   1.817  15.254  1.00  0.00    -0.331 N 
ATOM     12  H1  UNL     1      -3.232   2.283  15.682  1.00  0.00     0.168 HD
BRANCH  11  13
HETATM   13  C1  UNL     1      -4.645   0.763  15.967  1.00  0.00     0.353 C 
HETATM   14  O1  UNL     1      -4.666  -0.402  15.516  1.00  0.00    -0.283 OA
ENDBRANCH  11  13
ENDBRANCH   8  10
ENDBRANCH   1   8
TORSDOF 3
ENDMDL
MODEL 2
REMARK VINA RESULT: -4.442566138      1.832      2.232
REMARK  3 active torsions:
REMARK  status: ('A' for Active; 'I' for Inactive)
REMARK    1  A    between atoms: C1_2  and  N1_3 
REMARK    2  A    between atoms: C2_5  and  N2_6 
REMARK    3  A    between atoms: N2_6  and  C3_8 
ROOT
HETATM    1  C3  UNL     1      -3.051   4.188  13.074  1.00  0.00     0.284 C 
HETATM    2  C4  UNL     1      -4.231   3.695  12.264  1.00  0.00     0.056 C 
HETATM    3  C5  UNL     1      -3.581   2.849  11.182  1.00  0.00     0.031 C 
HETATM    4  C6  UNL     1      -2.255   3.610  11.042  1.00  0.00     0.235 C 
HETATM    5  N3  UNL     1      -1.862   3.649  12.456  1.00  0.00    -0.054 N 
ATOM      6  H31 UNL     1      -1.537   2.762  12.841  1.00  0.00     0.279 HD
ATOM      7  H32 UNL     1      -1.001   4.158  12.654  1.00  0.00     0.279 HD
ENDROOT
BRANCH   1   8
HETATM    8  N2  UNL     1      -3.180   3.814  14.464  1.00  0.00    -0.359 N 
ATOM      9  H2  UNL     1      -2.599   4.255  15.176  1.00  0.00     0.162 HD
BRANCH   8  10
HETATM   10  C2  UNL     1      -4.130   2.824  14.822  1.00  0.00     0.179 C 
HETATM   11  N1  UNL     1      -3.819   1.801  15.532  1.00  0.00    -0.331 N 
ATOM     12  H1  UNL     1      -2.851   1.710  15.843  1.00  0.00     0.168 HD
BRANCH  11  13
HETATM   13  C1  UNL     1      -4.734   0.794  15.909  1.00  0.00     0.353 C 
HETATM   14  O1  UNL     1      -4.637  -0.372  15.468  1.00  0.00    -0.283 OA
ENDBRANCH  11  13
ENDBRANCH   8  10
ENDBRANCH   1   8
TORSDOF 3
ENDMDL
MODEL 3
REMARK VINA RESULT: -4.406909644      1.591      2.029
REMARK  3 active torsions:
REMARK  status: ('A' for Active; 'I' for Inactive)
REMARK    1  A    between atoms: C1_2  and  N1_3 
REMARK    2  A    between atoms: C2_5  and  N2_6 
REMARK    3  A    between atoms: N2_6  and  C3_8 
ROOT
HETATM    1  C3  UNL     1      -4.032   3.311  14.677  1.00  0.00     0.284 C 
HETATM    2  C4  UNL     1      -5.217   4.128  14.207  1.00  0.00     0.056 C 
HETATM    3  C5  UNL     1      -4.626   4.994  13.106  1.00  0.00     0.031 C 
HETATM    4  C6  UNL     1      -3.198   5.141  13.651  1.00  0.00     0.235 C 
HETATM    5  N3  UNL     1      -2.896   3.723  13.887  1.00  0.00    -0.054 N 
ATOM      6  H31 UNL     1      -2.727   3.169  13.047  1.00  0.00     0.279 HD
ATOM      7  H32 UNL     1      -1.986   3.537  14.306  1.00  0.00     0.279 HD
ENDROOT
BRANCH   1   8
HETATM    8  N2  UNL     1      -4.304   1.894  14.573  1.00  0.00    -0.359 N 
ATOM      9  H2  UNL     1      -4.234   1.417  13.675  1.00  0.00     0.162 HD
BRANCH   8  10
HETATM   10  C2  UNL     1      -4.669   1.179  15.743  1.00  0.00     0.179 C 
HETATM   11  N1  UNL     1      -5.821   1.311  16.294  1.00  0.00    -0.331 N 
ATOM     12  H1  UNL     1      -6.486   1.955  15.866  1.00  0.00     0.168 HD
BRANCH  11  13
HETATM   13  C1  UNL     1      -6.222   0.618  17.457  1.00  0.00     0.353 C 
HETATM   14  O1  UNL     1      -5.795  -0.529  17.711  1.00  0.00    -0.283 OA
ENDBRANCH  11  13
ENDBRANCH   8  10
ENDBRANCH   1   8
TORSDOF 3
ENDMDL
MODEL 4
REMARK VINA RESULT: -4.385935161      2.172      2.450
REMARK  3 active torsions:
REMARK  status: ('A' for Active; 'I' for Inactive)
REMARK    1  A    between atoms: C1_2  and  N1_3 
REMARK    2  A    between atoms: C2_5  and  N2_6 
REMARK    3  A    between atoms: N2_6  and  C3_8 
ROOT
HETATM    1  C3  UNL     1      -2.940   4.569  14.288  1.00  0.00     0.284 C 
HETATM    2  C4  UNL     1      -3.412   5.322  13.062  1.00  0.00     0.056 C 
HETATM    3  C5  UNL     1      -2.130   5.544  12.277  1.00  0.00     0.031 C 
HETATM    4  C6  UNL     1      -1.141   5.642  13.447  1.00  0.00     0.235 C 
HETATM    5  N3  UNL     1      -1.510   4.414  14.163  1.00  0.00    -0.054 N 
ATOM      6  H31 UNL     1      -1.205   3.546  13.723  1.00  0.00     0.279 HD
ATOM      7  H32 UNL     1      -1.013   4.255  15.038  1.00  0.00     0.279 HD
ENDROOT
BRANCH   1   8
HETATM    8  N2  UNL     1      -3.633   3.306  14.422  1.00  0.00    -0.359 N 
ATOM      9  H2  UNL     1      -3.614   2.795  15.304  1.00  0.00     0.162 HD
BRANCH   8  10
HETATM   10  C2  UNL     1      -4.339   2.790  13.305  1.00  0.00     0.179 C 
HETATM   11  N1  UNL     1      -3.916   1.781  12.634  1.00  0.00    -0.331 N 
ATOM     12  H1  UNL     1      -3.041   1.345  12.925  1.00  0.00     0.168 HD
BRANCH  11  13
HETATM   13  C1  UNL     1      -4.589   1.239  11.518  1.00  0.00     0.353 C 
HETATM   14  O1  UNL     1      -5.536   1.844  10.971  1.00  0.00    -0.283 OA
ENDBRANCH  11  13
ENDBRANCH   8  10
ENDBRANCH   1   8
TORSDOF 3
ENDMDL
MODEL 5
REMARK VINA RESULT: -4.352463212      1.566      2.198
REMARK  3 active torsions:
REMARK  status: ('A' for Active; 'I' for Inactive)
REMARK    1  A    between atoms: C1_2  and  N1_3 
REMARK    2  A    between atoms: C2_5  and  N2_6 
REMARK    3  A    between atoms: N2_6  and  C3_8 
ROOT
HETATM    1  C3  UNL     1      -4.232   5.003  13.339  1.00  0.00     0.284 C 
HETATM    2  C4  UNL     1      -5.390   5.427  14.218  1.00  0.00     0.056 C 
HETATM    3  C5  UNL     1      -6.254   6.252  13.278  1.00  0.00     0.031 C 
HETATM    4  C6  UNL     1      -5.153   6.824  12.373  1.00  0.00     0.235 C 
HETATM    5  N3  UNL     1      -4.464   5.572  12.033  1.00  0.00    -0.054 N 
ATOM      6  H31 UNL     1      -4.960   4.968  11.378  1.00  0.00     0.279 HD
ATOM      7  H32 UNL     1      -3.633   5.678  11.452  1.00  0.00     0.279 HD
ENDROOT
BRANCH   1   8
HETATM    8  N2  UNL     1      -4.102   3.563  13.310  1.00  0.00    -0.359 N 
ATOM      9  H2  UNL     1      -3.734   3.093  12.483  1.00  0.00     0.162 HD
BRANCH   8  10
HETATM   10  C2  UNL     1      -4.494   2.815  14.449  1.00  0.00     0.179 C 
HETATM   11  N1  UNL     1      -4.171   1.584  14.605  1.00  0.00    -0.331 N 
ATOM     12  H1  UNL     1      -3.612   1.139  13.876  1.00  0.00     0.168 HD
BRANCH  11  13
HETATM   13  C1  UNL     1      -4.542   0.806  15.723  1.00  0.00     0.353 C 
HETATM   14  O1  UNL     1      -4.657  -0.436  15.643  1.00  0.00    -0.283 OA
ENDBRANCH  11  13
ENDBRANCH   8  10
ENDBRANCH   1   8
TORSDOF 3
ENDMDL
