MODEL 1
REMARK VINA RESULT: -4.807866703      0.000      0.000
REMARK  3 active torsions:
REMARK  status: ('A' for Active; 'I' for Inactive)
REMARK    1  A    between atoms: C2_2  and  N1_3 
REMARK       I    between atoms: C3_5  and  N3_7 
REMARK    2  A    between atoms: N3_7  and  C4_9 
REMARK    3  A    between atoms: C4_9  and  C5_10 
ROOT
HETATM    1  N1  UNL     1      -3.379   2.963  11.665  1.00  0.00    -0.365 N 
ATOM      2  H1  UNL     1      -2.635   3.223  12.313  1.00  0.00     0.162 HD
HETATM    3  C3  UNL     1      -4.279   2.107  12.000  1.00  0.00     0.184 C 
HETATM    4  N2  UNL     1      -5.313   1.737  11.121  1.00  0.00    -0.064 NA
HETATM    5  N3  UNL     1      -4.221   1.524  13.293  1.00  0.00    -0.358 N 
ATOM      6  H3  UNL     1      -3.942   0.546  13.381  1.00  0.00     0.162 HD
ENDROOT
BRANCH   5   7
HETATM    7  C4  UNL     1      -4.544   2.269  14.496  1.00  0.00     0.195 C 
BRANCH   7   8
HETATM    8  C5  UNL     1      -4.753   1.356  15.654  1.00  0.00     0.106 C 
HETATM    9  N4  UNL     1      -3.742   0.487  16.105  1.00  0.00    -0.086 NA
HETATM   10  N5  UNL     1      -5.884   1.357  16.259  1.00  0.00    -0.385 N 
HETATM   11  C6  UNL     1      -6.080   0.469  17.381  1.00  0.00     0.147 C 
ATOM     12  H5  UNL     1      -6.635   1.975  15.952  1.00  0.00     0.159 HD
ENDBRANCH   7   8
ENDBRANCH   5   7
BRANCH   1  13
HETATM   13  C2  UNL     1      -3.450   3.551  10.342  1.00  0.00     0.118 C 
HETATM   14  C1  UNL     1      -2.101   4.040   9.876  1.00  0.00     0.026 C 
ENDBRANCH   1  13
TORSDOF 3
ENDMDL
MODEL 2
REMARK VINA RESULT: -4.781190361      2.812      3.627
REMARK  3 active torsions:
REMARK  status: ('A' for Active; 'I' for Inactive)
REMARK    1  A    between atoms: C2_2  and  N1_3 
REMARK       I    between atoms: C3_5  and  N3_7 
REMARK    2  A    between atoms: N3_7  and  C4_9 
REMARK    3  A    between atoms: C4_9  and  C5_10 
ROOT
HETATM    1  N1  UNL     1      -2.124   4.481  10.762  1.00  0.00    -0.365 N 
ATOM      2  H1  UNL     1      -2.817   5.225  10.835  1.00  0.00     0.162 HD
HETATM    3  C3  UNL     1      -1.990   3.607  11.697  1.00  0.00     0.184 C 
HETATM    4  N2  UNL     1      -1.040   2.573  11.614  1.00  0.00    -0.064 NA
HETATM    5  N3  UNL     1      -2.828   3.695  12.841  1.00  0.00    -0.358 N 
ATOM      6  H3  UNL     1      -2.423   3.999  13.726  1.00  0.00     0.162 HD
ENDROOT
BRANCH   5   7
HETATM    7  C4  UNL     1      -4.241   3.366  12.795  1.00  0.00     0.195 C 
BRANCH   7   8
HETATM    8  C5  UNL     1      -4.463   2.038  12.157  1.00  0.00     0.106 C 
HETATM    9  N4  UNL     1      -5.327   1.879  11.059  1.00  0.00    -0.086 NA
HETATM   10  N5  UNL     1      -3.853   1.009  12.619  1.00  0.00    -0.385 N 
HETATM   11  C6  UNL     1      -4.073  -0.275  11.996  1.00  0.00     0.147 C 
ATOM     12  H5  UNL     1      -3.221   1.096  13.416  1.00  0.00     0.159 HD
ENDBRANCH   7   8
ENDBRANCH   5   7
BRANCH   1  13
HETATM   13  C2  UNL     1      -1.263   4.380   9.601  1.00  0.00     0.118 C 
HETATM   14  C1  UNL     1      -2.053   4.117   8.343  1.00  0.00     0.026 C 
ENDBRANCH   1  13
TORSDOF 3
ENDMDL
MODEL 3
REMARK VINA RESULT: -4.764586467      2.431      2.665
REMARK  3 active torsions:
REMARK  status: ('A' for Active; 'I' for Inactive)
REMARK    1  A    between atoms: C2_2  and  N1_3 
REMARK       I    between atoms: C3_5  and  N3_7 
REMARK    2  A    between atoms: N3_7  and  C4_9 
REMARK    3  A    between atoms: C4_9  and  C5_10 
ROOT
HETATM    1  N1  UNL     1      -3.275   3.514  14.222  1.00  0.00    -0.365 N 
ATOM      2  H1  UNL     1      -2.421   2.998  14.433  1.00  0.00     0.162 HD
HETATM    3  C3  UNL     1      -4.423   2.934  14.255  1.00  0.00     0.184 C 
HETATM    4  N2  UNL     1      -5.612   3.628  13.967  1.00  0.00    -0.064 NA
HETATM    5  N3  UNL     1      -4.484   1.555  14.591  1.00  0.00    -0.358 N 
ATOM      6  H3  UNL     1      -4.699   0.879  13.859  1.00  0.00     0.162 HD
ENDROOT
BRANCH   5   7
HETATM    7  C4  UNL     1      -4.251   1.074  15.941  1.00  0.00     0.195 C 
BRANCH   7   8
HETATM    8  C5  UNL     1      -5.536   0.778  16.635  1.00  0.00     0.106 C 
HETATM    9  N4  UNL     1      -5.661  -0.297  17.534  1.00  0.00    -0.086 NA
HETATM   10  N5  UNL     1      -6.558   1.519  16.408  1.00  0.00    -0.385 N 
HETATM   11  C6  UNL     1      -7.799   1.226  17.084  1.00  0.00     0.147 C 
ATOM     12  H5  UNL     1      -6.494   2.304  15.760  1.00  0.00     0.159 HD
ENDBRANCH   7   8
ENDBRANCH   5   7
BRANCH   1  13
HETATM   13  C2  UNL     1      -3.227   4.920  13.878  1.00  0.00     0.118 C 
HETATM   14  C1  UNL     1      -1.911   5.545  14.269  1.00  0.00     0.026 C 
ENDBRANCH   1  13
TORSDOF 3
ENDMDL
MODEL 4
REMARK VINA RESULT: -4.607905563      3.153      4.488
REMARK  3 active torsions:
REMARK  status: ('A' for Active; 'I' for Inactive)
REMARK    1  A    between atoms: C2_2  and  N1_3 
REMARK       I    between atoms: C3_5  and  N3_7 
REMARK    2  A    between atoms: N3_7  and  C4_9 
REMARK    3  A    between atoms: C4_9  and  C5_10 
ROOT
HETATM    1  N1  UNL     1      -2.804   5.831  14.004  1.00  0.00    -0.365 N 
ATOM      2  H1  UNL     1      -3.720   5.990  14.423  1.00  0.00     0.162 HD
HETATM    3  C3  UNL     1      -2.457   4.660  13.598  1.00  0.00     0.184 C 
HETATM    4  N2  UNL     1      -1.199   4.421  13.016  1.00  0.00    -0.064 NA
HETATM    5  N3  UNL     1      -3.374   3.585  13.744  1.00  0.00    -0.358 N 
ATOM      6  H3  UNL     1      -3.188   2.871  14.448  1.00  0.00     0.162 HD
ENDROOT
BRANCH   5   7
HETATM    7  C4  UNL     1      -4.569   3.467  12.927  1.00  0.00     0.195 C 
BRANCH   7   8
HETATM    8  C5  UNL     1      -4.626   2.143  12.248  1.00  0.00     0.106 C 
HETATM    9  N4  UNL     1      -5.378   1.943  11.076  1.00  0.00    -0.086 NA
HETATM   10  N5  UNL     1      -3.975   1.155  12.742  1.00  0.00    -0.385 N 
HETATM   11  C6  UNL     1      -4.034  -0.126  12.079  1.00  0.00     0.147 C 
ATOM     12  H5  UNL     1      -3.422   1.272  13.592  1.00  0.00     0.159 HD
ENDBRANCH   7   8
ENDBRANCH   5   7
BRANCH   1  13
HETATM   13  C2  UNL     1      -1.859   6.918  13.848  1.00  0.00     0.118 C 
HETATM   14  C1  UNL     1      -1.805   7.789  15.079  1.00  0.00     0.026 C 
ENDBRANCH   1  13
TORSDOF 3
ENDMDL
MODEL 5
REMARK VINA RESULT: -4.556205015      2.576      5.642
REMARK  3 active torsions:
REMARK  status: ('A' for Active; 'I' for Inactive)
REMARK    1  A    between atoms: C2_2  and  N1_3 
REMARK       I    between atoms: C3_5  and  N3_7 
REMARK    2  A    between atoms: N3_7  and  C4_9 
REMARK    3  A    between atoms: C4_9  and  C5_10 
ROOT
HETATM    1  N1  UNL     1      -5.757   1.640  15.922  1.00  0.00    -0.365 N 
ATOM      2  H1  UNL     1      -6.340   2.384  15.536  1.00  0.00     0.162 HD
HETATM    3  C3  UNL     1      -4.577   1.419  15.461  1.00  0.00     0.184 C 
HETATM    4  N2  UNL     1      -3.758   0.399  15.979  1.00  0.00    -0.064 NA
HETATM    5  N3  UNL     1      -4.093   2.230  14.400  1.00  0.00    -0.358 N 
ATOM      6  H3  UNL     1      -4.011   1.825  13.468  1.00  0.00     0.162 HD
ENDROOT
BRANCH   5   7
HETATM    7  C4  UNL     1      -3.709   3.617  14.596  1.00  0.00     0.195 C 
BRANCH   7   8
HETATM    8  C5  UNL     1      -4.690   4.540  13.960  1.00  0.00     0.106 C 
HETATM    9  N4  UNL     1      -6.077   4.361  14.105  1.00  0.00    -0.086 NA
HETATM   10  N5  UNL     1      -4.261   5.526  13.261  1.00  0.00    -0.385 N 
HETATM   11  C6  UNL     1      -5.217   6.418  12.648  1.00  0.00     0.147 C 
ATOM     12  H5  UNL     1      -3.260   5.678  13.139  1.00  0.00     0.159 HD
ENDBRANCH   7   8
ENDBRANCH   5   7
BRANCH   1  13
HETATM   13  C2  UNL     1      -6.238   0.806  17.004  1.00  0.00     0.118 C 
HETATM   14  C1  UNL     1      -7.695   1.062  17.300  1.00  0.00     0.026 C 
ENDBRANCH   1  13
TORSDOF 3
ENDMDL
