MODEL 1
REMARK VINA RESULT: -7.185654015      0.000      0.000
REMARK  13 active torsions:
REMARK  status: ('A' for Active; 'I' for Inactive)
REMARK    1  A    between atoms: C2_2  and  C3_3 
REMARK    2  A    between atoms: C7_7  and  C9_9 
REMARK    3  A    between atoms: C9_9  and  C10_10 
REMARK    4  A    between atoms: C10_10  and  C11_11 
REMARK    5  A    between atoms: C11_11  and  C12_12 
REMARK    6  A    between atoms: C12_12  and  O1_15 
REMARK    7  A    between atoms: C17_19  and  C18_20 
REMARK    8  A    between atoms: C18_20  and  O2_22 
REMARK    9  A    between atoms: C18_20  and  C20_24 
REMARK   10  A    between atoms: C20_24  and  C21_25 
REMARK   11  A    between atoms: C21_25  and  C22_26 
REMARK   12  A    between atoms: C22_26  and  C23_27 
REMARK   13  A    between atoms: C23_27  and  O3_30 
ROOT
HETATM    1  C3  UNL     1      22.481  32.018  13.116  1.00  0.00     0.071 C 
HETATM    2  C4  UNL     1      21.339  32.752  13.791  1.00  0.00     0.024 C 
HETATM    3  C5  UNL     1      21.280  32.457  15.267  1.00  0.00     0.003 C 
HETATM    4  C6  UNL     1      21.182  30.999  15.576  1.00  0.00     0.014 C 
HETATM    5  C7  UNL     1      21.984  30.087  14.717  1.00  0.00    -0.019 C 
HETATM    6  C8  UNL     1      21.101  29.340  13.761  1.00  0.00     0.020 C 
HETATM    7  C15 UNL     1      22.967  30.881  13.902  1.00  0.00    -0.054 C 
HETATM    8  C16 UNL     1      24.265  30.590  13.892  1.00  0.00     0.013 C 
HETATM    9  C17 UNL     1      25.311  31.304  13.159  1.00  0.00     0.189 C 
HETATM   10  O4  UNL     1      24.820  32.467  12.521  1.00  0.00    -0.308 OA
HETATM   11  C26 UNL     1      23.591  33.003  12.936  1.00  0.00     0.272 C 
HETATM   12  O5  UNL     1      23.433  34.229  13.143  1.00  0.00    -0.264 OA
ENDROOT
BRANCH   9  13
HETATM   13  C18 UNL     1      26.071  30.464  12.144  1.00  0.00     0.084 C 
HETATM   14  C19 UNL     1      27.175  31.413  11.656  1.00  0.00     0.049 C 
BRANCH  13  15
HETATM   15  O2  UNL     1      25.331  30.078  11.059  1.00  0.00    -0.387 OA
ATOM     16  H2  UNL     1      25.143  30.777  10.443  1.00  0.00     0.210 HD
ENDBRANCH  13  15
BRANCH  13  17
HETATM   17  C20 UNL     1      26.690  29.269  12.778  1.00  0.00     0.040 C 
BRANCH  17  18
HETATM   18  C21 UNL     1      27.668  28.470  12.039  1.00  0.00     0.006 C 
BRANCH  18  19
HETATM   19  C22 UNL     1      27.338  27.114  11.569  1.00  0.00     0.037 C 
BRANCH  19  20
HETATM   20  C23 UNL     1      26.966  27.116  10.066  1.00  0.00     0.051 C 
HETATM   21  C24 UNL     1      27.740  28.157   9.319  1.00  0.00     0.045 C 
HETATM   22  C25 UNL     1      27.400  25.749   9.550  1.00  0.00     0.045 C 
BRANCH  20  23
HETATM   23  O3  UNL     1      25.595  27.248   9.903  1.00  0.00    -0.391 OA
ATOM     24  H3  UNL     1      25.366  27.248   8.981  1.00  0.00     0.210 HD
ENDBRANCH  20  23
ENDBRANCH  19  20
ENDBRANCH  18  19
ENDBRANCH  17  18
ENDBRANCH  13  17
ENDBRANCH   9  13
BRANCH   1  25
HETATM   25  C2  UNL     1      21.962  31.666  11.732  1.00  0.00     0.020 C 
HETATM   26  C1  UNL     1      20.532  32.251  11.705  1.00  0.00     0.006 C 
ENDBRANCH   1  25
BRANCH   5  27
HETATM   27  C9  UNL     1      22.698  29.116  15.614  1.00  0.00     0.014 C 
BRANCH  27  28
HETATM   28  C10 UNL     1      22.436  29.412  17.067  1.00  0.00     0.004 C 
BRANCH  28  29
HETATM   29  C11 UNL     1      22.069  28.099  17.792  1.00  0.00     0.037 C 
BRANCH  29  30
HETATM   30  C12 UNL     1      23.053  27.986  18.956  1.00  0.00     0.051 C 
HETATM   31  C13 UNL     1      23.810  29.259  19.171  1.00  0.00     0.045 C 
HETATM   32  C14 UNL     1      23.989  26.840  18.612  1.00  0.00     0.045 C 
BRANCH  30  33
HETATM   33  O1  UNL     1      22.405  27.642  20.129  1.00  0.00    -0.391 OA
ATOM     34  H1  UNL     1      22.487  28.328  20.782  1.00  0.00     0.210 HD
ENDBRANCH  30  33
ENDBRANCH  29  30
ENDBRANCH  28  29
ENDBRANCH  27  28
ENDBRANCH   5  27
TORSDOF 13
ENDMDL
MODEL 2
REMARK VINA RESULT: -7.037473670      1.795      7.121
REMARK  13 active torsions:
REMARK  status: ('A' for Active; 'I' for Inactive)
REMARK    1  A    between atoms: C2_2  and  C3_3 
REMARK    2  A    between atoms: C7_7  and  C9_9 
REMARK    3  A    between atoms: C9_9  and  C10_10 
REMARK    4  A    between atoms: C10_10  and  C11_11 
REMARK    5  A    between atoms: C11_11  and  C12_12 
REMARK    6  A    between atoms: C12_12  and  O1_15 
REMARK    7  A    between atoms: C17_19  and  C18_20 
REMARK    8  A    between atoms: C18_20  and  O2_22 
REMARK    9  A    between atoms: C18_20  and  C20_24 
REMARK   10  A    between atoms: C20_24  and  C21_25 
REMARK   11  A    between atoms: C21_25  and  C22_26 
REMARK   12  A    between atoms: C22_26  and  C23_27 
REMARK   13  A    between atoms: C23_27  and  O3_30 
ROOT
HETATM    1  C3  UNL     1      24.750  33.654  12.176  1.00  0.00     0.071 C 
HETATM    2  C4  UNL     1      25.973  33.973  11.338  1.00  0.00     0.024 C 
HETATM    3  C5  UNL     1      26.388  32.801  10.486  1.00  0.00     0.003 C 
HETATM    4  C6  UNL     1      26.638  31.556  11.273  1.00  0.00     0.014 C 
HETATM    5  C7  UNL     1      25.713  31.296  12.408  1.00  0.00    -0.019 C 
HETATM    6  C8  UNL     1      26.394  31.555  13.721  1.00  0.00     0.020 C 
HETATM    7  C15 UNL     1      24.524  32.214  12.324  1.00  0.00    -0.054 C 
HETATM    8  C16 UNL     1      23.278  31.750  12.361  1.00  0.00     0.013 C 
HETATM    9  C17 UNL     1      22.053  32.542  12.265  1.00  0.00     0.189 C 
HETATM   10  O4  UNL     1      22.315  33.905  11.992  1.00  0.00    -0.308 OA
HETATM   11  C26 UNL     1      23.574  34.268  11.488  1.00  0.00     0.272 C 
HETATM   12  O5  UNL     1      23.705  35.056  10.522  1.00  0.00    -0.264 OA
ENDROOT
BRANCH   9  13
HETATM   13  C18 UNL     1      21.128  32.445  13.468  1.00  0.00     0.084 C 
HETATM   14  C19 UNL     1      20.042  31.466  13.002  1.00  0.00     0.049 C 
BRANCH  13  15
HETATM   15  O2  UNL     1      20.521  33.622  13.813  1.00  0.00    -0.387 OA
ATOM     16  H2  UNL     1      20.470  33.780  14.749  1.00  0.00     0.210 HD
ENDBRANCH  13  15
BRANCH  13  17
HETATM   17  C20 UNL     1      21.830  31.880  14.652  1.00  0.00     0.040 C 
BRANCH  17  18
HETATM   18  C21 UNL     1      21.063  31.253  15.729  1.00  0.00     0.006 C 
BRANCH  18  19
HETATM   19  C22 UNL     1      21.348  29.873  16.158  1.00  0.00     0.037 C 
BRANCH  19  20
HETATM   20  C23 UNL     1      20.798  29.603  17.580  1.00  0.00     0.051 C 
HETATM   21  C24 UNL     1      19.476  28.903  17.523  1.00  0.00     0.045 C 
HETATM   22  C25 UNL     1      21.805  28.653  18.218  1.00  0.00     0.045 C 
BRANCH  20  23
HETATM   23  O3  UNL     1      20.751  30.777  18.317  1.00  0.00    -0.391 OA
ATOM     24  H3  UNL     1      20.328  30.630  19.154  1.00  0.00     0.210 HD
ENDBRANCH  20  23
ENDBRANCH  19  20
ENDBRANCH  18  19
ENDBRANCH  17  18
ENDBRANCH  13  17
ENDBRANCH   9  13
BRANCH   1  25
HETATM   25  C2  UNL     1      24.955  34.408  13.478  1.00  0.00     0.020 C 
HETATM   26  C1  UNL     1      26.162  35.330  13.195  1.00  0.00     0.006 C 
ENDBRANCH   1  25
BRANCH   5  27
HETATM   27  C9  UNL     1      25.283  29.859  12.334  1.00  0.00     0.014 C 
BRANCH  27  28
HETATM   28  C10 UNL     1      25.873  29.167  11.134  1.00  0.00     0.004 C 
BRANCH  28  29
HETATM   29  C11 UNL     1      26.626  27.902  11.599  1.00  0.00     0.037 C 
BRANCH  29  30
HETATM   30  C12 UNL     1      26.755  27.023  10.355  1.00  0.00     0.051 C 
HETATM   31  C13 UNL     1      27.368  25.695  10.673  1.00  0.00     0.045 C 
HETATM   32  C14 UNL     1      27.610  27.802   9.370  1.00  0.00     0.045 C 
BRANCH  30  33
HETATM   33  O1  UNL     1      25.525  26.821   9.754  1.00  0.00    -0.391 OA
ATOM     34  H1  UNL     1      24.932  26.355  10.332  1.00  0.00     0.210 HD
ENDBRANCH  30  33
ENDBRANCH  29  30
ENDBRANCH  28  29
ENDBRANCH  27  28
ENDBRANCH   5  27
TORSDOF 13
ENDMDL
MODEL 3
REMARK VINA RESULT: -6.833372738      1.696      2.686
REMARK  13 active torsions:
REMARK  status: ('A' for Active; 'I' for Inactive)
REMARK    1  A    between atoms: C2_2  and  C3_3 
REMARK    2  A    between atoms: C7_7  and  C9_9 
REMARK    3  A    between atoms: C9_9  and  C10_10 
REMARK    4  A    between atoms: C10_10  and  C11_11 
REMARK    5  A    between atoms: C11_11  and  C12_12 
REMARK    6  A    between atoms: C12_12  and  O1_15 
REMARK    7  A    between atoms: C17_19  and  C18_20 
REMARK    8  A    between atoms: C18_20  and  O2_22 
REMARK    9  A    between atoms: C18_20  and  C20_24 
REMARK   10  A    between atoms: C20_24  and  C21_25 
REMARK   11  A    between atoms: C21_25  and  C22_26 
REMARK   12  A    between atoms: C22_26  and  C23_27 
REMARK   13  A    between atoms: C23_27  and  O3_30 
ROOT
HETATM    1  C3  UNL     1      22.490  32.026  13.220  1.00  0.00     0.071 C 
HETATM    2  C4  UNL     1      21.305  32.758  13.819  1.00  0.00     0.024 C 
HETATM    3  C5  UNL     1      21.162  32.478  15.293  1.00  0.00     0.003 C 
HETATM    4  C6  UNL     1      21.057  31.022  15.611  1.00  0.00     0.014 C 
HETATM    5  C7  UNL     1      21.916  30.108  14.811  1.00  0.00    -0.019 C 
HETATM    6  C8  UNL     1      21.095  29.343  13.813  1.00  0.00     0.020 C 
HETATM    7  C15 UNL     1      22.938  30.902  14.046  1.00  0.00    -0.054 C 
HETATM    8  C16 UNL     1      24.237  30.621  14.115  1.00  0.00     0.013 C 
HETATM    9  C17 UNL     1      25.318  31.336  13.436  1.00  0.00     0.189 C 
HETATM   10  O4  UNL     1      24.856  32.488  12.758  1.00  0.00    -0.308 OA
HETATM   11  C26 UNL     1      23.602  33.018  13.095  1.00  0.00     0.272 C 
HETATM   12  O5  UNL     1      23.422  34.245  13.279  1.00  0.00    -0.264 OA
ENDROOT
BRANCH   9  13
HETATM   13  C18 UNL     1      26.143  30.492  12.478  1.00  0.00     0.084 C 
HETATM   14  C19 UNL     1      27.582  30.953  12.748  1.00  0.00     0.049 C 
BRANCH  13  15
HETATM   15  O2  UNL     1      25.869  30.706  11.154  1.00  0.00    -0.387 OA
ATOM     16  H2  UNL     1      25.076  30.285  10.843  1.00  0.00     0.210 HD
ENDBRANCH  13  15
BRANCH  13  17
HETATM   17  C20 UNL     1      26.022  29.041  12.784  1.00  0.00     0.040 C 
BRANCH  17  18
HETATM   18  C21 UNL     1      27.005  28.389  13.650  1.00  0.00     0.006 C 
BRANCH  18  19
HETATM   19  C22 UNL     1      26.651  27.975  15.019  1.00  0.00     0.037 C 
BRANCH  19  20
HETATM   20  C23 UNL     1      27.534  28.695  16.068  1.00  0.00     0.051 C 
HETATM   21  C24 UNL     1      26.796  29.830  16.707  1.00  0.00     0.045 C 
HETATM   22  C25 UNL     1      27.803  27.647  17.142  1.00  0.00     0.045 C 
BRANCH  20  23
HETATM   23  O3  UNL     1      28.739  29.088  15.506  1.00  0.00    -0.391 OA
ATOM     24  H3  UNL     1      29.360  29.330  16.182  1.00  0.00     0.210 HD
ENDBRANCH  20  23
ENDBRANCH  19  20
ENDBRANCH  18  19
ENDBRANCH  17  18
ENDBRANCH  13  17
ENDBRANCH   9  13
BRANCH   1  25
HETATM   25  C2  UNL     1      22.056  31.655  11.812  1.00  0.00     0.020 C 
HETATM   26  C1  UNL     1      20.637  32.251  11.685  1.00  0.00     0.006 C 
ENDBRANCH   1  25
BRANCH   5  27
HETATM   27  C9  UNL     1      22.583  29.153  15.759  1.00  0.00     0.014 C 
BRANCH  27  28
HETATM   28  C10 UNL     1      22.268  29.488  17.193  1.00  0.00     0.004 C 
BRANCH  28  29
HETATM   29  C11 UNL     1      22.195  28.182  18.013  1.00  0.00     0.037 C 
BRANCH  29  30
HETATM   30  C12 UNL     1      23.323  28.280  19.040  1.00  0.00     0.051 C 
HETATM   31  C13 UNL     1      23.898  29.660  19.105  1.00  0.00     0.045 C 
HETATM   32  C14 UNL     1      24.372  27.265  18.617  1.00  0.00     0.045 C 
BRANCH  30  33
HETATM   33  O1  UNL     1      22.887  27.912  20.300  1.00  0.00    -0.391 OA
ATOM     34  H1  UNL     1      23.597  27.937  20.931  1.00  0.00     0.210 HD
ENDBRANCH  30  33
ENDBRANCH  29  30
ENDBRANCH  28  29
ENDBRANCH  27  28
ENDBRANCH   5  27
TORSDOF 13
ENDMDL
MODEL 4
REMARK VINA RESULT: -6.807216159      2.493      6.824
REMARK  13 active torsions:
REMARK  status: ('A' for Active; 'I' for Inactive)
REMARK    1  A    between atoms: C2_2  and  C3_3 
REMARK    2  A    between atoms: C7_7  and  C9_9 
REMARK    3  A    between atoms: C9_9  and  C10_10 
REMARK    4  A    between atoms: C10_10  and  C11_11 
REMARK    5  A    between atoms: C11_11  and  C12_12 
REMARK    6  A    between atoms: C12_12  and  O1_15 
REMARK    7  A    between atoms: C17_19  and  C18_20 
REMARK    8  A    between atoms: C18_20  and  O2_22 
REMARK    9  A    between atoms: C18_20  and  C20_24 
REMARK   10  A    between atoms: C20_24  and  C21_25 
REMARK   11  A    between atoms: C21_25  and  C22_26 
REMARK   12  A    between atoms: C22_26  and  C23_27 
REMARK   13  A    between atoms: C23_27  and  O3_30 
ROOT
HETATM    1  C3  UNL     1      24.901  35.581  12.740  1.00  0.00     0.071 C 
HETATM    2  C4  UNL     1      26.080  36.525  12.614  1.00  0.00     0.024 C 
HETATM    3  C5  UNL     1      26.985  36.140  11.472  1.00  0.00     0.003 C 
HETATM    4  C6  UNL     1      27.483  34.734  11.560  1.00  0.00     0.014 C 
HETATM    5  C7  UNL     1      26.512  33.719  12.049  1.00  0.00    -0.019 C 
HETATM    6  C8  UNL     1      26.842  33.297  13.451  1.00  0.00     0.020 C 
HETATM    7  C15 UNL     1      25.124  34.300  12.065  1.00  0.00    -0.054 C 
HETATM    8  C16 UNL     1      24.104  33.692  11.467  1.00  0.00     0.013 C 
HETATM    9  C17 UNL     1      22.724  34.173  11.398  1.00  0.00     0.189 C 
HETATM   10  O4  UNL     1      22.581  35.469  11.946  1.00  0.00    -0.308 OA
HETATM   11  C26 UNL     1      23.723  36.264  12.122  1.00  0.00     0.272 C 
HETATM   12  O5  UNL     1      23.757  37.470  11.782  1.00  0.00    -0.264 OA
ENDROOT
BRANCH   9  13
HETATM   13  C18 UNL     1      21.690  33.251  12.024  1.00  0.00     0.084 C 
HETATM   14  C19 UNL     1      22.118  31.859  11.539  1.00  0.00     0.049 C 
BRANCH  13  15
HETATM   15  O2  UNL     1      20.406  33.472  11.605  1.00  0.00    -0.387 OA
ATOM     16  H2  UNL     1      19.861  32.694  11.580  1.00  0.00     0.210 HD
ENDBRANCH  13  15
BRANCH  13  17
HETATM   17  C20 UNL     1      21.746  33.296  13.510  1.00  0.00     0.040 C 
BRANCH  17  18
HETATM   18  C21 UNL     1      22.107  32.098  14.268  1.00  0.00     0.006 C 
BRANCH  18  19
HETATM   19  C22 UNL     1      21.161  31.488  15.218  1.00  0.00     0.037 C 
BRANCH  19  20
HETATM   20  C23 UNL     1      21.155  29.945  15.091  1.00  0.00     0.051 C 
HETATM   21  C24 UNL     1      20.463  29.510  13.836  1.00  0.00     0.045 C 
HETATM   22  C25 UNL     1      22.623  29.552  14.977  1.00  0.00     0.045 C 
BRANCH  20  23
HETATM   23  O3  UNL     1      20.616  29.363  16.229  1.00  0.00    -0.391 OA
ATOM     24  H3  UNL     1      20.482  28.433  16.097  1.00  0.00     0.210 HD
ENDBRANCH  20  23
ENDBRANCH  19  20
ENDBRANCH  18  19
ENDBRANCH  17  18
ENDBRANCH  13  17
ENDBRANCH   9  13
BRANCH   1  25
HETATM   25  C2  UNL     1      24.631  35.481  14.232  1.00  0.00     0.020 C 
HETATM   26  C1  UNL     1      25.509  36.593  14.849  1.00  0.00     0.006 C 
ENDBRANCH   1  25
BRANCH   5  27
HETATM   27  C9  UNL     1      26.581  32.532  11.131  1.00  0.00     0.014 C 
BRANCH  27  28
HETATM   28  C10 UNL     1      26.937  31.276  11.881  1.00  0.00     0.004 C 
BRANCH  28  29
HETATM   29  C11 UNL     1      27.222  30.146  10.867  1.00  0.00     0.037 C 
BRANCH  29  30
HETATM   30  C12 UNL     1      26.265  29.013  11.238  1.00  0.00     0.051 C 
HETATM   31  C13 UNL     1      25.236  29.456  12.230  1.00  0.00     0.045 C 
HETATM   32  C14 UNL     1      27.127  27.895  11.800  1.00  0.00     0.045 C 
BRANCH  30  33
HETATM   33  O1  UNL     1      25.627  28.510  10.119  1.00  0.00    -0.391 OA
ATOM     34  H1  UNL     1      24.866  29.033   9.891  1.00  0.00     0.210 HD
ENDBRANCH  30  33
ENDBRANCH  29  30
ENDBRANCH  28  29
ENDBRANCH  27  28
ENDBRANCH   5  27
TORSDOF 13
ENDMDL
MODEL 5
REMARK VINA RESULT: -6.788250487      2.744      6.461
REMARK  13 active torsions:
REMARK  status: ('A' for Active; 'I' for Inactive)
REMARK    1  A    between atoms: C2_2  and  C3_3 
REMARK    2  A    between atoms: C7_7  and  C9_9 
REMARK    3  A    between atoms: C9_9  and  C10_10 
REMARK    4  A    between atoms: C10_10  and  C11_11 
REMARK    5  A    between atoms: C11_11  and  C12_12 
REMARK    6  A    between atoms: C12_12  and  O1_15 
REMARK    7  A    between atoms: C17_19  and  C18_20 
REMARK    8  A    between atoms: C18_20  and  O2_22 
REMARK    9  A    between atoms: C18_20  and  C20_24 
REMARK   10  A    between atoms: C20_24  and  C21_25 
REMARK   11  A    between atoms: C21_25  and  C22_26 
REMARK   12  A    between atoms: C22_26  and  C23_27 
REMARK   13  A    between atoms: C23_27  and  O3_30 
ROOT
HETATM    1  C3  UNL     1      24.190  34.790  12.365  1.00  0.00     0.071 C 
HETATM    2  C4  UNL     1      25.247  35.541  11.580  1.00  0.00     0.024 C 
HETATM    3  C5  UNL     1      25.857  34.684  10.501  1.00  0.00     0.003 C 
HETATM    4  C6  UNL     1      26.438  33.408  11.018  1.00  0.00     0.014 C 
HETATM    5  C7  UNL     1      25.677  32.726  12.099  1.00  0.00    -0.019 C 
HETATM    6  C8  UNL     1      26.370  32.886  13.421  1.00  0.00     0.020 C 
HETATM    7  C15 UNL     1      24.308  33.336  12.228  1.00  0.00    -0.054 C 
HETATM    8  C16 UNL     1      23.205  32.593  12.200  1.00  0.00     0.013 C 
HETATM    9  C17 UNL     1      21.828  33.077  12.293  1.00  0.00     0.189 C 
HETATM   10  O4  UNL     1      21.755  34.490  12.292  1.00  0.00    -0.308 OA
HETATM   11  C26 UNL     1      22.860  35.228  11.841  1.00  0.00     0.272 C 
HETATM   12  O5  UNL     1      22.741  36.192  11.050  1.00  0.00    -0.264 OA
ENDROOT
BRANCH   9  13
HETATM   13  C18 UNL     1      21.035  32.539  13.474  1.00  0.00     0.084 C 
HETATM   14  C19 UNL     1      19.927  31.712  12.808  1.00  0.00     0.049 C 
BRANCH  13  15
HETATM   15  O2  UNL     1      20.443  33.502  14.245  1.00  0.00    -0.387 OA
ATOM     16  H2  UNL     1      19.834  33.167  14.893  1.00  0.00     0.210 HD
ENDBRANCH  13  15
BRANCH  13  17
HETATM   17  C20 UNL     1      21.867  31.653  14.332  1.00  0.00     0.040 C 
BRANCH  17  18
HETATM   18  C21 UNL     1      21.390  31.256  15.657  1.00  0.00     0.006 C 
BRANCH  18  19
HETATM   19  C22 UNL     1      20.959  29.873  15.924  1.00  0.00     0.037 C 
BRANCH  19  20
HETATM   20  C23 UNL     1      20.607  29.675  17.419  1.00  0.00     0.051 C 
HETATM   21  C24 UNL     1      19.284  28.990  17.576  1.00  0.00     0.045 C 
HETATM   22  C25 UNL     1      21.685  28.741  17.957  1.00  0.00     0.045 C 
BRANCH  20  23
HETATM   23  O3  UNL     1      20.669  30.881  18.100  1.00  0.00    -0.391 OA
ATOM     24  H3  UNL     1      21.570  31.168  18.191  1.00  0.00     0.210 HD
ENDBRANCH  20  23
ENDBRANCH  19  20
ENDBRANCH  18  19
ENDBRANCH  17  18
ENDBRANCH  13  17
ENDBRANCH   9  13
BRANCH   1  25
HETATM   25  C2  UNL     1      24.308  35.312  13.787  1.00  0.00     0.020 C 
HETATM   26  C1  UNL     1      25.169  36.587  13.651  1.00  0.00     0.006 C 
ENDBRANCH   1  25
BRANCH   5  27
HETATM   27  C9  UNL     1      25.580  31.269  11.749  1.00  0.00     0.014 C 
BRANCH  27  28
HETATM   28  C10 UNL     1      26.248  30.407  12.787  1.00  0.00     0.004 C 
BRANCH  28  29
HETATM   29  C11 UNL     1      25.206  29.434  13.382  1.00  0.00     0.037 C 
BRANCH  29  30
HETATM   30  C12 UNL     1      25.728  29.079  14.775  1.00  0.00     0.051 C 
HETATM   31  C13 UNL     1      26.738  27.976  14.727  1.00  0.00     0.045 C 
HETATM   32  C14 UNL     1      24.513  28.677  15.594  1.00  0.00     0.045 C 
BRANCH  30  33
HETATM   33  O1  UNL     1      26.289  30.180  15.396  1.00  0.00    -0.391 OA
ATOM     34  H1  UNL     1      26.542  29.980  16.290  1.00  0.00     0.210 HD
ENDBRANCH  30  33
ENDBRANCH  29  30
ENDBRANCH  28  29
ENDBRANCH  27  28
ENDBRANCH   5  27
TORSDOF 13
ENDMDL
