MODEL 1
REMARK VINA RESULT: -8.316106122      0.000      0.000
REMARK  13 active torsions:
REMARK  status: ('A' for Active; 'I' for Inactive)
REMARK    1  A    between atoms: C7_7  and  O1_8 
REMARK    2  A    between atoms: C11_14  and  C12_15 
REMARK    3  A    between atoms: C12_15  and  C14_17 
REMARK    4  A    between atoms: C14_17  and  C15_18 
REMARK    5  A    between atoms: C15_18  and  C16_19 
REMARK    6  A    between atoms: C16_19  and  C17_20 
REMARK    7  A    between atoms: C17_20  and  C18_21 
REMARK    8  A    between atoms: C18_21  and  C19_22 
REMARK    9  A    between atoms: C19_22  and  C20_23 
REMARK   10  A    between atoms: C20_23  and  C21_24 
REMARK   11  A    between atoms: C21_24  and  C22_25 
REMARK   12  A    between atoms: C24_27  and  O3_28 
REMARK   13  A    between atoms: C25_30  and  O4_31 
ROOT
HETATM    1  C14 UNL     1      20.273  32.538  12.513  1.00  0.00     0.007 C 
ENDROOT
BRANCH   1   2
HETATM    2  C12 UNL     1      21.291  31.433  12.423  1.00  0.00     0.011 C 
HETATM    3  C13 UNL     1      22.507  31.997  11.655  1.00  0.00     0.012 C 
BRANCH   2   4
HETATM    4  C11 UNL     1      21.797  31.073  13.766  1.00  0.00     0.137 C 
HETATM    5  C10 UNL     1      22.804  29.929  13.725  1.00  0.00     0.074 C 
HETATM    6  C4  UNL     1      22.827  29.517  15.151  1.00  0.00    -0.021 A 
HETATM    7  C3  UNL     1      21.618  29.910  15.684  1.00  0.00     0.084 A 
HETATM    8  C5  UNL     1      23.746  28.876  15.950  1.00  0.00     0.027 A 
HETATM    9  C2  UNL     1      21.386  29.639  17.014  1.00  0.00     0.007 A 
HETATM   10  O6  UNL     1      20.862  30.538  14.671  1.00  0.00    -0.344 OA
HETATM   11  C1  UNL     1      20.091  30.050  17.626  1.00  0.00     0.054 C 
HETATM   12  C9  UNL     1      22.291  28.999  17.836  1.00  0.00     0.096 A 
HETATM   13  C6  UNL     1      23.502  28.607  17.288  1.00  0.00     0.034 A 
HETATM   14  O2  UNL     1      22.324  28.629  19.087  1.00  0.00    -0.318 OA
HETATM   15  C7  UNL     1      24.246  27.993  18.273  1.00  0.00     0.101 A 
HETATM   16  C8  UNL     1      23.446  28.036  19.395  1.00  0.00     0.179 A 
BRANCH  15  17
HETATM   17  O1  UNL     1      25.518  27.446  18.183  1.00  0.00    -0.358 OA
ATOM     18  H1  UNL     1      26.205  27.434  18.838  1.00  0.00     0.217 HD
ENDBRANCH  15  17
ENDBRANCH   2   4
ENDBRANCH   1   2
BRANCH   1  19
HETATM   19  C15 UNL     1      20.674  33.849  11.933  1.00  0.00     0.000 C 
BRANCH  19  20
HETATM   20  C16 UNL     1      20.127  35.031  12.707  1.00  0.00     0.000 C 
BRANCH  20  21
HETATM   21  C17 UNL     1      20.991  36.224  12.441  1.00  0.00     0.000 C 
BRANCH  21  22
HETATM   22  C18 UNL     1      22.342  35.808  11.923  1.00  0.00     0.000 C 
BRANCH  22  23
HETATM   23  C19 UNL     1      22.965  36.896  11.101  1.00  0.00     0.000 C 
BRANCH  23  24
HETATM   24  C20 UNL     1      21.920  37.850  10.546  1.00  0.00     0.002 C 
BRANCH  24  25
HETATM   25  C21 UNL     1      22.337  38.468   9.236  1.00  0.00     0.032 C 
BRANCH  25  26
HETATM   26  C22 UNL     1      21.160  38.345   8.288  1.00  0.00     0.124 C 
HETATM   27  C23 UNL     1      21.643  38.191   6.863  1.00  0.00     0.066 C 
HETATM   28  C24 UNL     1      20.421  37.763   6.046  1.00  0.00     0.151 C 
HETATM   29  C25 UNL     1      19.271  38.698   6.290  1.00  0.00     0.170 C 
HETATM   30  C26 UNL     1      19.135  39.139   7.710  1.00  0.00     0.202 C 
HETATM   31  O5  UNL     1      20.334  39.462   8.321  1.00  0.00    -0.383 OA
BRANCH  28  32
HETATM   32  O3  UNL     1      20.137  36.459   6.430  1.00  0.00    -0.393 OA
ATOM     33  H3  UNL     1      20.207  36.442   7.377  1.00  0.00     0.210 HD
ENDBRANCH  28  32
BRANCH  29  34
HETATM   34  O4  UNL     1      18.097  37.984   5.965  1.00  0.00    -0.391 OA
ATOM     35  H4  UNL     1      17.811  37.555   6.763  1.00  0.00     0.210 HD
ENDBRANCH  29  34
ENDBRANCH  25  26
ENDBRANCH  24  25
ENDBRANCH  23  24
ENDBRANCH  22  23
ENDBRANCH  21  22
ENDBRANCH  20  21
ENDBRANCH  19  20
ENDBRANCH   1  19
TORSDOF 13
ENDMDL
MODEL 2
REMARK VINA RESULT: -8.122213759      3.520      5.871
REMARK  13 active torsions:
REMARK  status: ('A' for Active; 'I' for Inactive)
REMARK    1  A    between atoms: C7_7  and  O1_8 
REMARK    2  A    between atoms: C11_14  and  C12_15 
REMARK    3  A    between atoms: C12_15  and  C14_17 
REMARK    4  A    between atoms: C14_17  and  C15_18 
REMARK    5  A    between atoms: C15_18  and  C16_19 
REMARK    6  A    between atoms: C16_19  and  C17_20 
REMARK    7  A    between atoms: C17_20  and  C18_21 
REMARK    8  A    between atoms: C18_21  and  C19_22 
REMARK    9  A    between atoms: C19_22  and  C20_23 
REMARK   10  A    between atoms: C20_23  and  C21_24 
REMARK   11  A    between atoms: C21_24  and  C22_25 
REMARK   12  A    between atoms: C24_27  and  O3_28 
REMARK   13  A    between atoms: C25_30  and  O4_31 
ROOT
HETATM    1  C14 UNL     1      20.403  30.969  16.777  1.00  0.00     0.007 C 
ENDROOT
BRANCH   1   2
HETATM    2  C12 UNL     1      20.776  29.977  17.845  1.00  0.00     0.011 C 
HETATM    3  C13 UNL     1      20.096  28.639  17.480  1.00  0.00     0.012 C 
BRANCH   2   4
HETATM    4  C11 UNL     1      22.232  29.705  17.826  1.00  0.00     0.137 C 
HETATM    5  C10 UNL     1      22.549  28.214  17.830  1.00  0.00     0.074 C 
HETATM    6  C4  UNL     1      23.983  28.228  18.212  1.00  0.00    -0.021 A 
HETATM    7  C3  UNL     1      24.186  29.406  18.898  1.00  0.00     0.084 A 
HETATM    8  C5  UNL     1      25.035  27.361  18.024  1.00  0.00     0.027 A 
HETATM    9  C2  UNL     1      25.455  29.663  19.368  1.00  0.00     0.007 A 
HETATM   10  O6  UNL     1      22.965  30.111  18.956  1.00  0.00    -0.344 OA
HETATM   11  C1  UNL     1      25.714  30.927  20.114  1.00  0.00     0.054 C 
HETATM   12  C9  UNL     1      26.526  28.810  19.192  1.00  0.00     0.096 A 
HETATM   13  C6  UNL     1      26.308  27.629  18.501  1.00  0.00     0.034 A 
HETATM   14  O2  UNL     1      27.789  28.809  19.522  1.00  0.00    -0.318 OA
HETATM   15  C7  UNL     1      27.499  26.935  18.441  1.00  0.00     0.101 A 
HETATM   16  C8  UNL     1      28.404  27.734  19.107  1.00  0.00     0.179 A 
BRANCH  15  17
HETATM   17  O1  UNL     1      27.756  25.707  17.849  1.00  0.00    -0.358 OA
ATOM     18  H1  UNL     1      28.591  25.343  17.581  1.00  0.00     0.217 HD
ENDBRANCH  15  17
ENDBRANCH   2   4
ENDBRANCH   1   2
BRANCH   1  19
HETATM   19  C15 UNL     1      21.314  31.044  15.603  1.00  0.00     0.000 C 
BRANCH  19  20
HETATM   20  C16 UNL     1      20.701  30.475  14.340  1.00  0.00     0.000 C 
BRANCH  20  21
HETATM   21  C17 UNL     1      21.670  29.512  13.725  1.00  0.00     0.000 C 
BRANCH  21  22
HETATM   22  C18 UNL     1      23.028  29.632  14.362  1.00  0.00     0.000 C 
BRANCH  22  23
HETATM   23  C19 UNL     1      24.091  29.868  13.331  1.00  0.00     0.000 C 
BRANCH  23  24
HETATM   24  C20 UNL     1      23.847  31.153  12.556  1.00  0.00     0.002 C 
BRANCH  24  25
HETATM   25  C21 UNL     1      24.399  32.367  13.259  1.00  0.00     0.032 C 
BRANCH  25  26
HETATM   26  C22 UNL     1      23.388  33.483  13.084  1.00  0.00     0.124 C 
HETATM   27  C23 UNL     1      22.246  33.028  12.202  1.00  0.00     0.066 C 
HETATM   28  C24 UNL     1      21.151  34.088  12.346  1.00  0.00     0.151 C 
HETATM   29  C25 UNL     1      21.711  35.460  12.101  1.00  0.00     0.170 C 
HETATM   30  C26 UNL     1      23.073  35.674  12.674  1.00  0.00     0.202 C 
HETATM   31  O5  UNL     1      23.940  34.610  12.488  1.00  0.00    -0.383 OA
BRANCH  28  32
HETATM   32  O3  UNL     1      20.640  33.944  13.630  1.00  0.00    -0.393 OA
ATOM     33  H3  UNL     1      20.341  34.806  13.893  1.00  0.00     0.210 HD
ENDBRANCH  28  32
BRANCH  29  34
HETATM   34  O4  UNL     1      20.845  36.370  12.746  1.00  0.00    -0.391 OA
ATOM     35  H4  UNL     1      20.976  36.252  13.680  1.00  0.00     0.210 HD
ENDBRANCH  29  34
ENDBRANCH  25  26
ENDBRANCH  24  25
ENDBRANCH  23  24
ENDBRANCH  22  23
ENDBRANCH  21  22
ENDBRANCH  20  21
ENDBRANCH  19  20
ENDBRANCH   1  19
TORSDOF 13
ENDMDL
MODEL 3
REMARK VINA RESULT: -8.101059975      1.073      1.573
REMARK  13 active torsions:
REMARK  status: ('A' for Active; 'I' for Inactive)
REMARK    1  A    between atoms: C7_7  and  O1_8 
REMARK    2  A    between atoms: C11_14  and  C12_15 
REMARK    3  A    between atoms: C12_15  and  C14_17 
REMARK    4  A    between atoms: C14_17  and  C15_18 
REMARK    5  A    between atoms: C15_18  and  C16_19 
REMARK    6  A    between atoms: C16_19  and  C17_20 
REMARK    7  A    between atoms: C17_20  and  C18_21 
REMARK    8  A    between atoms: C18_21  and  C19_22 
REMARK    9  A    between atoms: C19_22  and  C20_23 
REMARK   10  A    between atoms: C20_23  and  C21_24 
REMARK   11  A    between atoms: C21_24  and  C22_25 
REMARK   12  A    between atoms: C24_27  and  O3_28 
REMARK   13  A    between atoms: C25_30  and  O4_31 
ROOT
HETATM    1  C14 UNL     1      20.449  33.534  12.861  1.00  0.00     0.007 C 
ENDROOT
BRANCH   1   2
HETATM    2  C12 UNL     1      20.841  32.094  12.671  1.00  0.00     0.011 C 
HETATM    3  C13 UNL     1      21.978  32.067  11.626  1.00  0.00     0.012 C 
BRANCH   2   4
HETATM    4  C11 UNL     1      21.426  31.540  13.913  1.00  0.00     0.137 C 
HETATM    5  C10 UNL     1      22.479  30.472  13.639  1.00  0.00     0.074 C 
HETATM    6  C4  UNL     1      22.587  29.828  14.971  1.00  0.00    -0.021 A 
HETATM    7  C3  UNL     1      21.388  30.063  15.610  1.00  0.00     0.084 A 
HETATM    8  C5  UNL     1      23.570  29.110  15.614  1.00  0.00     0.027 A 
HETATM    9  C2  UNL     1      21.231  29.561  16.883  1.00  0.00     0.007 A 
HETATM   10  O6  UNL     1      20.558  30.812  14.750  1.00  0.00    -0.344 OA
HETATM   11  C1  UNL     1      19.949  29.795  17.606  1.00  0.00     0.054 C 
HETATM   12  C9  UNL     1      22.201  28.838  17.548  1.00  0.00     0.096 A 
HETATM   13  C6  UNL     1      23.401  28.608  16.895  1.00  0.00     0.034 A 
HETATM   14  O2  UNL     1      22.310  28.266  18.716  1.00  0.00    -0.318 OA
HETATM   15  C7  UNL     1      24.218  27.876  17.732  1.00  0.00     0.101 A 
HETATM   16  C8  UNL     1      23.470  27.688  18.874  1.00  0.00     0.179 A 
BRANCH  15  17
HETATM   17  O1  UNL     1      25.506  27.418  17.500  1.00  0.00    -0.358 OA
ATOM     18  H1  UNL     1      25.784  26.657  17.005  1.00  0.00     0.217 HD
ENDBRANCH  15  17
ENDBRANCH   2   4
ENDBRANCH   1   2
BRANCH   1  19
HETATM   19  C15 UNL     1      20.993  34.500  11.866  1.00  0.00     0.000 C 
BRANCH  19  20
HETATM   20  C16 UNL     1      21.004  35.927  12.373  1.00  0.00     0.000 C 
BRANCH  20  21
HETATM   21  C17 UNL     1      22.348  36.527  12.097  1.00  0.00     0.000 C 
BRANCH  21  22
HETATM   22  C18 UNL     1      22.347  37.275  10.791  1.00  0.00     0.000 C 
BRANCH  22  23
HETATM   23  C19 UNL     1      21.273  38.321  10.767  1.00  0.00     0.000 C 
BRANCH  23  24
HETATM   24  C20 UNL     1      21.233  39.055   9.437  1.00  0.00     0.002 C 
BRANCH  24  25
HETATM   25  C21 UNL     1      20.721  38.191   8.313  1.00  0.00     0.032 C 
BRANCH  25  26
HETATM   26  C22 UNL     1      19.729  39.024   7.525  1.00  0.00     0.124 C 
HETATM   27  C23 UNL     1      19.267  38.273   6.296  1.00  0.00     0.066 C 
HETATM   28  C24 UNL     1      18.059  39.044   5.757  1.00  0.00     0.151 C 
HETATM   29  C25 UNL     1      18.394  40.499   5.595  1.00  0.00     0.170 C 
HETATM   30  C26 UNL     1      19.240  41.057   6.692  1.00  0.00     0.202 C 
HETATM   31  O5  UNL     1      20.273  40.226   7.090  1.00  0.00    -0.383 OA
BRANCH  28  32
HETATM   32  O3  UNL     1      17.030  38.834   6.666  1.00  0.00    -0.393 OA
ATOM     33  H3  UNL     1      16.523  38.106   6.326  1.00  0.00     0.210 HD
ENDBRANCH  28  32
BRANCH  29  34
HETATM   34  O4  UNL     1      17.168  41.200   5.622  1.00  0.00    -0.391 OA
ATOM     35  H4  UNL     1      17.211  41.849   4.930  1.00  0.00     0.210 HD
ENDBRANCH  29  34
ENDBRANCH  25  26
ENDBRANCH  24  25
ENDBRANCH  23  24
ENDBRANCH  22  23
ENDBRANCH  21  22
ENDBRANCH  20  21
ENDBRANCH  19  20
ENDBRANCH   1  19
TORSDOF 13
ENDMDL
MODEL 4
REMARK VINA RESULT: -8.096314694      3.208      4.906
REMARK  13 active torsions:
REMARK  status: ('A' for Active; 'I' for Inactive)
REMARK    1  A    between atoms: C7_7  and  O1_8 
REMARK    2  A    between atoms: C11_14  and  C12_15 
REMARK    3  A    between atoms: C12_15  and  C14_17 
REMARK    4  A    between atoms: C14_17  and  C15_18 
REMARK    5  A    between atoms: C15_18  and  C16_19 
REMARK    6  A    between atoms: C16_19  and  C17_20 
REMARK    7  A    between atoms: C17_20  and  C18_21 
REMARK    8  A    between atoms: C18_21  and  C19_22 
REMARK    9  A    between atoms: C19_22  and  C20_23 
REMARK   10  A    between atoms: C20_23  and  C21_24 
REMARK   11  A    between atoms: C21_24  and  C22_25 
REMARK   12  A    between atoms: C24_27  and  O3_28 
REMARK   13  A    between atoms: C25_30  and  O4_31 
ROOT
HETATM    1  C14 UNL     1      27.022  31.271  12.106  1.00  0.00     0.007 C 
ENDROOT
BRANCH   1   2
HETATM    2  C12 UNL     1      25.655  30.678  11.894  1.00  0.00     0.011 C 
HETATM    3  C13 UNL     1      25.854  29.178  11.585  1.00  0.00     0.012 C 
BRANCH   2   4
HETATM    4  C11 UNL     1      24.860  30.729  13.141  1.00  0.00     0.137 C 
HETATM    5  C10 UNL     1      24.611  29.346  13.733  1.00  0.00     0.074 C 
HETATM    6  C4  UNL     1      23.506  29.634  14.680  1.00  0.00    -0.021 A 
HETATM    7  C3  UNL     1      22.877  30.765  14.203  1.00  0.00     0.084 A 
HETATM    8  C5  UNL     1      23.044  29.034  15.830  1.00  0.00     0.027 A 
HETATM    9  C2  UNL     1      21.800  31.247  14.914  1.00  0.00     0.007 A 
HETATM   10  O6  UNL     1      23.532  31.183  13.026  1.00  0.00    -0.344 OA
HETATM   11  C1  UNL     1      21.095  32.467  14.430  1.00  0.00     0.054 C 
HETATM   12  C9  UNL     1      21.319  30.663  16.068  1.00  0.00     0.096 A 
HETATM   13  C6  UNL     1      21.959  29.527  16.537  1.00  0.00     0.034 A 
HETATM   14  O2  UNL     1      20.350  30.904  16.909  1.00  0.00    -0.318 OA
HETATM   15  C7  UNL     1      21.323  29.113  17.689  1.00  0.00     0.101 A 
HETATM   16  C8  UNL     1      20.308  30.027  17.875  1.00  0.00     0.179 A 
BRANCH  15  17
HETATM   17  O1  UNL     1      21.618  28.026  18.497  1.00  0.00    -0.358 OA
ATOM     18  H1  UNL     1      22.082  28.012  19.325  1.00  0.00     0.217 HD
ENDBRANCH  15  17
ENDBRANCH   2   4
ENDBRANCH   1   2
BRANCH   1  19
HETATM   19  C15 UNL     1      27.062  32.626  12.720  1.00  0.00     0.000 C 
BRANCH  19  20
HETATM   20  C16 UNL     1      27.813  32.658  14.035  1.00  0.00     0.000 C 
BRANCH  20  21
HETATM   21  C17 UNL     1      28.156  34.079  14.361  1.00  0.00     0.000 C 
BRANCH  21  22
HETATM   22  C18 UNL     1      27.251  35.034  13.630  1.00  0.00     0.000 C 
BRANCH  22  23
HETATM   23  C19 UNL     1      26.648  36.035  14.570  1.00  0.00     0.000 C 
BRANCH  23  24
HETATM   24  C20 UNL     1      25.130  35.956  14.577  1.00  0.00     0.002 C 
BRANCH  24  25
HETATM   25  C21 UNL     1      24.585  35.159  13.419  1.00  0.00     0.032 C 
BRANCH  25  26
HETATM   26  C22 UNL     1      23.595  36.047  12.692  1.00  0.00     0.124 C 
HETATM   27  C23 UNL     1      22.387  35.246  12.258  1.00  0.00     0.066 C 
HETATM   28  C24 UNL     1      21.332  36.269  11.830  1.00  0.00     0.151 C 
HETATM   29  C25 UNL     1      21.911  37.240  10.840  1.00  0.00     0.170 C 
HETATM   30  C26 UNL     1      23.312  37.656  11.143  1.00  0.00     0.202 C 
HETATM   31  O5  UNL     1      24.137  36.620  11.548  1.00  0.00    -0.383 OA
BRANCH  28  32
HETATM   32  O3  UNL     1      20.902  36.892  12.995  1.00  0.00    -0.393 OA
ATOM     33  H3  UNL     1      20.618  37.762  12.740  1.00  0.00     0.210 HD
ENDBRANCH  28  32
BRANCH  29  34
HETATM   34  O4  UNL     1      21.112  38.403  10.903  1.00  0.00    -0.391 OA
ATOM     35  H4  UNL     1      21.683  39.135  10.700  1.00  0.00     0.210 HD
ENDBRANCH  29  34
ENDBRANCH  25  26
ENDBRANCH  24  25
ENDBRANCH  23  24
ENDBRANCH  22  23
ENDBRANCH  21  22
ENDBRANCH  20  21
ENDBRANCH  19  20
ENDBRANCH   1  19
TORSDOF 13
ENDMDL
MODEL 5
REMARK VINA RESULT: -8.058633096      4.276      5.950
REMARK  13 active torsions:
REMARK  status: ('A' for Active; 'I' for Inactive)
REMARK    1  A    between atoms: C7_7  and  O1_8 
REMARK    2  A    between atoms: C11_14  and  C12_15 
REMARK    3  A    between atoms: C12_15  and  C14_17 
REMARK    4  A    between atoms: C14_17  and  C15_18 
REMARK    5  A    between atoms: C15_18  and  C16_19 
REMARK    6  A    between atoms: C16_19  and  C17_20 
REMARK    7  A    between atoms: C17_20  and  C18_21 
REMARK    8  A    between atoms: C18_21  and  C19_22 
REMARK    9  A    between atoms: C19_22  and  C20_23 
REMARK   10  A    between atoms: C20_23  and  C21_24 
REMARK   11  A    between atoms: C21_24  and  C22_25 
REMARK   12  A    between atoms: C24_27  and  O3_28 
REMARK   13  A    between atoms: C25_30  and  O4_31 
ROOT
HETATM    1  C14 UNL     1      20.094  33.497  13.054  1.00  0.00     0.007 C 
ENDROOT
BRANCH   1   2
HETATM    2  C12 UNL     1      20.304  32.014  12.906  1.00  0.00     0.011 C 
HETATM    3  C13 UNL     1      20.953  31.782  11.524  1.00  0.00     0.012 C 
BRANCH   2   4
HETATM    4  C11 UNL     1      21.285  31.520  13.898  1.00  0.00     0.137 C 
HETATM    5  C10 UNL     1      22.245  30.492  13.309  1.00  0.00     0.074 C 
HETATM    6  C4  UNL     1      22.811  29.890  14.542  1.00  0.00    -0.021 A 
HETATM    7  C3  UNL     1      21.873  30.091  15.533  1.00  0.00     0.084 A 
HETATM    8  C5  UNL     1      23.984  29.233  14.840  1.00  0.00     0.027 A 
HETATM    9  C2  UNL     1      22.161  29.617  16.794  1.00  0.00     0.007 A 
HETATM   10  O6  UNL     1      20.773  30.779  14.980  1.00  0.00    -0.344 OA
HETATM   11  C1  UNL     1      21.172  29.816  17.890  1.00  0.00     0.054 C 
HETATM   12  C9  UNL     1      23.329  28.956  17.116  1.00  0.00     0.096 A 
HETATM   13  C6  UNL     1      24.263  28.759  16.112  1.00  0.00     0.034 A 
HETATM   14  O2  UNL     1      23.838  28.421  18.193  1.00  0.00    -0.318 OA
HETATM   15  C7  UNL     1      25.342  28.087  16.647  1.00  0.00     0.101 A 
HETATM   16  C8  UNL     1      25.014  27.899  17.973  1.00  0.00     0.179 A 
BRANCH  15  17
HETATM   17  O1  UNL     1      26.507  27.680  16.015  1.00  0.00    -0.358 OA
ATOM     18  H1  UNL     1      27.358  27.501  16.399  1.00  0.00     0.217 HD
ENDBRANCH  15  17
ENDBRANCH   2   4
ENDBRANCH   1   2
BRANCH   1  19
HETATM   19  C15 UNL     1      20.485  34.335  11.887  1.00  0.00     0.000 C 
BRANCH  19  20
HETATM   20  C16 UNL     1      21.440  35.452  12.255  1.00  0.00     0.000 C 
BRANCH  20  21
HETATM   21  C17 UNL     1      22.811  35.095  11.768  1.00  0.00     0.000 C 
BRANCH  21  22
HETATM   22  C18 UNL     1      23.637  34.496  12.875  1.00  0.00     0.000 C 
BRANCH  22  23
HETATM   23  C19 UNL     1      24.359  33.268  12.407  1.00  0.00     0.000 C 
BRANCH  23  24
HETATM   24  C20 UNL     1      25.671  33.071  13.150  1.00  0.00     0.002 C 
BRANCH  24  25
HETATM   25  C21 UNL     1      26.116  31.631  13.168  1.00  0.00     0.032 C 
BRANCH  25  26
HETATM   26  C22 UNL     1      26.373  31.224  11.730  1.00  0.00     0.124 C 
HETATM   27  C23 UNL     1      27.108  29.903  11.679  1.00  0.00     0.066 C 
HETATM   28  C24 UNL     1      27.036  29.435  10.223  1.00  0.00     0.151 C 
HETATM   29  C25 UNL     1      27.501  30.522   9.297  1.00  0.00     0.170 C 
HETATM   30  C26 UNL     1      27.054  31.891   9.692  1.00  0.00     0.202 C 
HETATM   31  O5  UNL     1      27.151  32.151  11.048  1.00  0.00    -0.383 OA
BRANCH  28  32
HETATM   32  O3  UNL     1      25.714  29.074   9.997  1.00  0.00    -0.393 OA
ATOM     33  H3  UNL     1      25.573  29.160   9.062  1.00  0.00     0.210 HD
ENDBRANCH  28  32
BRANCH  29  34
HETATM   34  O4  UNL     1      26.929  30.249   8.035  1.00  0.00    -0.391 OA
ATOM     35  H4  UNL     1      27.615  29.864   7.504  1.00  0.00     0.210 HD
ENDBRANCH  29  34
ENDBRANCH  25  26
ENDBRANCH  24  25
ENDBRANCH  23  24
ENDBRANCH  22  23
ENDBRANCH  21  22
ENDBRANCH  20  21
ENDBRANCH  19  20
ENDBRANCH   1  19
TORSDOF 13
ENDMDL
