MODEL 1
REMARK VINA RESULT: -7.856289024      0.000      0.000
REMARK  11 active torsions:
REMARK  status: ('A' for Active; 'I' for Inactive)
REMARK    1  A    between atoms: C5_5  and  C6_6 
REMARK    2  A    between atoms: C6_6  and  C7_7 
REMARK    3  A    between atoms: C7_7  and  C8_8 
REMARK    4  A    between atoms: C10_10  and  C11_11 
REMARK    5  A    between atoms: C11_11  and  C12_12 
REMARK    6  A    between atoms: C11_11  and  C15_15 
REMARK    7  A    between atoms: C12_12  and  C13_13 
REMARK    8  A    between atoms: C16_19  and  C17_20 
REMARK    9  A    between atoms: C18_21  and  O4_22 
REMARK       I    between atoms: N1_26  and  C21_27 
REMARK   10  A    between atoms: C21_27  and  C22_29 
REMARK   11  A    between atoms: C24_31  and  O6_32 
ROOT
HETATM    1  C1  UNL     1      24.801  35.756  14.568  1.00  0.00     0.017 C 
HETATM    2  C2  UNL     1      24.271  35.256  13.478  1.00  0.00    -0.048 C 
HETATM    3  C3  UNL     1      24.171  33.767  13.235  1.00  0.00     0.042 C 
HETATM    4  C4  UNL     1      25.533  33.171  13.178  1.00  0.00     0.017 C 
HETATM    5  C5  UNL     1      23.371  33.651  11.997  1.00  0.00     0.137 C 
HETATM    6  O3  UNL     1      24.136  34.317  10.995  1.00  0.00    -0.344 OA
HETATM    7  C16 UNL     1      23.661  35.631  11.067  1.00  0.00     0.109 C 
HETATM    8  C24 UNL     1      23.654  36.177  12.410  1.00  0.00     0.206 C 
ENDROOT
BRANCH   5   9
HETATM    9  C6  UNL     1      22.805  32.408  11.492  1.00  0.00     0.037 C 
BRANCH   9  10
HETATM   10  C7  UNL     1      21.327  32.241  11.765  1.00  0.00     0.036 C 
BRANCH  10  11
HETATM   11  C8  UNL     1      20.864  32.608  13.092  1.00  0.00    -0.087 C 
HETATM   12  C9  UNL     1      19.990  33.907  13.089  1.00  0.00     0.043 C 
HETATM   13  C10 UNL     1      21.029  32.149  14.283  1.00  0.00    -0.009 C 
BRANCH  13  14
HETATM   14  C11 UNL     1      21.748  31.038  14.864  1.00  0.00     0.109 C 
BRANCH  14  15
HETATM   15  C12 UNL     1      22.148  29.960  13.928  1.00  0.00     0.019 C 
BRANCH  15  16
HETATM   16  C13 UNL     1      23.664  29.760  13.808  1.00  0.00    -0.003 C 
HETATM   17  C14 UNL     1      24.074  29.025  15.109  1.00  0.00     0.005 C 
ENDBRANCH  15  16
ENDBRANCH  14  15
BRANCH  14  18
HETATM   18  C15 UNL     1      20.869  30.533  15.984  1.00  0.00     0.180 C 
HETATM   19  O1  UNL     1      20.638  31.214  17.011  1.00  0.00    -0.647 OA
HETATM   20  O2  UNL     1      20.299  29.287  15.890  1.00  0.00    -0.647 OA
ENDBRANCH  14  18
ENDBRANCH  13  14
ENDBRANCH  10  11
ENDBRANCH   9  10
ENDBRANCH   5   9
BRANCH   7  21
HETATM   21  C17 UNL     1      23.849  36.431   9.859  1.00  0.00     0.107 A 
HETATM   22  C18 UNL     1      24.859  36.159   8.929  1.00  0.00     0.096 A 
HETATM   23  C19 UNL     1      24.692  36.955   7.840  1.00  0.00     0.056 A 
HETATM   24  C20 UNL     1      23.593  37.710   8.096  1.00  0.00     0.103 A 
HETATM   25  N1  UNL     1      23.069  37.392   9.329  1.00  0.00    -0.288 N 
HETATM   26  C21 UNL     1      21.857  37.995   9.783  1.00  0.00     0.228 C 
HETATM   27  O5  UNL     1      21.293  37.782  10.856  1.00  0.00    -0.273 OA
BRANCH  22  28
HETATM   28  O4  UNL     1      25.887  35.201   9.111  1.00  0.00    -0.358 OA
ATOM     29  H4  UNL     1      26.817  35.392   9.072  1.00  0.00     0.217 HD
ENDBRANCH  22  28
BRANCH  26  30
HETATM   30  C22 UNL     1      21.149  39.001   8.910  1.00  0.00     0.099 C 
HETATM   31  C23 UNL     1      20.147  38.209   8.059  1.00  0.00     0.014 C 
ENDBRANCH  26  30
ENDBRANCH   7  21
BRANCH   8  32
HETATM   32  O6  UNL     1      22.475  36.549  13.026  1.00  0.00    -0.384 OA
ATOM     33  H6  UNL     1      22.467  37.484  12.859  1.00  0.00     0.211 HD
ENDBRANCH   8  32
TORSDOF 11
ENDMDL
MODEL 2
REMARK VINA RESULT: -7.806037235      1.487      2.859
REMARK  11 active torsions:
REMARK  status: ('A' for Active; 'I' for Inactive)
REMARK    1  A    between atoms: C5_5  and  C6_6 
REMARK    2  A    between atoms: C6_6  and  C7_7 
REMARK    3  A    between atoms: C7_7  and  C8_8 
REMARK    4  A    between atoms: C10_10  and  C11_11 
REMARK    5  A    between atoms: C11_11  and  C12_12 
REMARK    6  A    between atoms: C11_11  and  C15_15 
REMARK    7  A    between atoms: C12_12  and  C13_13 
REMARK    8  A    between atoms: C16_19  and  C17_20 
REMARK    9  A    between atoms: C18_21  and  O4_22 
REMARK       I    between atoms: N1_26  and  C21_27 
REMARK   10  A    between atoms: C21_27  and  C22_29 
REMARK   11  A    between atoms: C24_31  and  O6_32 
ROOT
HETATM    1  C1  UNL     1      27.099  35.322  13.902  1.00  0.00     0.017 C 
HETATM    2  C2  UNL     1      25.904  34.901  13.564  1.00  0.00    -0.048 C 
HETATM    3  C3  UNL     1      25.569  33.432  13.435  1.00  0.00     0.042 C 
HETATM    4  C4  UNL     1      26.391  32.817  12.359  1.00  0.00     0.017 C 
HETATM    5  C5  UNL     1      24.107  33.409  13.214  1.00  0.00     0.137 C 
HETATM    6  O3  UNL     1      23.902  34.123  11.997  1.00  0.00    -0.344 OA
HETATM    7  C16 UNL     1      23.720  35.439  12.440  1.00  0.00     0.109 C 
HETATM    8  C24 UNL     1      24.751  35.898  13.348  1.00  0.00     0.206 C 
ENDROOT
BRANCH   5   9
HETATM    9  C6  UNL     1      23.282  32.210  13.269  1.00  0.00     0.037 C 
BRANCH   9  10
HETATM   10  C7  UNL     1      22.106  32.306  14.215  1.00  0.00     0.036 C 
BRANCH  10  11
HETATM   11  C8  UNL     1      21.323  31.098  14.407  1.00  0.00    -0.087 C 
HETATM   12  C9  UNL     1      20.269  30.874  13.270  1.00  0.00     0.043 C 
HETATM   13  C10 UNL     1      21.254  30.180  15.306  1.00  0.00    -0.009 C 
BRANCH  13  14
HETATM   14  C11 UNL     1      21.934  29.911  16.553  1.00  0.00     0.109 C 
BRANCH  14  15
HETATM   15  C12 UNL     1      22.975  28.857  16.512  1.00  0.00     0.019 C 
BRANCH  15  16
HETATM   16  C13 UNL     1      24.377  29.368  16.157  1.00  0.00    -0.003 C 
HETATM   17  C14 UNL     1      24.587  28.962  14.677  1.00  0.00     0.005 C 
ENDBRANCH  15  16
ENDBRANCH  14  15
BRANCH  14  18
HETATM   18  C15 UNL     1      20.840  29.604  17.548  1.00  0.00     0.180 C 
HETATM   19  O1  UNL     1      20.327  28.463  17.647  1.00  0.00    -0.647 OA
HETATM   20  O2  UNL     1      20.381  30.595  18.380  1.00  0.00    -0.647 OA
ENDBRANCH  14  18
ENDBRANCH  13  14
ENDBRANCH  10  11
ENDBRANCH   9  10
ENDBRANCH   5   9
BRANCH   7  21
HETATM   21  C17 UNL     1      22.988  36.310  11.524  1.00  0.00     0.107 A 
HETATM   22  C18 UNL     1      21.756  36.884  11.859  1.00  0.00     0.096 A 
HETATM   23  C19 UNL     1      21.394  37.767  10.890  1.00  0.00     0.056 A 
HETATM   24  C20 UNL     1      22.391  37.737   9.969  1.00  0.00     0.103 A 
HETATM   25  N1  UNL     1      23.373  36.851  10.353  1.00  0.00    -0.288 N 
HETATM   26  C21 UNL     1      24.568  36.711   9.584  1.00  0.00     0.228 C 
HETATM   27  O5  UNL     1      25.512  35.962   9.834  1.00  0.00    -0.273 OA
BRANCH  22  28
HETATM   28  O4  UNL     1      21.014  36.580  13.027  1.00  0.00    -0.358 OA
ATOM     29  H4  UNL     1      20.132  36.886  13.204  1.00  0.00     0.217 HD
ENDBRANCH  22  28
BRANCH  26  30
HETATM   30  C22 UNL     1      24.753  37.532   8.332  1.00  0.00     0.099 C 
HETATM   31  C23 UNL     1      24.539  36.577   7.150  1.00  0.00     0.014 C 
ENDBRANCH  26  30
ENDBRANCH   7  21
BRANCH   8  32
HETATM   32  O6  UNL     1      24.455  36.251  14.650  1.00  0.00    -0.384 OA
ATOM     33  H6  UNL     1      23.829  36.952  14.513  1.00  0.00     0.211 HD
ENDBRANCH   8  32
TORSDOF 11
ENDMDL
MODEL 3
REMARK VINA RESULT: -7.801214169      1.593      3.256
REMARK  11 active torsions:
REMARK  status: ('A' for Active; 'I' for Inactive)
REMARK    1  A    between atoms: C5_5  and  C6_6 
REMARK    2  A    between atoms: C6_6  and  C7_7 
REMARK    3  A    between atoms: C7_7  and  C8_8 
REMARK    4  A    between atoms: C10_10  and  C11_11 
REMARK    5  A    between atoms: C11_11  and  C12_12 
REMARK    6  A    between atoms: C11_11  and  C15_15 
REMARK    7  A    between atoms: C12_12  and  C13_13 
REMARK    8  A    between atoms: C16_19  and  C17_20 
REMARK    9  A    between atoms: C18_21  and  O4_22 
REMARK       I    between atoms: N1_26  and  C21_27 
REMARK   10  A    between atoms: C21_27  and  C22_29 
REMARK   11  A    between atoms: C24_31  and  O6_32 
ROOT
HETATM    1  C1  UNL     1      26.083  33.390  13.431  1.00  0.00     0.017 C 
HETATM    2  C2  UNL     1      24.796  33.585  13.270  1.00  0.00    -0.048 C 
HETATM    3  C3  UNL     1      23.788  32.462  13.359  1.00  0.00     0.042 C 
HETATM    4  C4  UNL     1      24.051  31.459  12.292  1.00  0.00     0.017 C 
HETATM    5  C5  UNL     1      22.476  33.141  13.290  1.00  0.00     0.137 C 
HETATM    6  O3  UNL     1      22.459  33.788  12.019  1.00  0.00    -0.344 OA
HETATM    7  C16 UNL     1      22.991  35.050  12.309  1.00  0.00     0.109 C 
HETATM    8  C24 UNL     1      24.239  35.003  13.046  1.00  0.00     0.206 C 
ENDROOT
BRANCH   5   9
HETATM    9  C6  UNL     1      21.199  32.502  13.575  1.00  0.00     0.037 C 
BRANCH   9  10
HETATM   10  C7  UNL     1      21.108  31.883  14.952  1.00  0.00     0.036 C 
BRANCH  10  11
HETATM   11  C8  UNL     1      21.303  30.446  15.034  1.00  0.00    -0.087 C 
HETATM   12  C9  UNL     1      20.482  29.662  13.954  1.00  0.00     0.043 C 
HETATM   13  C10 UNL     1      21.957  29.649  15.804  1.00  0.00    -0.009 C 
BRANCH  13  14
HETATM   14  C11 UNL     1      22.820  29.809  16.952  1.00  0.00     0.109 C 
BRANCH  14  15
HETATM   15  C12 UNL     1      24.032  28.955  16.981  1.00  0.00     0.019 C 
BRANCH  15  16
HETATM   16  C13 UNL     1      24.579  28.591  15.595  1.00  0.00    -0.003 C 
HETATM   17  C14 UNL     1      25.604  29.706  15.265  1.00  0.00     0.005 C 
ENDBRANCH  15  16
ENDBRANCH  14  15
BRANCH  14  18
HETATM   18  C15 UNL     1      21.932  29.591  18.155  1.00  0.00     0.180 C 
HETATM   19  O1  UNL     1      22.075  28.608  18.921  1.00  0.00    -0.647 OA
HETATM   20  O2  UNL     1      20.932  30.489  18.432  1.00  0.00    -0.647 OA
ENDBRANCH  14  18
ENDBRANCH  13  14
ENDBRANCH  10  11
ENDBRANCH   9  10
ENDBRANCH   5   9
BRANCH   7  21
HETATM   21  C17 UNL     1      22.636  36.110  11.369  1.00  0.00     0.107 A 
HETATM   22  C18 UNL     1      21.671  37.081  11.663  1.00  0.00     0.096 A 
HETATM   23  C19 UNL     1      21.668  38.021  10.682  1.00  0.00     0.056 A 
HETATM   24  C20 UNL     1      22.619  37.635   9.793  1.00  0.00     0.103 A 
HETATM   25  N1  UNL     1      23.219  36.467  10.209  1.00  0.00    -0.288 N 
HETATM   26  C21 UNL     1      24.312  35.910   9.479  1.00  0.00     0.228 C 
HETATM   27  O5  UNL     1      24.929  34.883   9.760  1.00  0.00    -0.273 OA
BRANCH  22  28
HETATM   28  O4  UNL     1      20.836  37.068  12.808  1.00  0.00    -0.358 OA
ATOM     29  H4  UNL     1      20.193  37.735  13.016  1.00  0.00     0.217 HD
ENDBRANCH  22  28
BRANCH  26  30
HETATM   30  C22 UNL     1      24.808  36.599   8.232  1.00  0.00     0.099 C 
HETATM   31  C23 UNL     1      25.809  35.640   7.575  1.00  0.00     0.014 C 
ENDBRANCH  26  30
ENDBRANCH   7  21
BRANCH   8  32
HETATM   32  O6  UNL     1      24.341  35.534  14.317  1.00  0.00    -0.384 OA
ATOM     33  H6  UNL     1      24.557  36.438  14.121  1.00  0.00     0.211 HD
ENDBRANCH   8  32
TORSDOF 11
ENDMDL
MODEL 4
REMARK VINA RESULT: -7.798436406      3.236      5.180
REMARK  11 active torsions:
REMARK  status: ('A' for Active; 'I' for Inactive)
REMARK    1  A    between atoms: C5_5  and  C6_6 
REMARK    2  A    between atoms: C6_6  and  C7_7 
REMARK    3  A    between atoms: C7_7  and  C8_8 
REMARK    4  A    between atoms: C10_10  and  C11_11 
REMARK    5  A    between atoms: C11_11  and  C12_12 
REMARK    6  A    between atoms: C11_11  and  C15_15 
REMARK    7  A    between atoms: C12_12  and  C13_13 
REMARK    8  A    between atoms: C16_19  and  C17_20 
REMARK    9  A    between atoms: C18_21  and  O4_22 
REMARK       I    between atoms: N1_26  and  C21_27 
REMARK   10  A    between atoms: C21_27  and  C22_29 
REMARK   11  A    between atoms: C24_31  and  O6_32 
ROOT
HETATM    1  C1  UNL     1      27.488  30.716   9.620  1.00  0.00     0.017 C 
HETATM    2  C2  UNL     1      26.842  30.814  10.757  1.00  0.00    -0.048 C 
HETATM    3  C3  UNL     1      26.600  29.622  11.656  1.00  0.00     0.042 C 
HETATM    4  C4  UNL     1      25.764  28.615  10.949  1.00  0.00     0.017 C 
HETATM    5  C5  UNL     1      26.005  30.203  12.879  1.00  0.00     0.137 C 
HETATM    6  O3  UNL     1      24.792  30.816  12.448  1.00  0.00    -0.344 OA
HETATM    7  C16 UNL     1      25.198  32.119  12.141  1.00  0.00     0.109 C 
HETATM    8  C24 UNL     1      26.353  32.181  11.267  1.00  0.00     0.206 C 
ENDROOT
BRANCH   5   9
HETATM    9  C6  UNL     1      25.818  29.480  14.130  1.00  0.00     0.037 C 
BRANCH   9  10
HETATM   10  C7  UNL     1      24.385  29.090  14.414  1.00  0.00     0.036 C 
BRANCH  10  11
HETATM   11  C8  UNL     1      24.010  28.962  15.812  1.00  0.00    -0.087 C 
HETATM   12  C9  UNL     1      25.098  28.225  16.664  1.00  0.00     0.043 C 
HETATM   13  C10 UNL     1      22.981  29.271  16.520  1.00  0.00    -0.009 C 
BRANCH  13  14
HETATM   14  C11 UNL     1      21.708  29.904  16.258  1.00  0.00     0.109 C 
BRANCH  14  15
HETATM   15  C12 UNL     1      21.737  31.069  15.341  1.00  0.00     0.019 C 
BRANCH  15  16
HETATM   16  C13 UNL     1      20.671  31.030  14.239  1.00  0.00    -0.003 C 
HETATM   17  C14 UNL     1      20.797  29.619  13.612  1.00  0.00     0.005 C 
ENDBRANCH  15  16
ENDBRANCH  14  15
BRANCH  14  18
HETATM   18  C15 UNL     1      21.147  30.253  17.617  1.00  0.00     0.180 C 
HETATM   19  O1  UNL     1      19.953  30.603  17.777  1.00  0.00    -0.647 OA
HETATM   20  O2  UNL     1      21.958  30.192  18.723  1.00  0.00    -0.647 OA
ENDBRANCH  14  18
ENDBRANCH  13  14
ENDBRANCH  10  11
ENDBRANCH   9  10
ENDBRANCH   5   9
BRANCH   7  21
HETATM   21  C17 UNL     1      24.141  33.127  12.172  1.00  0.00     0.107 A 
HETATM   22  C18 UNL     1      22.829  32.850  11.770  1.00  0.00     0.096 A 
HETATM   23  C19 UNL     1      22.037  33.917  12.058  1.00  0.00     0.056 A 
HETATM   24  C20 UNL     1      22.851  34.840  12.631  1.00  0.00     0.103 A 
HETATM   25  N1  UNL     1      24.140  34.362  12.708  1.00  0.00    -0.288 N 
HETATM   26  C21 UNL     1      25.162  35.122  13.353  1.00  0.00     0.228 C 
HETATM   27  O5  UNL     1      26.340  34.793  13.490  1.00  0.00    -0.273 OA
BRANCH  22  28
HETATM   28  O4  UNL     1      22.410  31.644  11.157  1.00  0.00    -0.358 OA
ATOM     29  H4  UNL     1      21.539  31.486  10.811  1.00  0.00     0.217 HD
ENDBRANCH  22  28
BRANCH  26  30
HETATM   30  C22 UNL     1      24.830  36.469  13.946  1.00  0.00     0.099 C 
HETATM   31  C23 UNL     1      25.589  36.557  15.277  1.00  0.00     0.014 C 
ENDBRANCH  26  30
ENDBRANCH   7  21
BRANCH   8  32
HETATM   32  O6  UNL     1      27.540  32.750  11.688  1.00  0.00    -0.384 OA
ATOM     33  H6  UNL     1      27.421  33.650  11.411  1.00  0.00     0.211 HD
ENDBRANCH   8  32
TORSDOF 11
ENDMDL
MODEL 5
REMARK VINA RESULT: -7.735647003      2.928      5.317
REMARK  11 active torsions:
REMARK  status: ('A' for Active; 'I' for Inactive)
REMARK    1  A    between atoms: C5_5  and  C6_6 
REMARK    2  A    between atoms: C6_6  and  C7_7 
REMARK    3  A    between atoms: C7_7  and  C8_8 
REMARK    4  A    between atoms: C10_10  and  C11_11 
REMARK    5  A    between atoms: C11_11  and  C12_12 
REMARK    6  A    between atoms: C11_11  and  C15_15 
REMARK    7  A    between atoms: C12_12  and  C13_13 
REMARK    8  A    between atoms: C16_19  and  C17_20 
REMARK    9  A    between atoms: C18_21  and  O4_22 
REMARK       I    between atoms: N1_26  and  C21_27 
REMARK   10  A    between atoms: C21_27  and  C22_29 
REMARK   11  A    between atoms: C24_31  and  O6_32 
ROOT
HETATM    1  C1  UNL     1      24.067  29.403  12.748  1.00  0.00     0.017 C 
HETATM    2  C2  UNL     1      23.339  30.298  13.371  1.00  0.00    -0.048 C 
HETATM    3  C3  UNL     1      22.169  29.920  14.253  1.00  0.00     0.042 C 
HETATM    4  C4  UNL     1      21.127  29.232  13.445  1.00  0.00     0.017 C 
HETATM    5  C5  UNL     1      21.755  31.195  14.877  1.00  0.00     0.137 C 
HETATM    6  O3  UNL     1      21.370  32.034  13.791  1.00  0.00    -0.344 OA
HETATM    7  C16 UNL     1      22.564  32.688  13.468  1.00  0.00     0.109 C 
HETATM    8  C24 UNL     1      23.690  31.794  13.287  1.00  0.00     0.206 C 
ENDROOT
BRANCH   5   9
HETATM    9  C6  UNL     1      20.821  31.306  15.989  1.00  0.00     0.037 C 
BRANCH   9  10
HETATM   10  C7  UNL     1      21.360  30.799  17.308  1.00  0.00     0.036 C 
BRANCH  10  11
HETATM   11  C8  UNL     1      21.095  29.407  17.628  1.00  0.00    -0.087 C 
HETATM   12  C9  UNL     1      19.586  29.024  17.459  1.00  0.00     0.043 C 
HETATM   13  C10 UNL     1      21.792  28.414  18.057  1.00  0.00    -0.009 C 
BRANCH  13  14
HETATM   14  C11 UNL     1      23.177  28.210  18.416  1.00  0.00     0.109 C 
BRANCH  14  15
HETATM   15  C12 UNL     1      24.091  27.848  17.305  1.00  0.00     0.019 C 
BRANCH  15  16
HETATM   16  C13 UNL     1      24.779  29.045  16.638  1.00  0.00    -0.003 C 
HETATM   17  C14 UNL     1      25.884  28.424  15.746  1.00  0.00     0.005 C 
ENDBRANCH  15  16
ENDBRANCH  14  15
BRANCH  14  18
HETATM   18  C15 UNL     1      23.160  27.171  19.512  1.00  0.00     0.180 C 
HETATM   19  O1  UNL     1      23.502  25.981  19.309  1.00  0.00    -0.647 OA
HETATM   20  O2  UNL     1      22.759  27.524  20.776  1.00  0.00    -0.647 OA
ENDBRANCH  14  18
ENDBRANCH  13  14
ENDBRANCH  10  11
ENDBRANCH   9  10
ENDBRANCH   5   9
BRANCH   7  21
HETATM   21  C17 UNL     1      22.410  33.962  12.770  1.00  0.00     0.107 A 
HETATM   22  C18 UNL     1      21.271  34.272  12.018  1.00  0.00     0.096 A 
HETATM   23  C19 UNL     1      21.334  35.572  11.623  1.00  0.00     0.056 A 
HETATM   24  C20 UNL     1      22.499  36.057  12.126  1.00  0.00     0.103 A 
HETATM   25  N1  UNL     1      23.161  35.078  12.833  1.00  0.00    -0.288 N 
HETATM   26  C21 UNL     1      24.371  35.376  13.529  1.00  0.00     0.228 C 
HETATM   27  O5  UNL     1      25.041  34.588  14.198  1.00  0.00    -0.273 OA
BRANCH  22  28
HETATM   28  O4  UNL     1      20.227  33.362  11.721  1.00  0.00    -0.358 OA
ATOM     29  H4  UNL     1      20.287  32.657  11.087  1.00  0.00     0.217 HD
ENDBRANCH  22  28
BRANCH  26  30
HETATM   30  C22 UNL     1      24.938  36.773  13.480  1.00  0.00     0.099 C 
HETATM   31  C23 UNL     1      25.605  37.019  14.841  1.00  0.00     0.014 C 
ENDBRANCH  26  30
ENDBRANCH   7  21
BRANCH   8  32
HETATM   32  O6  UNL     1      24.795  31.856  14.114  1.00  0.00    -0.384 OA
ATOM     33  H6  UNL     1      24.712  32.734  14.466  1.00  0.00     0.211 HD
ENDBRANCH   8  32
TORSDOF 11
ENDMDL
