MODEL 1
REMARK VINA RESULT: -6.916295101      0.000      0.000
REMARK  12 active torsions:
REMARK  status: ('A' for Active; 'I' for Inactive)
REMARK    1  A    between atoms: C2_2  and  C3_3 
REMARK    2  A    between atoms: C3_3  and  C4_4 
REMARK    3  A    between atoms: C4_4  and  C5_5 
REMARK    4  A    between atoms: C8_8  and  S1_9 
REMARK    5  A    between atoms: S1_9  and  C9_10 
REMARK    6  A    between atoms: C9_10  and  C10_11 
REMARK    7  A    between atoms: C10_11  and  C11_12 
REMARK    8  A    between atoms: C11_12  and  C12_13 
REMARK    9  A    between atoms: C12_13  and  O1_14 
REMARK   10  A    between atoms: C13_18  and  N2_19 
REMARK   11  A    between atoms: N2_19  and  C14_21 
REMARK   12  A    between atoms: N5_33  and  C23_34 
ROOT
HETATM    1  C5  UNL     1      22.868  28.371  17.139  1.00  0.00     0.014 A 
HETATM    2  C6  UNL     1      24.153  28.349  16.591  1.00  0.00     0.043 A 
HETATM    3  C7  UNL     1      24.136  29.146  15.490  1.00  0.00     0.045 A 
HETATM    4  C8  UNL     1      25.102  29.500  14.560  1.00  0.00     0.100 A 
HETATM    5  N1  UNL     1      24.781  30.315  13.568  1.00  0.00    -0.184 N 
ATOM      6  H1  UNL     1      25.504  30.565  12.893  1.00  0.00     0.185 HD
HETATM    7  C13 UNL     1      23.533  30.837  13.405  1.00  0.00     0.685 A 
HETATM    8  N4  UNL     1      22.605  30.489  14.308  1.00  0.00    -0.175 N 
ATOM      9  H4  UNL     1      21.661  30.863  14.212  1.00  0.00     0.186 HD
HETATM   10  C22 UNL     1      22.875  29.660  15.340  1.00  0.00     0.136 A 
HETATM   11  N5  UNL     1      22.114  29.164  16.374  1.00  0.00    -0.336 N 
ENDROOT
BRANCH   7  12
HETATM   12  N2  UNL     1      23.346  31.601  12.419  1.00  0.00    -0.191 N 
ATOM     13  H2  UNL     1      23.700  31.246  11.531  1.00  0.00     0.184 HD
BRANCH  12  14
HETATM   14  C14 UNL     1      22.735  32.847  12.349  1.00  0.00     0.062 A 
HETATM   15  C15 UNL     1      21.430  32.996  11.932  1.00  0.00    -0.034 A 
HETATM   16  C16 UNL     1      20.692  31.769  11.558  1.00  0.00     0.050 C 
HETATM   17  C17 UNL     1      20.833  34.262  11.866  1.00  0.00     0.011 A 
HETATM   18  C18 UNL     1      21.543  35.380  12.219  1.00  0.00     0.028 A 
HETATM   19  C19 UNL     1      22.845  35.247  12.636  1.00  0.00     0.054 A 
HETATM   20  N3  UNL     1      23.568  36.403  12.996  1.00  0.00    -0.102 NA
HETATM   21  C20 UNL     1      23.433  33.983  12.698  1.00  0.00    -0.010 A 
HETATM   22  C21 UNL     1      24.852  33.954  13.166  1.00  0.00     0.052 C 
ENDBRANCH  12  14
ENDBRANCH   7  12
BRANCH   4  23
HETATM   23  S1  UNL     1      26.752  28.849  14.727  1.00  0.00    -0.111 SA
BRANCH  23  24
HETATM   24  C9  UNL     1      27.645  28.908  13.151  1.00  0.00     0.081 C 
BRANCH  24  25
HETATM   25  C10 UNL     1      27.087  27.901  12.164  1.00  0.00     0.013 C 
BRANCH  25  26
HETATM   26  C11 UNL     1      26.423  28.607  10.996  1.00  0.00     0.027 C 
BRANCH  26  27
HETATM   27  C12 UNL     1      26.942  30.002  10.823  1.00  0.00     0.164 C 
BRANCH  27  28
HETATM   28  O1  UNL     1      25.950  30.974  10.837  1.00  0.00    -0.401 OA
ATOM     29  H1  UNL     1      25.612  31.188   9.976  1.00  0.00     0.209 HD
ENDBRANCH  27  28
ENDBRANCH  26  27
ENDBRANCH  25  26
ENDBRANCH  24  25
ENDBRANCH  23  24
ENDBRANCH   4  23
BRANCH  11  30
HETATM   30  C23 UNL     1      20.727  29.507  16.488  1.00  0.00     0.126 C 
HETATM   31  C24 UNL     1      20.393  30.533  17.528  1.00  0.00     0.027 C 
ENDBRANCH  11  30
BRANCH   1  32
HETATM   32  C4  UNL     1      22.508  27.544  18.289  1.00  0.00     0.057 C 
BRANCH  32  33
HETATM   33  C3  UNL     1      23.409  27.613  19.466  1.00  0.00     0.006 C 
BRANCH  33  34
HETATM   34  C2  UNL     1      23.621  26.295  20.126  1.00  0.00    -0.004 C 
HETATM   35  C1  UNL     1      23.982  25.258  19.067  1.00  0.00     0.005 C 
ENDBRANCH  33  34
ENDBRANCH  32  33
ENDBRANCH   1  32
TORSDOF 12
ENDMDL
MODEL 2
REMARK VINA RESULT: -6.867310910      1.690      2.022
REMARK  12 active torsions:
REMARK  status: ('A' for Active; 'I' for Inactive)
REMARK    1  A    between atoms: C2_2  and  C3_3 
REMARK    2  A    between atoms: C3_3  and  C4_4 
REMARK    3  A    between atoms: C4_4  and  C5_5 
REMARK    4  A    between atoms: C8_8  and  S1_9 
REMARK    5  A    between atoms: S1_9  and  C9_10 
REMARK    6  A    between atoms: C9_10  and  C10_11 
REMARK    7  A    between atoms: C10_11  and  C11_12 
REMARK    8  A    between atoms: C11_12  and  C12_13 
REMARK    9  A    between atoms: C12_13  and  O1_14 
REMARK   10  A    between atoms: C13_18  and  N2_19 
REMARK   11  A    between atoms: N2_19  and  C14_21 
REMARK   12  A    between atoms: N5_33  and  C23_34 
ROOT
HETATM    1  C5  UNL     1      23.622  28.653  16.530  1.00  0.00     0.014 A 
HETATM    2  C6  UNL     1      24.767  28.755  15.737  1.00  0.00     0.043 A 
HETATM    3  C7  UNL     1      24.442  29.507  14.652  1.00  0.00     0.045 A 
HETATM    4  C8  UNL     1      25.158  29.934  13.545  1.00  0.00     0.100 A 
HETATM    5  N1  UNL     1      24.557  30.675  12.628  1.00  0.00    -0.184 N 
ATOM      6  H1  UNL     1      25.099  30.980  11.819  1.00  0.00     0.185 HD
HETATM    7  C13 UNL     1      23.250  31.050  12.711  1.00  0.00     0.685 A 
HETATM    8  N4  UNL     1      22.564  30.632  13.785  1.00  0.00    -0.175 N 
ATOM      9  H4  UNL     1      21.583  30.897  13.876  1.00  0.00     0.186 HD
HETATM   10  C22 UNL     1      23.125  29.873  14.751  1.00  0.00     0.136 A 
HETATM   11  N5  UNL     1      22.645  29.332  15.922  1.00  0.00    -0.336 N 
ENDROOT
BRANCH   7  12
HETATM   12  N2  UNL     1      22.785  31.754  11.774  1.00  0.00    -0.191 N 
ATOM     13  H2  UNL     1      22.741  31.287  10.869  1.00  0.00     0.184 HD
BRANCH  12  14
HETATM   14  C14 UNL     1      22.323  33.065  11.776  1.00  0.00     0.062 A 
HETATM   15  C15 UNL     1      21.002  33.372  12.022  1.00  0.00    -0.034 A 
HETATM   16  C16 UNL     1      20.082  32.244  12.288  1.00  0.00     0.050 C 
HETATM   17  C17 UNL     1      20.557  34.701  12.019  1.00  0.00     0.011 A 
HETATM   18  C18 UNL     1      21.435  35.723  11.769  1.00  0.00     0.028 A 
HETATM   19  C19 UNL     1      22.755  35.432  11.522  1.00  0.00     0.054 A 
HETATM   20  N3  UNL     1      23.650  36.491  11.265  1.00  0.00    -0.102 NA
HETATM   21  C20 UNL     1      23.190  34.107  11.526  1.00  0.00    -0.010 A 
HETATM   22  C21 UNL     1      24.645  33.906  11.247  1.00  0.00     0.052 C 
ENDBRANCH  12  14
ENDBRANCH   7  12
BRANCH   4  23
HETATM   23  S1  UNL     1      26.872  29.475  13.385  1.00  0.00    -0.111 SA
BRANCH  23  24
HETATM   24  C9  UNL     1      27.081  28.100  12.224  1.00  0.00     0.081 C 
BRANCH  24  25
HETATM   25  C10 UNL     1      26.424  28.400  10.892  1.00  0.00     0.013 C 
BRANCH  25  26
HETATM   26  C11 UNL     1      26.186  27.121  10.111  1.00  0.00     0.027 C 
BRANCH  26  27
HETATM   27  C12 UNL     1      27.471  26.518   9.628  1.00  0.00     0.164 C 
BRANCH  27  28
HETATM   28  O1  UNL     1      27.298  25.385   8.845  1.00  0.00    -0.401 OA
ATOM     29  H1  UNL     1      28.064  25.151   8.335  1.00  0.00     0.209 HD
ENDBRANCH  27  28
ENDBRANCH  26  27
ENDBRANCH  25  26
ENDBRANCH  24  25
ENDBRANCH  23  24
ENDBRANCH   4  23
BRANCH  11  30
HETATM   30  C23 UNL     1      21.279  29.523  16.307  1.00  0.00     0.126 C 
HETATM   31  C24 UNL     1      21.038  30.559  17.363  1.00  0.00     0.027 C 
ENDBRANCH  11  30
BRANCH   1  32
HETATM   32  C4  UNL     1      23.593  27.831  17.738  1.00  0.00     0.057 C 
BRANCH  32  33
HETATM   33  C3  UNL     1      24.367  28.331  18.901  1.00  0.00     0.006 C 
BRANCH  33  34
HETATM   34  C2  UNL     1      24.052  29.743  19.256  1.00  0.00    -0.004 C 
HETATM   35  C1  UNL     1      25.342  30.464  19.631  1.00  0.00     0.005 C 
ENDBRANCH  33  34
ENDBRANCH  32  33
ENDBRANCH   1  32
TORSDOF 12
ENDMDL
MODEL 3
REMARK VINA RESULT: -6.866994879      1.065      1.436
REMARK  12 active torsions:
REMARK  status: ('A' for Active; 'I' for Inactive)
REMARK    1  A    between atoms: C2_2  and  C3_3 
REMARK    2  A    between atoms: C3_3  and  C4_4 
REMARK    3  A    between atoms: C4_4  and  C5_5 
REMARK    4  A    between atoms: C8_8  and  S1_9 
REMARK    5  A    between atoms: S1_9  and  C9_10 
REMARK    6  A    between atoms: C9_10  and  C10_11 
REMARK    7  A    between atoms: C10_11  and  C11_12 
REMARK    8  A    between atoms: C11_12  and  C12_13 
REMARK    9  A    between atoms: C12_13  and  O1_14 
REMARK   10  A    between atoms: C13_18  and  N2_19 
REMARK   11  A    between atoms: N2_19  and  C14_21 
REMARK   12  A    between atoms: N5_33  and  C23_34 
ROOT
HETATM    1  C5  UNL     1      23.249  28.573  16.745  1.00  0.00     0.014 A 
HETATM    2  C6  UNL     1      24.459  28.548  16.048  1.00  0.00     0.043 A 
HETATM    3  C7  UNL     1      24.299  29.312  14.934  1.00  0.00     0.045 A 
HETATM    4  C8  UNL     1      25.142  29.649  13.886  1.00  0.00     0.100 A 
HETATM    5  N1  UNL     1      24.694  30.431  12.917  1.00  0.00    -0.184 N 
ATOM      6  H1  UNL     1      25.328  30.668  12.153  1.00  0.00     0.185 HD
HETATM    7  C13 UNL     1      23.429  30.934  12.890  1.00  0.00     0.685 A 
HETATM    8  N4  UNL     1      22.620  30.603  13.907  1.00  0.00    -0.175 N 
ATOM      9  H4  UNL     1      21.666  30.965  13.915  1.00  0.00     0.186 HD
HETATM   10  C22 UNL     1      23.023  29.808  14.922  1.00  0.00     0.136 A 
HETATM   11  N5  UNL     1      22.398  29.335  16.054  1.00  0.00    -0.336 N 
ENDROOT
BRANCH   7  12
HETATM   12  N2  UNL     1      23.114  31.666  11.913  1.00  0.00    -0.191 N 
ATOM     13  H2  UNL     1      23.280  31.251  10.996  1.00  0.00     0.184 HD
BRANCH  12  14
HETATM   14  C14 UNL     1      22.577  32.948  11.883  1.00  0.00     0.062 A 
HETATM   15  C15 UNL     1      21.216  33.168  11.871  1.00  0.00    -0.034 A 
HETATM   16  C16 UNL     1      20.336  31.978  11.892  1.00  0.00     0.050 C 
HETATM   17  C17 UNL     1      20.695  34.468  11.840  1.00  0.00     0.011 A 
HETATM   18  C18 UNL     1      21.537  35.549  11.822  1.00  0.00     0.028 A 
HETATM   19  C19 UNL     1      22.896  35.346  11.833  1.00  0.00     0.054 A 
HETATM   20  N3  UNL     1      23.754  36.465  11.813  1.00  0.00    -0.102 NA
HETATM   21  C20 UNL     1      23.407  34.048  11.863  1.00  0.00    -0.010 A 
HETATM   22  C21 UNL     1      24.898  33.943  11.874  1.00  0.00     0.052 C 
ENDBRANCH  12  14
ENDBRANCH   7  12
BRANCH   4  23
HETATM   23  S1  UNL     1      26.810  29.020  13.871  1.00  0.00    -0.111 SA
BRANCH  23  24
HETATM   24  C9  UNL     1      27.834  29.900  12.663  1.00  0.00     0.081 C 
BRANCH  24  25
HETATM   25  C10 UNL     1      28.134  29.030  11.459  1.00  0.00     0.013 C 
BRANCH  25  26
HETATM   26  C11 UNL     1      27.240  27.804  11.448  1.00  0.00     0.027 C 
BRANCH  26  27
HETATM   27  C12 UNL     1      26.292  27.819  10.287  1.00  0.00     0.164 C 
BRANCH  27  28
HETATM   28  O1  UNL     1      25.594  29.011  10.149  1.00  0.00    -0.401 OA
ATOM     29  H1  UNL     1      24.886  28.970   9.517  1.00  0.00     0.209 HD
ENDBRANCH  27  28
ENDBRANCH  26  27
ENDBRANCH  25  26
ENDBRANCH  24  25
ENDBRANCH  23  24
ENDBRANCH   4  23
BRANCH  11  30
HETATM   30  C23 UNL     1      21.030  29.666  16.324  1.00  0.00     0.126 C 
HETATM   31  C24 UNL     1      20.795  30.542  17.517  1.00  0.00     0.027 C 
ENDBRANCH  11  30
BRANCH   1  32
HETATM   32  C4  UNL     1      23.041  27.776  17.953  1.00  0.00     0.057 C 
BRANCH  32  33
HETATM   33  C3  UNL     1      23.782  28.202  19.166  1.00  0.00     0.006 C 
BRANCH  33  34
HETATM   34  C2  UNL     1      23.837  29.681  19.334  1.00  0.00    -0.004 C 
HETATM   35  C1  UNL     1      25.295  30.121  19.417  1.00  0.00     0.005 C 
ENDBRANCH  33  34
ENDBRANCH  32  33
ENDBRANCH   1  32
TORSDOF 12
ENDMDL
MODEL 4
REMARK VINA RESULT: -6.816475921      2.595      4.995
REMARK  12 active torsions:
REMARK  status: ('A' for Active; 'I' for Inactive)
REMARK    1  A    between atoms: C2_2  and  C3_3 
REMARK    2  A    between atoms: C3_3  and  C4_4 
REMARK    3  A    between atoms: C4_4  and  C5_5 
REMARK    4  A    between atoms: C8_8  and  S1_9 
REMARK    5  A    between atoms: S1_9  and  C9_10 
REMARK    6  A    between atoms: C9_10  and  C10_11 
REMARK    7  A    between atoms: C10_11  and  C11_12 
REMARK    8  A    between atoms: C11_12  and  C12_13 
REMARK    9  A    between atoms: C12_13  and  O1_14 
REMARK   10  A    between atoms: C13_18  and  N2_19 
REMARK   11  A    between atoms: N2_19  and  C14_21 
REMARK   12  A    between atoms: N5_33  and  C23_34 
ROOT
HETATM    1  C5  UNL     1      25.361  28.789  15.025  1.00  0.00     0.014 A 
HETATM    2  C6  UNL     1      23.996  28.938  15.284  1.00  0.00     0.043 A 
HETATM    3  C7  UNL     1      23.507  29.823  14.376  1.00  0.00     0.045 A 
HETATM    4  C8  UNL     1      22.245  30.349  14.149  1.00  0.00     0.100 A 
HETATM    5  N1  UNL     1      22.068  31.215  13.164  1.00  0.00    -0.184 N 
ATOM      6  H1  UNL     1      21.133  31.593  13.012  1.00  0.00     0.185 HD
HETATM    7  C13 UNL     1      23.075  31.626  12.343  1.00  0.00     0.685 A 
HETATM    8  N4  UNL     1      24.293  31.112  12.569  1.00  0.00    -0.175 N 
ATOM      9  H4  UNL     1      25.068  31.401  11.971  1.00  0.00     0.186 HD
HETATM   10  C22 UNL     1      24.532  30.227  13.561  1.00  0.00     0.136 A 
HETATM   11  N5  UNL     1      25.665  29.571  13.985  1.00  0.00    -0.336 N 
ENDROOT
BRANCH   7  12
HETATM   12  N2  UNL     1      22.787  32.458  11.440  1.00  0.00    -0.191 N 
ATOM     13  H2  UNL     1      22.384  32.051  10.596  1.00  0.00     0.184 HD
BRANCH  12  14
HETATM   14  C14 UNL     1      22.931  33.840  11.409  1.00  0.00     0.062 A 
HETATM   15  C15 UNL     1      24.034  34.445  10.846  1.00  0.00    -0.034 A 
HETATM   16  C16 UNL     1      25.071  33.563  10.267  1.00  0.00     0.050 C 
HETATM   17  C17 UNL     1      24.161  35.841  10.826  1.00  0.00     0.011 A 
HETATM   18  C18 UNL     1      23.182  36.631  11.371  1.00  0.00     0.028 A 
HETATM   19  C19 UNL     1      22.078  36.042  11.937  1.00  0.00     0.054 A 
HETATM   20  N3  UNL     1      21.077  36.863  12.495  1.00  0.00    -0.102 NA
HETATM   21  C20 UNL     1      21.959  34.651  11.953  1.00  0.00    -0.010 A 
HETATM   22  C21 UNL     1      20.718  34.118  12.592  1.00  0.00     0.052 C 
ENDBRANCH  12  14
ENDBRANCH   7  12
BRANCH   4  23
HETATM   23  S1  UNL     1      20.890  29.845  15.190  1.00  0.00    -0.111 SA
BRANCH  23  24
HETATM   24  C9  UNL     1      20.713  30.945  16.620  1.00  0.00     0.081 C 
BRANCH  24  25
HETATM   25  C10 UNL     1      21.058  30.229  17.911  1.00  0.00     0.013 C 
BRANCH  25  26
HETATM   26  C11 UNL     1      21.192  28.736  17.676  1.00  0.00     0.027 C 
BRANCH  26  27
HETATM   27  C12 UNL     1      22.297  28.141  18.495  1.00  0.00     0.164 C 
BRANCH  27  28
HETATM   28  O1  UNL     1      22.477  26.780  18.290  1.00  0.00    -0.401 OA
ATOM     29  H1  UNL     1      22.113  26.238  18.979  1.00  0.00     0.209 HD
ENDBRANCH  27  28
ENDBRANCH  26  27
ENDBRANCH  25  26
ENDBRANCH  24  25
ENDBRANCH  23  24
ENDBRANCH   4  23
BRANCH  11  30
HETATM   30  C23 UNL     1      26.923  29.795  13.338  1.00  0.00     0.126 C 
HETATM   31  C24 UNL     1      27.293  28.810  12.272  1.00  0.00     0.027 C 
ENDBRANCH  11  30
BRANCH   1  32
HETATM   32  C4  UNL     1      26.222  27.972  15.879  1.00  0.00     0.057 C 
BRANCH  32  33
HETATM   33  C3  UNL     1      26.025  28.107  17.343  1.00  0.00     0.006 C 
BRANCH  33  34
HETATM   34  C2  UNL     1      26.557  29.385  17.895  1.00  0.00    -0.004 C 
HETATM   35  C1  UNL     1      25.537  29.974  18.863  1.00  0.00     0.005 C 
ENDBRANCH  33  34
ENDBRANCH  32  33
ENDBRANCH   1  32
TORSDOF 12
ENDMDL
MODEL 5
REMARK VINA RESULT: -6.803894195      1.377      2.169
REMARK  12 active torsions:
REMARK  status: ('A' for Active; 'I' for Inactive)
REMARK    1  A    between atoms: C2_2  and  C3_3 
REMARK    2  A    between atoms: C3_3  and  C4_4 
REMARK    3  A    between atoms: C4_4  and  C5_5 
REMARK    4  A    between atoms: C8_8  and  S1_9 
REMARK    5  A    between atoms: S1_9  and  C9_10 
REMARK    6  A    between atoms: C9_10  and  C10_11 
REMARK    7  A    between atoms: C10_11  and  C11_12 
REMARK    8  A    between atoms: C11_12  and  C12_13 
REMARK    9  A    between atoms: C12_13  and  O1_14 
REMARK   10  A    between atoms: C13_18  and  N2_19 
REMARK   11  A    between atoms: N2_19  and  C14_21 
REMARK   12  A    between atoms: N5_33  and  C23_34 
ROOT
HETATM    1  C5  UNL     1      23.216  28.584  16.751  1.00  0.00     0.014 A 
HETATM    2  C6  UNL     1      24.427  28.511  16.058  1.00  0.00     0.043 A 
HETATM    3  C7  UNL     1      24.283  29.235  14.917  1.00  0.00     0.045 A 
HETATM    4  C8  UNL     1      25.134  29.517  13.859  1.00  0.00     0.100 A 
HETATM    5  N1  UNL     1      24.702  30.271  12.860  1.00  0.00    -0.184 N 
ATOM      6  H1  UNL     1      25.340  30.468  12.090  1.00  0.00     0.185 HD
HETATM    7  C13 UNL     1      23.446  30.797  12.812  1.00  0.00     0.685 A 
HETATM    8  N4  UNL     1      22.630  30.519  13.839  1.00  0.00    -0.175 N 
ATOM      9  H4  UNL     1      21.683  30.899  13.832  1.00  0.00     0.186 HD
HETATM   10  C22 UNL     1      23.016  29.755  14.884  1.00  0.00     0.136 A 
HETATM   11  N5  UNL     1      22.380  29.336  16.031  1.00  0.00    -0.336 N 
ENDROOT
BRANCH   7  12
HETATM   12  N2  UNL     1      23.146  31.498  11.808  1.00  0.00    -0.191 N 
ATOM     13  H2  UNL     1      23.170  31.002  10.917  1.00  0.00     0.184 HD
BRANCH  12  14
HETATM   14  C14 UNL     1      22.789  32.838  11.719  1.00  0.00     0.062 A 
HETATM   15  C15 UNL     1      23.700  33.814  11.373  1.00  0.00    -0.034 A 
HETATM   16  C16 UNL     1      25.087  33.379  11.096  1.00  0.00     0.050 C 
HETATM   17  C17 UNL     1      23.320  35.160  11.291  1.00  0.00     0.011 A 
HETATM   18  C18 UNL     1      22.027  35.530  11.554  1.00  0.00     0.028 A 
HETATM   19  C19 UNL     1      21.108  34.569  11.900  1.00  0.00     0.054 A 
HETATM   20  N3  UNL     1      19.780  34.959  12.170  1.00  0.00    -0.102 NA
HETATM   21  C20 UNL     1      21.494  33.231  11.982  1.00  0.00    -0.010 A 
HETATM   22  C21 UNL     1      20.415  32.270  12.365  1.00  0.00     0.052 C 
ENDBRANCH  12  14
ENDBRANCH   7  12
BRANCH   4  23
HETATM   23  S1  UNL     1      26.788  28.857  13.871  1.00  0.00    -0.111 SA
BRANCH  23  24
HETATM   24  C9  UNL     1      27.857  29.737  12.700  1.00  0.00     0.081 C 
BRANCH  24  25
HETATM   25  C10 UNL     1      28.122  28.902  11.463  1.00  0.00     0.013 C 
BRANCH  25  26
HETATM   26  C11 UNL     1      27.224  27.679  11.440  1.00  0.00     0.027 C 
BRANCH  26  27
HETATM   27  C12 UNL     1      26.276  27.708  10.279  1.00  0.00     0.164 C 
BRANCH  27  28
HETATM   28  O1  UNL     1      25.628  28.925  10.116  1.00  0.00    -0.401 OA
ATOM     29  H1  UNL     1      24.684  28.870  10.198  1.00  0.00     0.209 HD
ENDBRANCH  27  28
ENDBRANCH  26  27
ENDBRANCH  25  26
ENDBRANCH  24  25
ENDBRANCH  23  24
ENDBRANCH   4  23
BRANCH  11  30
HETATM   30  C23 UNL     1      21.019  29.703  16.285  1.00  0.00     0.126 C 
HETATM   31  C24 UNL     1      20.790  30.562  17.492  1.00  0.00     0.027 C 
ENDBRANCH  11  30
BRANCH   1  32
HETATM   32  C4  UNL     1      22.991  27.837  17.987  1.00  0.00     0.057 C 
BRANCH  32  33
HETATM   33  C3  UNL     1      23.772  28.265  19.174  1.00  0.00     0.006 C 
BRANCH  33  34
HETATM   34  C2  UNL     1      23.870  29.745  19.312  1.00  0.00    -0.004 C 
HETATM   35  C1  UNL     1      25.340  30.143  19.395  1.00  0.00     0.005 C 
ENDBRANCH  33  34
ENDBRANCH  32  33
ENDBRANCH   1  32
TORSDOF 12
ENDMDL
