MODEL 1
REMARK VINA RESULT: -9.518447749      0.000      0.000
REMARK  8 active torsions:
REMARK  status: ('A' for Active; 'I' for Inactive)
REMARK    1  A    between atoms: C2_2  and  N1_3 
REMARK    2  A    between atoms: C2_2  and  C7_20 
REMARK       I    between atoms: N1_3  and  C3_5 
REMARK    3  A    between atoms: C3_5  and  C4_7 
REMARK    4  A    between atoms: C5_12  and  N5_13 
REMARK       I    between atoms: C7_20  and  N7_22 
REMARK    5  A    between atoms: N7_22  and  C8_24 
REMARK    6  A    between atoms: C11_27  and  C12_28 
REMARK    7  A    between atoms: C12_28  and  C13_29 
REMARK    8  A    between atoms: C14_34  and  C15_35 
ROOT
HETATM    1  C7  UNL     1     143.375  61.320 133.095  1.00  0.00     0.245 C 
HETATM    2  O3  UNL     1     142.190  61.030 132.729  1.00  0.00    -0.271 OA
HETATM    3  N7  UNL     1     143.526  62.519 133.811  1.00  0.00    -0.310 N 
ATOM      4  H7  UNL     1     143.768  62.470 134.801  1.00  0.00     0.170 HD
ENDROOT
BRANCH   3   5
HETATM    5  C8  UNL     1     143.373  63.664 133.275  1.00  0.00     0.122 A 
HETATM    6  C9  UNL     1     143.716  64.800 133.955  1.00  0.00     0.052 A 
HETATM    7  C10 UNL     1     143.553  66.066 133.378  1.00  0.00     0.030 A 
HETATM    8  C11 UNL     1     143.041  66.118 132.117  1.00  0.00     0.032 A 
HETATM    9  N12 UNL     1     142.723  64.963 131.503  1.00  0.00    -0.303 N 
HETATM   10  N13 UNL     1     142.874  63.765 132.040  1.00  0.00    -0.285 N 
ATOM     11  H12 UNL     1     142.340  65.016 130.559  1.00  0.00     0.186 HD
ATOM     12  H13 UNL     1     142.613  62.928 131.519  1.00  0.00     0.188 HD
BRANCH   8  13
HETATM   13  C12 UNL     1     142.812  67.389 131.380  1.00  0.00     0.124 C 
BRANCH  13  14
HETATM   14  C13 UNL     1     141.331  67.579 131.243  1.00  0.00     0.074 A 
HETATM   15  N8  UNL     1     140.497  68.276 132.007  1.00  0.00    -0.297 N 
HETATM   16  N9  UNL     1     139.266  68.318 131.727  1.00  0.00    -0.290 N 
ATOM     17  H8  UNL     1     140.850  68.778 132.822  1.00  0.00     0.187 HD
HETATM   18  C14 UNL     1     138.805  67.664 130.668  1.00  0.00     0.131 A 
ATOM     19  H9  UNL     1     138.627  68.855 132.314  1.00  0.00     0.187 HD
HETATM   20  S1  UNL     1     140.241  66.963 130.066  1.00  0.00    -0.053 SA
BRANCH  18  21
HETATM   21  C15 UNL     1     137.415  67.599 130.192  1.00  0.00     0.145 C 
HETATM   22  N10 UNL     1     136.477  67.214 130.986  1.00  0.00    -0.385 N 
ATOM     23 2H10 UNL     1     136.706  66.955 131.946  1.00  0.00     0.157 HD
ATOM     24 1H10 UNL     1     135.512  67.169 130.656  1.00  0.00     0.157 HD
HETATM   25  N11 UNL     1     137.100  67.957 128.870  1.00  0.00    -0.080 NA
ENDBRANCH  18  21
ENDBRANCH  13  14
ENDBRANCH   8  13
ENDBRANCH   3   5
BRANCH   1  26
HETATM   26  C2  UNL     1     144.505  60.416 132.762  1.00  0.00     0.173 C 
HETATM   27  C1  UNL     1     143.948  59.029 132.416  1.00  0.00     0.042 C 
BRANCH  26  28
HETATM   28  N1  UNL     1     145.320  60.253 133.952  1.00  0.00    -0.343 N 
HETATM   29  C3  UNL     1     146.395  61.131 134.229  1.00  0.00     0.274 C 
HETATM   30  O1  UNL     1     146.630  62.065 133.414  1.00  0.00    -0.266 OA
ATOM     31  H1  UNL     1     145.114  59.492 134.599  1.00  0.00     0.163 HD
BRANCH  29  32
HETATM   32  C4  UNL     1     147.199  60.948 135.431  1.00  0.00     0.170 A 
HETATM   33  N2  UNL     1     148.248  61.688 135.826  1.00  0.00    -0.274 N 
HETATM   34  N3  UNL     1     148.717  61.198 136.983  1.00  0.00     0.003 NA
ATOM     35  H2  UNL     1     148.627  62.493 135.326  1.00  0.00     0.184 HD
HETATM   36  N4  UNL     1     147.984  60.144 137.347  1.00  0.00    -0.042 N 
HETATM   37  C5  UNL     1     147.837  59.201 138.295  1.00  0.00     0.718 A 
HETATM   38  C6  UNL     1     147.038  59.976 136.393  1.00  0.00     0.241 A 
HETATM   39  N6  UNL     1     146.787  58.460 137.898  1.00  0.00    -0.088 N 
HETATM   40  O2  UNL     1     146.331  58.943 136.764  1.00  0.00    -0.200 OA
ATOM     41  H6  UNL     1     146.407  57.656 138.396  1.00  0.00     0.214 HD
BRANCH  37  42
HETATM   42  N5  UNL     1     148.526  59.006 139.368  1.00  0.00    -0.231 N 
ATOM     43  H52 UNL     1     148.377  59.480 140.259  1.00  0.00     0.174 HD
ATOM     44  H51 UNL     1     149.311  58.375 139.526  1.00  0.00     0.174 HD
ENDBRANCH  37  42
ENDBRANCH  29  32
ENDBRANCH  26  28
ENDBRANCH   1  26
TORSDOF 8
ENDMDL
MODEL 2
REMARK VINA RESULT: -9.166853409      4.420      8.777
REMARK  8 active torsions:
REMARK  status: ('A' for Active; 'I' for Inactive)
REMARK    1  A    between atoms: C2_2  and  N1_3 
REMARK    2  A    between atoms: C2_2  and  C7_20 
REMARK       I    between atoms: N1_3  and  C3_5 
REMARK    3  A    between atoms: C3_5  and  C4_7 
REMARK    4  A    between atoms: C5_12  and  N5_13 
REMARK       I    between atoms: C7_20  and  N7_22 
REMARK    5  A    between atoms: N7_22  and  C8_24 
REMARK    6  A    between atoms: C11_27  and  C12_28 
REMARK    7  A    between atoms: C12_28  and  C13_29 
REMARK    8  A    between atoms: C14_34  and  C15_35 
ROOT
HETATM    1  C7  UNL     1     141.568  62.590 130.510  1.00  0.00     0.245 C 
HETATM    2  O3  UNL     1     141.553  63.837 130.250  1.00  0.00    -0.271 OA
HETATM    3  N7  UNL     1     141.699  62.242 131.864  1.00  0.00    -0.310 N 
ATOM      4  H7  UNL     1     140.900  61.821 132.341  1.00  0.00     0.170 HD
ENDROOT
BRANCH   3   5
HETATM    5  C8  UNL     1     142.774  62.428 132.522  1.00  0.00     0.122 A 
HETATM    6  C9  UNL     1     143.846  61.597 132.349  1.00  0.00     0.052 A 
HETATM    7  C10 UNL     1     145.034  61.790 133.065  1.00  0.00     0.030 A 
HETATM    8  C11 UNL     1     145.077  62.836 133.936  1.00  0.00     0.032 A 
HETATM    9  N12 UNL     1     143.987  63.617 134.059  1.00  0.00    -0.303 N 
HETATM   10  N13 UNL     1     142.862  63.441 133.387  1.00  0.00    -0.285 N 
ATOM     11  H12 UNL     1     144.032  64.397 134.715  1.00  0.00     0.186 HD
ATOM     12  H13 UNL     1     142.072  64.071 133.528  1.00  0.00     0.188 HD
BRANCH   8  13
HETATM   13  C12 UNL     1     146.269  63.163 134.763  1.00  0.00     0.124 C 
BRANCH  13  14
HETATM   14  C13 UNL     1     146.639  61.934 135.539  1.00  0.00     0.074 A 
HETATM   15  N8  UNL     1     145.964  60.800 135.693  1.00  0.00    -0.297 N 
HETATM   16  N9  UNL     1     146.447  59.866 136.394  1.00  0.00    -0.290 N 
ATOM     17  H8  UNL     1     145.056  60.682 135.245  1.00  0.00     0.187 HD
HETATM   18  C14 UNL     1     147.628  60.019 136.978  1.00  0.00     0.131 A 
ATOM     19  H9  UNL     1     145.928  58.996 136.510  1.00  0.00     0.187 HD
HETATM   20  S1  UNL     1     148.040  61.598 136.474  1.00  0.00    -0.053 SA
BRANCH  18  21
HETATM   21  C15 UNL     1     148.339  59.049 137.824  1.00  0.00     0.145 C 
HETATM   22  N10 UNL     1     148.023  58.919 139.066  1.00  0.00    -0.385 N 
ATOM     23 2H10 UNL     1     147.275  59.493 139.457  1.00  0.00     0.157 HD
ATOM     24 1H10 UNL     1     148.516  58.245 139.653  1.00  0.00     0.157 HD
HETATM   25  N11 UNL     1     149.368  58.258 137.286  1.00  0.00    -0.080 NA
ENDBRANCH  18  21
ENDBRANCH  13  14
ENDBRANCH   8  13
ENDBRANCH   3   5
BRANCH   1  26
HETATM   26  C2  UNL     1     141.453  61.595 129.414  1.00  0.00     0.173 C 
HETATM   27  C1  UNL     1     140.015  61.610 128.876  1.00  0.00     0.042 C 
BRANCH  26  28
HETATM   28  N1  UNL     1     141.673  60.276 129.975  1.00  0.00    -0.343 N 
HETATM   29  C3  UNL     1     142.409  59.293 129.269  1.00  0.00     0.274 C 
HETATM   30  O1  UNL     1     142.872  59.592 128.135  1.00  0.00    -0.266 OA
ATOM     31  H1  UNL     1     141.292  60.052 130.894  1.00  0.00     0.163 HD
BRANCH  29  32
HETATM   32  C4  UNL     1     142.618  57.974 129.854  1.00  0.00     0.170 A 
HETATM   33  N2  UNL     1     143.366  56.975 129.357  1.00  0.00    -0.274 N 
HETATM   34  N3  UNL     1     143.301  55.926 130.189  1.00  0.00     0.003 NA
ATOM     35  H2  UNL     1     143.898  57.010 128.487  1.00  0.00     0.184 HD
HETATM   36  N4  UNL     1     142.518  56.230 131.225  1.00  0.00    -0.042 N 
HETATM   37  C5  UNL     1     142.005  55.752 132.374  1.00  0.00     0.718 A 
HETATM   38  C6  UNL     1     142.086  57.498 131.032  1.00  0.00     0.241 A 
HETATM   39  N6  UNL     1     141.256  56.752 132.871  1.00  0.00    -0.088 N 
HETATM   40  O2  UNL     1     141.322  57.779 132.052  1.00  0.00    -0.200 OA
ATOM     41  H6  UNL     1     140.725  56.720 133.740  1.00  0.00     0.214 HD
BRANCH  37  42
HETATM   42  N5  UNL     1     142.166  54.595 132.922  1.00  0.00    -0.231 N 
ATOM     43  H52 UNL     1     142.714  53.828 132.533  1.00  0.00     0.174 HD
ATOM     44  H51 UNL     1     141.796  54.242 133.804  1.00  0.00     0.174 HD
ENDBRANCH  37  42
ENDBRANCH  29  32
ENDBRANCH  26  28
ENDBRANCH   1  26
TORSDOF 8
ENDMDL
MODEL 3
REMARK VINA RESULT: -9.015673605      4.983      9.134
REMARK  8 active torsions:
REMARK  status: ('A' for Active; 'I' for Inactive)
REMARK    1  A    between atoms: C2_2  and  N1_3 
REMARK    2  A    between atoms: C2_2  and  C7_20 
REMARK       I    between atoms: N1_3  and  C3_5 
REMARK    3  A    between atoms: C3_5  and  C4_7 
REMARK    4  A    between atoms: C5_12  and  N5_13 
REMARK       I    between atoms: C7_20  and  N7_22 
REMARK    5  A    between atoms: N7_22  and  C8_24 
REMARK    6  A    between atoms: C11_27  and  C12_28 
REMARK    7  A    between atoms: C12_28  and  C13_29 
REMARK    8  A    between atoms: C14_34  and  C15_35 
ROOT
HETATM    1  C7  UNL     1     141.727  60.431 130.814  1.00  0.00     0.245 C 
HETATM    2  O3  UNL     1     141.854  61.429 130.032  1.00  0.00    -0.271 OA
HETATM    3  N7  UNL     1     141.659  60.725 132.186  1.00  0.00    -0.310 N 
ATOM      4  H7  UNL     1     140.774  60.584 132.674  1.00  0.00     0.170 HD
ENDROOT
BRANCH   3   5
HETATM    5  C8  UNL     1     142.658  61.160 132.846  1.00  0.00     0.122 A 
HETATM    6  C9  UNL     1     143.404  60.310 133.616  1.00  0.00     0.052 A 
HETATM    7  C10 UNL     1     144.506  60.774 134.346  1.00  0.00     0.030 A 
HETATM    8  C11 UNL     1     144.800  62.101 134.259  1.00  0.00     0.032 A 
HETATM    9  N12 UNL     1     144.026  62.883 133.484  1.00  0.00    -0.303 N 
HETATM   10  N13 UNL     1     142.985  62.453 132.791  1.00  0.00    -0.285 N 
ATOM     11  H12 UNL     1     144.257  63.875 133.428  1.00  0.00     0.186 HD
ATOM     12  H13 UNL     1     142.440  63.101 132.223  1.00  0.00     0.188 HD
BRANCH   8  13
HETATM   13  C12 UNL     1     145.937  62.734 134.978  1.00  0.00     0.124 C 
BRANCH  13  14
HETATM   14  C13 UNL     1     146.742  61.641 135.616  1.00  0.00     0.074 A 
HETATM   15  N8  UNL     1     147.557  60.756 135.052  1.00  0.00    -0.297 N 
HETATM   16  N9  UNL     1     148.155  59.901 135.764  1.00  0.00    -0.290 N 
ATOM     17  H8  UNL     1     147.700  60.766 134.042  1.00  0.00     0.187 HD
HETATM   18  C14 UNL     1     147.968  59.887 137.078  1.00  0.00     0.131 A 
ATOM     19  H9  UNL     1     148.781  59.223 135.330  1.00  0.00     0.187 HD
HETATM   20  S1  UNL     1     146.871  61.182 137.267  1.00  0.00    -0.053 SA
BRANCH  18  21
HETATM   21  C15 UNL     1     148.575  58.973 138.058  1.00  0.00     0.145 C 
HETATM   22  N10 UNL     1     148.107  58.907 139.256  1.00  0.00    -0.385 N 
ATOM     23 2H10 UNL     1     147.315  59.492 139.519  1.00  0.00     0.157 HD
ATOM     24 1H10 UNL     1     148.528  58.272 139.936  1.00  0.00     0.157 HD
HETATM   25  N11 UNL     1     149.666  58.165 137.695  1.00  0.00    -0.080 NA
ENDBRANCH  18  21
ENDBRANCH  13  14
ENDBRANCH   8  13
ENDBRANCH   3   5
BRANCH   1  26
HETATM   26  C2  UNL     1     141.657  59.053 130.266  1.00  0.00     0.173 C 
HETATM   27  C1  UNL     1     140.978  58.140 131.296  1.00  0.00     0.042 C 
BRANCH  26  28
HETATM   28  N1  UNL     1     143.012  58.562 130.103  1.00  0.00    -0.343 N 
HETATM   29  C3  UNL     1     143.271  57.324 129.468  1.00  0.00     0.274 C 
HETATM   30  O1  UNL     1     142.291  56.652 129.043  1.00  0.00    -0.266 OA
ATOM     31  H1  UNL     1     143.792  59.119 130.452  1.00  0.00     0.163 HD
BRANCH  29  32
HETATM   32  C4  UNL     1     144.641  56.851 129.315  1.00  0.00     0.170 A 
HETATM   33  N2  UNL     1     145.131  55.652 129.674  1.00  0.00    -0.274 N 
HETATM   34  N3  UNL     1     146.436  55.605 129.369  1.00  0.00     0.003 NA
ATOM     35  H2  UNL     1     144.596  54.900 130.108  1.00  0.00     0.184 HD
HETATM   36  N4  UNL     1     146.803  56.761 128.814  1.00  0.00    -0.042 N 
HETATM   37  C5  UNL     1     147.846  57.428 128.288  1.00  0.00     0.718 A 
HETATM   38  C6  UNL     1     145.701  57.546 128.775  1.00  0.00     0.241 A 
HETATM   39  N6  UNL     1     147.356  58.628 127.929  1.00  0.00    -0.088 N 
HETATM   40  O2  UNL     1     146.077  58.671 128.231  1.00  0.00    -0.200 OA
ATOM     41  H6  UNL     1     147.888  59.381 127.495  1.00  0.00     0.214 HD
BRANCH  37  42
HETATM   42  N5  UNL     1     149.069  57.046 128.137  1.00  0.00    -0.231 N 
ATOM     43  H52 UNL     1     149.837  57.258 128.774  1.00  0.00     0.174 HD
ATOM     44  H51 UNL     1     149.484  56.488 127.391  1.00  0.00     0.174 HD
ENDBRANCH  37  42
ENDBRANCH  29  32
ENDBRANCH  26  28
ENDBRANCH   1  26
TORSDOF 8
ENDMDL
MODEL 4
REMARK VINA RESULT: -8.874987086      4.184      8.395
REMARK  8 active torsions:
REMARK  status: ('A' for Active; 'I' for Inactive)
REMARK    1  A    between atoms: C2_2  and  N1_3 
REMARK    2  A    between atoms: C2_2  and  C7_20 
REMARK       I    between atoms: N1_3  and  C3_5 
REMARK    3  A    between atoms: C3_5  and  C4_7 
REMARK    4  A    between atoms: C5_12  and  N5_13 
REMARK       I    between atoms: C7_20  and  N7_22 
REMARK    5  A    between atoms: N7_22  and  C8_24 
REMARK    6  A    between atoms: C11_27  and  C12_28 
REMARK    7  A    between atoms: C12_28  and  C13_29 
REMARK    8  A    between atoms: C14_34  and  C15_35 
ROOT
HETATM    1  C7  UNL     1     140.529  61.924 129.186  1.00  0.00     0.245 C 
HETATM    2  O3  UNL     1     140.417  63.098 128.706  1.00  0.00    -0.271 OA
HETATM    3  N7  UNL     1     140.709  61.838 130.576  1.00  0.00    -0.310 N 
ATOM      4  H7  UNL     1     139.952  61.458 131.145  1.00  0.00     0.170 HD
ENDROOT
BRANCH   3   5
HETATM    5  C8  UNL     1     141.779  62.215 131.155  1.00  0.00     0.122 A 
HETATM    6  C9  UNL     1     142.636  61.296 131.695  1.00  0.00     0.052 A 
HETATM    7  C10 UNL     1     143.817  61.696 132.335  1.00  0.00     0.030 A 
HETATM    8  C11 UNL     1     144.073  63.032 132.396  1.00  0.00     0.032 A 
HETATM    9  N12 UNL     1     143.188  63.884 131.845  1.00  0.00    -0.303 N 
HETATM   10  N13 UNL     1     142.072  63.515 131.240  1.00  0.00    -0.285 N 
ATOM     11  H12 UNL     1     143.392  64.883 131.899  1.00  0.00     0.186 HD
ATOM     12  H13 UNL     1     141.444  64.213 130.843  1.00  0.00     0.188 HD
BRANCH   8  13
HETATM   13  C12 UNL     1     145.284  63.603 133.044  1.00  0.00     0.124 C 
BRANCH  13  14
HETATM   14  C13 UNL     1     145.984  62.491 133.767  1.00  0.00     0.074 A 
HETATM   15  N8  UNL     1     146.741  61.514 133.279  1.00  0.00    -0.297 N 
HETATM   16  N9  UNL     1     147.251  60.660 134.057  1.00  0.00    -0.290 N 
ATOM     17  H8  UNL     1     146.909  61.453 132.275  1.00  0.00     0.187 HD
HETATM   18  C14 UNL     1     147.031  60.738 135.363  1.00  0.00     0.131 A 
ATOM     19  H9  UNL     1     147.833  59.911 133.681  1.00  0.00     0.187 HD
HETATM   20  S1  UNL     1     146.035  62.123 135.444  1.00  0.00    -0.053 SA
BRANCH  18  21
HETATM   21  C15 UNL     1     147.538  59.840 136.411  1.00  0.00     0.145 C 
HETATM   22  N10 UNL     1     148.797  59.572 136.480  1.00  0.00    -0.385 N 
ATOM     23 2H10 UNL     1     149.436  59.987 135.803  1.00  0.00     0.157 HD
ATOM     24 1H10 UNL     1     149.149  58.948 137.208  1.00  0.00     0.157 HD
HETATM   25  N11 UNL     1     146.657  59.268 137.344  1.00  0.00    -0.080 NA
ENDBRANCH  18  21
ENDBRANCH  13  14
ENDBRANCH   8  13
ENDBRANCH   3   5
BRANCH   1  26
HETATM   26  C2  UNL     1     140.467  60.740 128.292  1.00  0.00     0.173 C 
HETATM   27  C1  UNL     1     139.009  60.506 127.874  1.00  0.00     0.042 C 
BRANCH  26  28
HETATM   28  N1  UNL     1     140.873  59.575 129.055  1.00  0.00    -0.343 N 
HETATM   29  C3  UNL     1     142.064  58.875 128.745  1.00  0.00     0.274 C 
HETATM   30  O1  UNL     1     142.770  59.290 127.786  1.00  0.00    -0.266 OA
ATOM     31  H1  UNL     1     140.290  59.254 129.828  1.00  0.00     0.163 HD
BRANCH  29  32
HETATM   32  C4  UNL     1     142.452  57.707 129.527  1.00  0.00     0.170 A 
HETATM   33  N2  UNL     1     143.333  56.754 129.179  1.00  0.00    -0.274 N 
HETATM   34  N3  UNL     1     143.410  55.851 130.168  1.00  0.00     0.003 NA
ATOM     35  H2  UNL     1     143.857  56.723 128.305  1.00  0.00     0.184 HD
HETATM   36  N4  UNL     1     142.589  56.205 131.157  1.00  0.00    -0.042 N 
HETATM   37  C5  UNL     1     142.143  55.850 132.376  1.00  0.00     0.718 A 
HETATM   38  C6  UNL     1     141.986  57.355 130.774  1.00  0.00     0.241 A 
HETATM   39  N6  UNL     1     141.261  56.804 132.723  1.00  0.00    -0.088 N 
HETATM   40  O2  UNL     1     141.187  57.687 131.751  1.00  0.00    -0.200 OA
ATOM     41  H6  UNL     1     140.736  56.838 133.596  1.00  0.00     0.214 HD
BRANCH  37  42
HETATM   42  N5  UNL     1     142.460  54.828 133.096  1.00  0.00    -0.231 N 
ATOM     43  H52 UNL     1     142.277  53.855 132.854  1.00  0.00     0.174 HD
ATOM     44  H51 UNL     1     142.931  54.796 134.000  1.00  0.00     0.174 HD
ENDBRANCH  37  42
ENDBRANCH  29  32
ENDBRANCH  26  28
ENDBRANCH   1  26
TORSDOF 8
ENDMDL
MODEL 5
REMARK VINA RESULT: -8.859072783      3.744      9.773
REMARK  8 active torsions:
REMARK  status: ('A' for Active; 'I' for Inactive)
REMARK    1  A    between atoms: C2_2  and  N1_3 
REMARK    2  A    between atoms: C2_2  and  C7_20 
REMARK       I    between atoms: N1_3  and  C3_5 
REMARK    3  A    between atoms: C3_5  and  C4_7 
REMARK    4  A    between atoms: C5_12  and  N5_13 
REMARK       I    between atoms: C7_20  and  N7_22 
REMARK    5  A    between atoms: N7_22  and  C8_24 
REMARK    6  A    between atoms: C11_27  and  C12_28 
REMARK    7  A    between atoms: C12_28  and  C13_29 
REMARK    8  A    between atoms: C14_34  and  C15_35 
ROOT
HETATM    1  C7  UNL     1     143.437  58.375 131.097  1.00  0.00     0.245 C 
HETATM    2  O3  UNL     1     144.482  57.650 131.161  1.00  0.00    -0.271 OA
HETATM    3  N7  UNL     1     143.650  59.755 130.945  1.00  0.00    -0.310 N 
ATOM      4  H7  UNL     1     143.401  60.194 130.058  1.00  0.00     0.170 HD
ENDROOT
BRANCH   3   5
HETATM    5  C8  UNL     1     144.141  60.481 131.870  1.00  0.00     0.122 A 
HETATM    6  C9  UNL     1     143.409  61.501 132.413  1.00  0.00     0.052 A 
HETATM    7  C10 UNL     1     143.936  62.307 133.430  1.00  0.00     0.030 A 
HETATM    8  C11 UNL     1     145.201  62.034 133.853  1.00  0.00     0.032 A 
HETATM    9  N12 UNL     1     145.867  61.015 133.277  1.00  0.00    -0.303 N 
HETATM   10  N13 UNL     1     145.377  60.250 132.317  1.00  0.00    -0.285 N 
ATOM     11  H12 UNL     1     146.814  60.821 133.603  1.00  0.00     0.186 HD
ATOM     12  H13 UNL     1     145.936  59.494 131.923  1.00  0.00     0.188 HD
BRANCH   8  13
HETATM   13  C12 UNL     1     145.889  62.804 134.923  1.00  0.00     0.124 C 
BRANCH  13  14
HETATM   14  C13 UNL     1     146.796  61.861 135.656  1.00  0.00     0.074 A 
HETATM   15  N8  UNL     1     148.124  61.803 135.663  1.00  0.00    -0.297 N 
HETATM   16  N9  UNL     1     148.716  60.926 136.353  1.00  0.00    -0.290 N 
ATOM     17  H8  UNL     1     148.666  62.467 135.110  1.00  0.00     0.187 HD
HETATM   18  C14 UNL     1     148.011  60.062 137.071  1.00  0.00     0.131 A 
ATOM     19  H9  UNL     1     149.735  60.884 136.358  1.00  0.00     0.187 HD
HETATM   20  S1  UNL     1     146.418  60.562 136.715  1.00  0.00    -0.053 SA
BRANCH  18  21
HETATM   21  C15 UNL     1     148.525  58.981 137.927  1.00  0.00     0.145 C 
HETATM   22  N10 UNL     1     148.013  58.780 139.092  1.00  0.00    -0.385 N 
ATOM     23 2H10 UNL     1     147.250  59.375 139.415  1.00  0.00     0.157 HD
ATOM     24 1H10 UNL     1     148.370  58.030 139.686  1.00  0.00     0.157 HD
HETATM   25  N11 UNL     1     149.576  58.161 137.482  1.00  0.00    -0.080 NA
ENDBRANCH  18  21
ENDBRANCH  13  14
ENDBRANCH   8  13
ENDBRANCH   3   5
BRANCH   1  26
HETATM   26  C2  UNL     1     142.089  57.757 131.183  1.00  0.00     0.173 C 
HETATM   27  C1  UNL     1     141.946  56.716 130.064  1.00  0.00     0.042 C 
BRANCH  26  28
HETATM   28  N1  UNL     1     141.102  58.787 130.922  1.00  0.00    -0.343 N 
HETATM   29  C3  UNL     1     140.462  59.473 131.983  1.00  0.00     0.274 C 
HETATM   30  O1  UNL     1     140.772  59.168 133.167  1.00  0.00    -0.266 OA
ATOM     31  H1  UNL     1     140.864  59.021 129.959  1.00  0.00     0.163 HD
BRANCH  29  32
HETATM   32  C4  UNL     1     139.473  60.505 131.696  1.00  0.00     0.170 A 
HETATM   33  N2  UNL     1     138.184  60.521 132.075  1.00  0.00    -0.274 N 
HETATM   34  N3  UNL     1     137.608  61.641 131.613  1.00  0.00     0.003 NA
ATOM     35  H2  UNL     1     137.719  59.799 132.625  1.00  0.00     0.184 HD
HETATM   36  N4  UNL     1     138.508  62.356 130.937  1.00  0.00    -0.042 N 
HETATM   37  C5  UNL     1     138.687  63.492 130.238  1.00  0.00     0.718 A 
HETATM   38  C6  UNL     1     139.671  61.664 130.978  1.00  0.00     0.241 A 
HETATM   39  N6  UNL     1     139.978  63.475 129.859  1.00  0.00    -0.088 N 
HETATM   40  O2  UNL     1     140.539  62.376 130.313  1.00  0.00    -0.200 OA
ATOM     41  H6  UNL     1     140.444  64.196 129.310  1.00  0.00     0.214 HD
BRANCH  37  42
HETATM   42  N5  UNL     1     137.841  64.425 129.964  1.00  0.00    -0.231 N 
ATOM     43  H52 UNL     1     136.984  64.305 129.423  1.00  0.00     0.174 HD
ATOM     44  H51 UNL     1     137.861  65.412 130.220  1.00  0.00     0.174 HD
ENDBRANCH  37  42
ENDBRANCH  29  32
ENDBRANCH  26  28
ENDBRANCH   1  26
TORSDOF 8
ENDMDL
