MODEL 1
REMARK VINA RESULT: -8.531604236      0.000      0.000
REMARK  10 active torsions:
REMARK  status: ('A' for Active; 'I' for Inactive)
REMARK    1  A    between atoms: C2_2  and  N1_3 
REMARK       I    between atoms: N1_3  and  C3_5 
REMARK    2  A    between atoms: C3_5  and  C4_7 
REMARK    3  A    between atoms: C4_7  and  O2_8 
REMARK    4  A    between atoms: C4_7  and  C5_10 
REMARK    5  A    between atoms: C5_10  and  O3_11 
REMARK    6  A    between atoms: C5_10  and  C6_13 
REMARK    7  A    between atoms: C6_13  and  N2_14 
REMARK    8  A    between atoms: C10_18  and  N3_19 
REMARK    9  A    between atoms: C13_24  and  C14_25 
REMARK   10  A    between atoms: C17_37  and  N10_38 
ROOT
HETATM    1  N2  UNL     1     142.915  59.873 131.380  1.00  0.00    -0.340 N 
HETATM    2  C7  UNL     1     141.884  60.714 131.194  1.00  0.00     0.094 A 
HETATM    3  C8  UNL     1     142.279  61.958 131.678  1.00  0.00     0.036 A 
HETATM    4  C9  UNL     1     143.561  61.864 132.162  1.00  0.00     0.057 A 
HETATM    5  C10 UNL     1     144.428  62.762 132.743  1.00  0.00     0.160 A 
HETATM    6  N9  UNL     1     145.643  62.315 133.106  1.00  0.00    -0.174 N 
ATOM      7  H9  UNL     1     146.304  62.959 133.539  1.00  0.00     0.186 HD
HETATM    8  C17 UNL     1     146.008  61.015 132.906  1.00  0.00     0.679 A 
HETATM    9  N11 UNL     1     145.150  60.153 132.339  1.00  0.00    -0.176 N 
ATOM     10  H11 UNL     1     145.437  59.185 132.197  1.00  0.00     0.186 HD
HETATM   11  C18 UNL     1     143.934  60.532 131.958  1.00  0.00     0.137 A 
ENDROOT
BRANCH   5  12
HETATM   12  N3  UNL     1     143.985  64.105 132.922  1.00  0.00    -0.201 N 
HETATM   13  N4  UNL     1     143.362  64.840 132.018  1.00  0.00    -0.293 N 
HETATM   14  C11 UNL     1     143.081  66.061 132.498  1.00  0.00     0.042 A 
ATOM     15  H4  UNL     1     143.125  64.520 131.078  1.00  0.00     0.187 HD
HETATM   16  C12 UNL     1     142.383  67.184 131.787  1.00  0.00     0.071 C 
HETATM   17  C13 UNL     1     143.554  66.115 133.794  1.00  0.00     0.104 A 
HETATM   18  C16 UNL     1     144.106  64.885 134.015  1.00  0.00     0.284 A 
HETATM   19  O4  UNL     1     144.651  64.528 135.089  1.00  0.00    -0.265 OA
BRANCH  17  20
HETATM   20  C14 UNL     1     143.475  67.247 134.712  1.00  0.00     0.152 A 
HETATM   21  N5  UNL     1     142.345  67.914 135.007  1.00  0.00    -0.266 N 
HETATM   22  N6  UNL     1     142.658  68.879 135.878  1.00  0.00    -0.003 NA
ATOM     23  H5  UNL     1     141.417  67.718 134.633  1.00  0.00     0.186 HD
HETATM   24  N7  UNL     1     143.952  68.837 136.137  1.00  0.00    -0.221 N 
HETATM   25  C15 UNL     1     144.611  69.754 137.045  1.00  0.00     0.197 C 
HETATM   26  N8  UNL     1     144.448  67.839 135.424  1.00  0.00    -0.269 N 
ATOM     27  H8  UNL     1     145.429  67.560 135.417  1.00  0.00     0.190 HD
ENDBRANCH  17  20
ENDBRANCH   5  12
BRANCH   8  28
HETATM   28  N10 UNL     1     147.168  60.568 133.248  1.00  0.00    -0.234 N 
ATOM     29 2H10 UNL     1     147.845  60.392 132.506  1.00  0.00     0.174 HD
ATOM     30 1H10 UNL     1     147.415  60.390 134.221  1.00  0.00     0.174 HD
ENDBRANCH   8  28
BRANCH   1  31
HETATM   31  C6  UNL     1     142.923  58.473 131.014  1.00  0.00     0.164 C 
BRANCH  31  32
HETATM   32  C5  UNL     1     144.083  58.149 130.096  1.00  0.00     0.174 C 
BRANCH  32  33
HETATM   33  C4  UNL     1     144.682  56.798 130.416  1.00  0.00     0.240 C 
BRANCH  33  34
HETATM   34  C3  UNL     1     145.916  56.638 129.608  1.00  0.00     0.249 C 
HETATM   35  N1  UNL     1     146.572  57.769 129.039  1.00  0.00    -0.359 N 
ATOM     36  H1  UNL     1     146.174  58.694 129.199  1.00  0.00     0.162 HD
HETATM   37  O1  UNL     1     146.421  55.507 129.399  1.00  0.00    -0.271 OA
BRANCH  35  38
HETATM   38  C2  UNL     1     147.768  57.663 128.251  1.00  0.00     0.118 C 
HETATM   39  C1  UNL     1     148.760  58.769 128.601  1.00  0.00     0.026 C 
ENDBRANCH  35  38
ENDBRANCH  33  34
BRANCH  33  40
HETATM   40  O2  UNL     1     143.772  55.773 130.132  1.00  0.00    -0.383 OA
ATOM     41  H2  UNL     1     144.117  54.933 130.408  1.00  0.00     0.210 HD
ENDBRANCH  33  40
ENDBRANCH  32  33
BRANCH  32  42
HETATM   42  O3  UNL     1     143.707  58.138 128.757  1.00  0.00    -0.391 OA
ATOM     43  H3  UNL     1     144.302  57.559 128.295  1.00  0.00     0.210 HD
ENDBRANCH  32  42
ENDBRANCH  31  32
ENDBRANCH   1  31
TORSDOF 10
ENDMDL
MODEL 2
REMARK VINA RESULT: -8.457725142      1.047      1.436
REMARK  10 active torsions:
REMARK  status: ('A' for Active; 'I' for Inactive)
REMARK    1  A    between atoms: C2_2  and  N1_3 
REMARK       I    between atoms: N1_3  and  C3_5 
REMARK    2  A    between atoms: C3_5  and  C4_7 
REMARK    3  A    between atoms: C4_7  and  O2_8 
REMARK    4  A    between atoms: C4_7  and  C5_10 
REMARK    5  A    between atoms: C5_10  and  O3_11 
REMARK    6  A    between atoms: C5_10  and  C6_13 
REMARK    7  A    between atoms: C6_13  and  N2_14 
REMARK    8  A    between atoms: C10_18  and  N3_19 
REMARK    9  A    between atoms: C13_24  and  C14_25 
REMARK   10  A    between atoms: C17_37  and  N10_38 
ROOT
HETATM    1  N2  UNL     1     143.085  60.001 131.033  1.00  0.00    -0.340 N 
HETATM    2  C7  UNL     1     142.075  60.854 130.791  1.00  0.00     0.094 A 
HETATM    3  C8  UNL     1     142.418  62.068 131.380  1.00  0.00     0.036 A 
HETATM    4  C9  UNL     1     143.646  61.944 131.982  1.00  0.00     0.057 A 
HETATM    5  C10 UNL     1     144.449  62.807 132.694  1.00  0.00     0.160 A 
HETATM    6  N9  UNL     1     145.623  62.337 133.150  1.00  0.00    -0.174 N 
ATOM      7  H9  UNL     1     146.237  62.955 133.680  1.00  0.00     0.186 HD
HETATM    8  C17 UNL     1     146.009  61.049 132.917  1.00  0.00     0.679 A 
HETATM    9  N11 UNL     1     145.213  60.221 132.222  1.00  0.00    -0.176 N 
ATOM     10  H11 UNL     1     145.515  59.262 132.056  1.00  0.00     0.186 HD
HETATM   11  C18 UNL     1     144.041  60.624 131.744  1.00  0.00     0.137 A 
ENDROOT
BRANCH   5  12
HETATM   12  N3  UNL     1     143.988  64.139 132.900  1.00  0.00    -0.201 N 
HETATM   13  N4  UNL     1     143.343  64.880 132.016  1.00  0.00    -0.293 N 
HETATM   14  C11 UNL     1     143.049  66.088 132.520  1.00  0.00     0.042 A 
ATOM     15  H4  UNL     1     143.101  64.573 131.073  1.00  0.00     0.187 HD
HETATM   16  C12 UNL     1     142.326  67.212 131.836  1.00  0.00     0.071 C 
HETATM   17  C13 UNL     1     143.534  66.127 133.812  1.00  0.00     0.104 A 
HETATM   18  C16 UNL     1     144.107  64.902 134.006  1.00  0.00     0.284 A 
HETATM   19  O4  UNL     1     144.670  64.536 135.067  1.00  0.00    -0.265 OA
BRANCH  17  20
HETATM   20  C14 UNL     1     143.448  67.241 134.751  1.00  0.00     0.152 A 
HETATM   21  N5  UNL     1     142.316  67.906 135.045  1.00  0.00    -0.266 N 
HETATM   22  N6  UNL     1     142.621  68.854 135.938  1.00  0.00    -0.003 NA
ATOM     23  H5  UNL     1     141.392  67.720 134.657  1.00  0.00     0.186 HD
HETATM   24  N7  UNL     1     143.913  68.803 136.211  1.00  0.00    -0.221 N 
HETATM   25  C15 UNL     1     144.563  69.700 137.143  1.00  0.00     0.197 C 
HETATM   26  N8  UNL     1     144.414  67.818 135.485  1.00  0.00    -0.269 N 
ATOM     27  H8  UNL     1     145.395  67.536 135.483  1.00  0.00     0.190 HD
ENDBRANCH  17  20
ENDBRANCH   5  12
BRANCH   8  28
HETATM   28  N10 UNL     1     147.131  60.581 133.347  1.00  0.00    -0.234 N 
ATOM     29 2H10 UNL     1     147.987  61.026 133.018  1.00  0.00     0.174 HD
ATOM     30 1H10 UNL     1     147.178  59.793 133.992  1.00  0.00     0.174 HD
ENDBRANCH   8  28
BRANCH   1  31
HETATM   31  C6  UNL     1     143.133  58.622 130.594  1.00  0.00     0.164 C 
BRANCH  31  32
HETATM   32  C5  UNL     1     142.776  57.672 131.717  1.00  0.00     0.174 C 
BRANCH  32  33
HETATM   33  C4  UNL     1     142.690  56.244 131.228  1.00  0.00     0.240 C 
BRANCH  33  34
HETATM   34  C3  UNL     1     143.719  56.054 130.176  1.00  0.00     0.249 C 
HETATM   35  N1  UNL     1     145.108  56.140 130.485  1.00  0.00    -0.359 N 
ATOM     36  H1  UNL     1     145.382  56.334 131.448  1.00  0.00     0.162 HD
HETATM   37  O1  UNL     1     143.401  55.815 128.984  1.00  0.00    -0.271 OA
BRANCH  35  38
HETATM   38  C2  UNL     1     146.138  55.964 129.500  1.00  0.00     0.118 C 
HETATM   39  C1  UNL     1     146.691  57.307 129.031  1.00  0.00     0.026 C 
ENDBRANCH  35  38
ENDBRANCH  33  34
BRANCH  33  40
HETATM   40  O2  UNL     1     141.414  55.970 130.723  1.00  0.00    -0.383 OA
ATOM     41  H2  UNL     1     141.425  55.955 129.774  1.00  0.00     0.210 HD
ENDBRANCH  33  40
ENDBRANCH  32  33
BRANCH  32  42
HETATM   42  O3  UNL     1     143.704  57.708 132.752  1.00  0.00    -0.391 OA
ATOM     43  H3  UNL     1     143.767  58.607 133.051  1.00  0.00     0.210 HD
ENDBRANCH  32  42
ENDBRANCH  31  32
ENDBRANCH   1  31
TORSDOF 10
ENDMDL
MODEL 3
REMARK VINA RESULT: -8.402608307      2.837      9.973
REMARK  10 active torsions:
REMARK  status: ('A' for Active; 'I' for Inactive)
REMARK    1  A    between atoms: C2_2  and  N1_3 
REMARK       I    between atoms: N1_3  and  C3_5 
REMARK    2  A    between atoms: C3_5  and  C4_7 
REMARK    3  A    between atoms: C4_7  and  O2_8 
REMARK    4  A    between atoms: C4_7  and  C5_10 
REMARK    5  A    between atoms: C5_10  and  O3_11 
REMARK    6  A    between atoms: C5_10  and  C6_13 
REMARK    7  A    between atoms: C6_13  and  N2_14 
REMARK    8  A    between atoms: C10_18  and  N3_19 
REMARK    9  A    between atoms: C13_24  and  C14_25 
REMARK   10  A    between atoms: C17_37  and  N10_38 
ROOT
HETATM    1  N2  UNL     1     143.843  62.532 133.257  1.00  0.00    -0.340 N 
HETATM    2  C7  UNL     1     144.697  61.516 133.464  1.00  0.00     0.094 A 
HETATM    3  C8  UNL     1     144.220  60.427 132.739  1.00  0.00     0.036 A 
HETATM    4  C9  UNL     1     143.066  60.792 132.089  1.00  0.00     0.057 A 
HETATM    5  C10 UNL     1     142.194  60.132 131.253  1.00  0.00     0.160 A 
HETATM    6  N9  UNL     1     141.136  60.816 130.785  1.00  0.00    -0.174 N 
ATOM      7  H9  UNL     1     140.475  60.350 130.164  1.00  0.00     0.186 HD
HETATM    8  C17 UNL     1     140.931  62.122 131.124  1.00  0.00     0.679 A 
HETATM    9  N11 UNL     1     141.791  62.750 131.940  1.00  0.00    -0.176 N 
ATOM     10  H11 UNL     1     141.624  63.726 132.185  1.00  0.00     0.186 HD
HETATM   11  C18 UNL     1     142.856  62.130 132.437  1.00  0.00     0.137 A 
ENDROOT
BRANCH   5  12
HETATM   12  N3  UNL     1     142.467  58.769 130.938  1.00  0.00    -0.201 N 
HETATM   13  N4  UNL     1     142.029  57.718 131.609  1.00  0.00    -0.293 N 
HETATM   14  C11 UNL     1     142.465  56.576 131.054  1.00  0.00     0.042 A 
ATOM     15  H4  UNL     1     141.437  57.768 132.438  1.00  0.00     0.187 HD
HETATM   16  C12 UNL     1     142.189  55.173 131.515  1.00  0.00     0.071 C 
HETATM   17  C13 UNL     1     143.233  56.914 129.958  1.00  0.00     0.104 A 
HETATM   18  C16 UNL     1     143.207  58.279 129.923  1.00  0.00     0.284 A 
HETATM   19  O4  UNL     1     143.794  58.984 129.064  1.00  0.00    -0.265 OA
BRANCH  17  20
HETATM   20  C14 UNL     1     143.916  56.000 129.047  1.00  0.00     0.152 A 
HETATM   21  N5  UNL     1     144.800  55.062 129.428  1.00  0.00    -0.266 N 
HETATM   22  N6  UNL     1     145.213  54.422 128.328  1.00  0.00    -0.003 NA
ATOM     23  H5  UNL     1     145.101  54.871 130.383  1.00  0.00     0.186 HD
HETATM   24  N7  UNL     1     144.613  54.935 127.269  1.00  0.00    -0.221 N 
HETATM   25  C15 UNL     1     144.846  54.462 125.919  1.00  0.00     0.197 C 
HETATM   26  N8  UNL     1     143.822  55.898 127.711  1.00  0.00    -0.269 N 
ATOM     27  H8  UNL     1     143.226  56.478 127.121  1.00  0.00     0.190 HD
ENDBRANCH  17  20
ENDBRANCH   5  12
BRANCH   8  28
HETATM   28  N10 UNL     1     139.922  62.794 130.684  1.00  0.00    -0.234 N 
ATOM     29 2H10 UNL     1     139.312  62.342 130.003  1.00  0.00     0.174 HD
ATOM     30 1H10 UNL     1     139.727  63.745 130.996  1.00  0.00     0.174 HD
ENDBRANCH   8  28
BRANCH   1  31
HETATM   31  C6  UNL     1     143.969  63.856 133.829  1.00  0.00     0.164 C 
BRANCH  31  32
HETATM   32  C5  UNL     1     144.491  64.850 132.813  1.00  0.00     0.174 C 
BRANCH  32  33
HETATM   33  C4  UNL     1     143.787  66.182 132.930  1.00  0.00     0.240 C 
BRANCH  33  34
HETATM   34  C3  UNL     1     142.730  66.237 131.889  1.00  0.00     0.249 C 
HETATM   35  N1  UNL     1     141.808  67.323 131.838  1.00  0.00    -0.359 N 
ATOM     36  H1  UNL     1     141.888  68.064 132.533  1.00  0.00     0.162 HD
HETATM   37  O1  UNL     1     142.615  65.334 131.024  1.00  0.00    -0.271 OA
BRANCH  35  38
HETATM   38  C2  UNL     1     140.770  67.418 130.849  1.00  0.00     0.118 C 
HETATM   39  C1  UNL     1     139.635  68.321 131.325  1.00  0.00     0.026 C 
ENDBRANCH  35  38
ENDBRANCH  33  34
BRANCH  33  40
HETATM   40  O2  UNL     1     144.693  67.236 132.768  1.00  0.00    -0.383 OA
ATOM     41  H2  UNL     1     144.993  67.552 133.613  1.00  0.00     0.210 HD
ENDBRANCH  33  40
ENDBRANCH  32  33
BRANCH  32  42
HETATM   42  O3  UNL     1     145.855  65.079 132.955  1.00  0.00    -0.391 OA
ATOM     43  H3  UNL     1     146.004  66.010 132.844  1.00  0.00     0.210 HD
ENDBRANCH  32  42
ENDBRANCH  31  32
ENDBRANCH   1  31
TORSDOF 10
ENDMDL
MODEL 4
REMARK VINA RESULT: -8.346154661      2.061      9.904
REMARK  10 active torsions:
REMARK  status: ('A' for Active; 'I' for Inactive)
REMARK    1  A    between atoms: C2_2  and  N1_3 
REMARK       I    between atoms: N1_3  and  C3_5 
REMARK    2  A    between atoms: C3_5  and  C4_7 
REMARK    3  A    between atoms: C4_7  and  O2_8 
REMARK    4  A    between atoms: C4_7  and  C5_10 
REMARK    5  A    between atoms: C5_10  and  O3_11 
REMARK    6  A    between atoms: C5_10  and  C6_13 
REMARK    7  A    between atoms: C6_13  and  N2_14 
REMARK    8  A    between atoms: C10_18  and  N3_19 
REMARK    9  A    between atoms: C13_24  and  C14_25 
REMARK   10  A    between atoms: C17_37  and  N10_38 
ROOT
HETATM    1  N2  UNL     1     143.907  64.132 132.381  1.00  0.00    -0.340 N 
HETATM    2  C7  UNL     1     142.980  63.594 131.570  1.00  0.00     0.094 A 
HETATM    3  C8  UNL     1     143.170  62.214 131.592  1.00  0.00     0.036 A 
HETATM    4  C9  UNL     1     144.222  61.920 132.425  1.00  0.00     0.057 A 
HETATM    5  C10 UNL     1     144.833  60.748 132.810  1.00  0.00     0.160 A 
HETATM    6  N9  UNL     1     145.866  60.831 133.665  1.00  0.00    -0.174 N 
ATOM      7  H9  UNL     1     146.336  59.978 133.966  1.00  0.00     0.186 HD
HETATM    8  C17 UNL     1     146.299  62.036 134.138  1.00  0.00     0.679 A 
HETATM    9  N11 UNL     1     145.693  63.169 133.751  1.00  0.00    -0.176 N 
ATOM     10  H11 UNL     1     146.027  64.062 134.113  1.00  0.00     0.186 HD
HETATM   11  C18 UNL     1     144.666  63.155 132.908  1.00  0.00     0.137 A 
ENDROOT
BRANCH   5  12
HETATM   12  N3  UNL     1     144.331  59.523 132.281  1.00  0.00    -0.201 N 
HETATM   13  N4  UNL     1     143.345  58.807 132.791  1.00  0.00    -0.293 N 
HETATM   14  C11 UNL     1     143.115  57.708 132.055  1.00  0.00     0.042 A 
ATOM     15  H4  UNL     1     142.825  59.057 133.633  1.00  0.00     0.187 HD
HETATM   16  C12 UNL     1     142.084  56.644 132.300  1.00  0.00     0.071 C 
HETATM   17  C13 UNL     1     144.011  57.717 131.006  1.00  0.00     0.104 A 
HETATM   18  C16 UNL     1     144.744  58.857 131.183  1.00  0.00     0.284 A 
HETATM   19  O4  UNL     1     145.676  59.233 130.430  1.00  0.00    -0.265 OA
BRANCH  17  20
HETATM   20  C14 UNL     1     144.137  56.720 129.947  1.00  0.00     0.152 A 
HETATM   21  N5  UNL     1     144.658  55.492 130.113  1.00  0.00    -0.266 N 
HETATM   22  N6  UNL     1     144.607  54.865 128.932  1.00  0.00    -0.003 NA
ATOM     23  H5  UNL     1     145.025  55.107 130.983  1.00  0.00     0.186 HD
HETATM   24  N7  UNL     1     144.070  55.668 128.031  1.00  0.00    -0.221 N 
HETATM   25  C15 UNL     1     143.874  55.288 126.646  1.00  0.00     0.197 C 
HETATM   26  N8  UNL     1     143.783  56.799 128.653  1.00  0.00    -0.269 N 
ATOM     27  H8  UNL     1     143.356  57.613 128.213  1.00  0.00     0.190 HD
ENDBRANCH  17  20
ENDBRANCH   5  12
BRANCH   8  28
HETATM   28  N10 UNL     1     147.288  62.136 134.958  1.00  0.00    -0.234 N 
ATOM     29 2H10 UNL     1     147.090  62.042 135.954  1.00  0.00     0.174 HD
ATOM     30 1H10 UNL     1     148.242  62.303 134.639  1.00  0.00     0.174 HD
ENDBRANCH   8  28
BRANCH   1  31
HETATM   31  C6  UNL     1     144.061  65.547 132.645  1.00  0.00     0.164 C 
BRANCH  31  32
HETATM   32  C5  UNL     1     143.033  66.038 133.641  1.00  0.00     0.174 C 
BRANCH  32  33
HETATM   33  C4  UNL     1     143.625  66.180 135.025  1.00  0.00     0.240 C 
BRANCH  33  34
HETATM   34  C3  UNL     1     143.418  67.579 135.474  1.00  0.00     0.249 C 
HETATM   35  N1  UNL     1     144.491  68.339 136.024  1.00  0.00    -0.359 N 
ATOM     36  H1  UNL     1     145.409  67.901 136.103  1.00  0.00     0.162 HD
HETATM   37  O1  UNL     1     142.296  68.136 135.386  1.00  0.00    -0.271 OA
BRANCH  35  38
HETATM   38  C2  UNL     1     144.338  69.695 136.471  1.00  0.00     0.118 C 
HETATM   39  C1  UNL     1     143.814  69.749 137.904  1.00  0.00     0.026 C 
ENDBRANCH  35  38
ENDBRANCH  33  34
BRANCH  33  40
HETATM   40  O2  UNL     1     144.988  65.863 135.014  1.00  0.00    -0.383 OA
ATOM     41  H2  UNL     1     145.376  66.080 134.174  1.00  0.00     0.210 HD
ENDBRANCH  33  40
ENDBRANCH  32  33
BRANCH  32  42
HETATM   42  O3  UNL     1     142.500  67.271 133.282  1.00  0.00    -0.391 OA
ATOM     43  H3  UNL     1     142.629  67.380 132.348  1.00  0.00     0.210 HD
ENDBRANCH  32  42
ENDBRANCH  31  32
ENDBRANCH   1  31
TORSDOF 10
ENDMDL
MODEL 5
REMARK VINA RESULT: -8.156223892      2.366      4.378
REMARK  10 active torsions:
REMARK  status: ('A' for Active; 'I' for Inactive)
REMARK    1  A    between atoms: C2_2  and  N1_3 
REMARK       I    between atoms: N1_3  and  C3_5 
REMARK    2  A    between atoms: C3_5  and  C4_7 
REMARK    3  A    between atoms: C4_7  and  O2_8 
REMARK    4  A    between atoms: C4_7  and  C5_10 
REMARK    5  A    between atoms: C5_10  and  O3_11 
REMARK    6  A    between atoms: C5_10  and  C6_13 
REMARK    7  A    between atoms: C6_13  and  N2_14 
REMARK    8  A    between atoms: C10_18  and  N3_19 
REMARK    9  A    between atoms: C13_24  and  C14_25 
REMARK   10  A    between atoms: C17_37  and  N10_38 
ROOT
HETATM    1  N2  UNL     1     145.503  56.938 129.975  1.00  0.00    -0.340 N 
HETATM    2  C7  UNL     1     146.023  58.119 129.601  1.00  0.00     0.094 A 
HETATM    3  C8  UNL     1     145.267  59.112 130.219  1.00  0.00     0.036 A 
HETATM    4  C9  UNL     1     144.282  58.521 130.973  1.00  0.00     0.057 A 
HETATM    5  C10 UNL     1     143.274  59.009 131.773  1.00  0.00     0.160 A 
HETATM    6  N9  UNL     1     142.469  58.119 132.379  1.00  0.00    -0.174 N 
ATOM      7  H9  UNL     1     141.714  58.454 132.977  1.00  0.00     0.186 HD
HETATM    8  C17 UNL     1     142.643  56.776 132.209  1.00  0.00     0.679 A 
HETATM    9  N11 UNL     1     143.630  56.318 131.424  1.00  0.00    -0.176 N 
ATOM     10  H11 UNL     1     143.747  55.312 131.306  1.00  0.00     0.186 HD
HETATM   11  C18 UNL     1     144.460  57.146 130.797  1.00  0.00     0.137 A 
ENDROOT
BRANCH   5  12
HETATM   12  N3  UNL     1     143.148  60.422 131.910  1.00  0.00    -0.201 N 
HETATM   13  N4  UNL     1     142.479  61.221 131.097  1.00  0.00    -0.293 N 
HETATM   14  C11 UNL     1     142.556  62.498 131.502  1.00  0.00     0.042 A 
ATOM     15  H4  UNL     1     141.970  60.907 130.270  1.00  0.00     0.187 HD
HETATM   16  C12 UNL     1     141.935  63.701 130.854  1.00  0.00     0.071 C 
HETATM   17  C13 UNL     1     143.324  62.522 132.649  1.00  0.00     0.104 A 
HETATM   18  C16 UNL     1     143.670  61.218 132.865  1.00  0.00     0.284 A 
HETATM   19  O4  UNL     1     144.377  60.815 133.821  1.00  0.00    -0.265 OA
BRANCH  17  20
HETATM   20  C14 UNL     1     143.681  63.694 133.443  1.00  0.00     0.152 A 
HETATM   21  N5  UNL     1     144.872  63.878 134.039  1.00  0.00    -0.266 N 
HETATM   22  N6  UNL     1     144.833  65.056 134.672  1.00  0.00    -0.003 NA
ATOM     23  H5  UNL     1     145.664  63.235 134.013  1.00  0.00     0.186 HD
HETATM   24  N7  UNL     1     143.650  65.614 134.491  1.00  0.00    -0.221 N 
HETATM   25  C15 UNL     1     143.285  66.900 135.050  1.00  0.00     0.197 C 
HETATM   26  N8  UNL     1     142.949  64.781 133.740  1.00  0.00    -0.269 N 
ATOM     27  H8  UNL     1     141.991  64.941 133.431  1.00  0.00     0.190 HD
ENDBRANCH  17  20
ENDBRANCH   5  12
BRANCH   8  28
HETATM   28  N10 UNL     1     141.881  55.908 132.781  1.00  0.00    -0.234 N 
ATOM     29 2H10 UNL     1     140.958  56.216 133.089  1.00  0.00     0.174 HD
ATOM     30 1H10 UNL     1     142.175  54.943 132.930  1.00  0.00     0.174 HD
ENDBRANCH   8  28
BRANCH   1  31
HETATM   31  C6  UNL     1     145.995  55.642 129.556  1.00  0.00     0.164 C 
BRANCH  31  32
HETATM   32  C5  UNL     1     144.952  54.887 128.759  1.00  0.00     0.174 C 
BRANCH  32  33
HETATM   33  C4  UNL     1     145.220  54.975 127.274  1.00  0.00     0.240 C 
BRANCH  33  34
HETATM   34  C3  UNL     1     144.448  56.121 126.734  1.00  0.00     0.249 C 
HETATM   35  N1  UNL     1     143.208  56.510 127.318  1.00  0.00    -0.359 N 
ATOM     36  H1  UNL     1     142.859  55.983 128.118  1.00  0.00     0.162 HD
HETATM   37  O1  UNL     1     144.860  56.782 125.748  1.00  0.00    -0.271 OA
BRANCH  35  38
HETATM   38  C2  UNL     1     142.426  57.612 126.829  1.00  0.00     0.118 C 
HETATM   39  C1  UNL     1     142.607  58.849 127.705  1.00  0.00     0.026 C 
ENDBRANCH  35  38
ENDBRANCH  33  34
BRANCH  33  40
HETATM   40  O2  UNL     1     144.851  53.787 126.634  1.00  0.00    -0.383 OA
ATOM     41  H2  UNL     1     144.447  53.187 127.249  1.00  0.00     0.210 HD
ENDBRANCH  33  40
ENDBRANCH  32  33
BRANCH  32  42
HETATM   42  O3  UNL     1     144.903  53.541 129.101  1.00  0.00    -0.391 OA
ATOM     43  H3  UNL     1     145.599  53.375 129.725  1.00  0.00     0.210 HD
ENDBRANCH  32  42
ENDBRANCH  31  32
ENDBRANCH   1  31
TORSDOF 10
ENDMDL
